REMARK  Name = ZINCqH0000003Hpe.0
REMARK                            x       y       z     vdW  Elec       q    Type
REMARK                         _______ _______ _______ _____ _____    ______ ____
ROOT
ATOM      1  C   LIG    1       -2.445  -0.319   0.023  0.00  0.00    +0.350 C 
ENDROOT
BRANCH   1  11
ATOM      2  C   LIG    1       -3.723  -2.117   1.210  0.00  0.00    +0.130 A 
ATOM      3  C   LIG    1       -4.636  -3.163   1.207  0.00  0.00    -0.020 A 
ATOM      4  C   LIG    1       -5.252  -3.534   0.033  0.00  0.00    -0.120 A 
ATOM      5  C   LIG    1       -4.976  -2.872  -1.156  0.00  0.00    +0.070 A 
ATOM      6  O   LIG    1       -5.702  -3.387  -2.187  0.00  0.00    -0.300 OA
ATOM      7  C   LIG    1       -6.170  -4.698  -1.829  0.00  0.00    +0.170 C 
ATOM      8  C   LIG    1       -7.545  -4.970  -2.441  0.00  0.00    +0.070 C 
ATOM      9  C   LIG    1       -4.061  -1.822  -1.147  0.00  0.00    +0.060 A 
ATOM     10  C   LIG    1       -6.263  -4.619  -0.286  0.00  0.00    +0.090 C 
ATOM     11  C   LIG    1       -3.437  -1.453   0.026  0.00  0.00    -0.120 A 
BRANCH   2  12
ATOM     12  O   LIG    1       -3.114  -1.745   2.367  0.00  0.00    -0.310 OA
BRANCH  12  14
ATOM     13  C   LIG    1       -2.679  -1.917   4.738  0.00  0.00    +0.070 C 
ATOM     14  C   LIG    1       -3.459  -2.475   3.546  0.00  0.00    +0.170 C 
ENDBRANCH  12  14
ENDBRANCH   2  12
ENDBRANCH   1  11
BRANCH   1  15
ATOM     15  N   LIG    1       -1.084  -0.861   0.007  0.00  0.00    -0.660 N 
ATOM     16  H   LIG    1       -0.944  -1.821   0.001  0.00  0.00    +0.420 HD
BRANCH  15  17
ATOM     17  C   LIG    1        0.002  -0.004   0.002  0.00  0.00    +0.350 A 
ATOM     18  N   LIG    1        1.278  -0.327  -0.012  0.00  0.00    -0.580 NA
ATOM     19  C   LIG    1        2.139   0.663  -0.015  0.00  0.00    +0.310 A 
ATOM     20  N   LIG    1        1.671   1.877  -0.004  0.00  0.00    -0.490 NA
ATOM     21  S   LIG    1       -0.021   1.719   0.011  0.00  0.00    +0.180 S 
BRANCH  19  22
ATOM     22  C   LIG    1        3.624   0.403  -0.031  0.00  0.00    +0.100 C 
ATOM     23  C   LIG    1        4.266   1.022   1.214  0.00  0.00    +0.010 C 
ATOM     24  C   LIG    1        5.783   0.824   1.149  0.00  0.00    +0.210 C 
ATOM     25  O   LIG    1        6.289   1.409  -0.053  0.00  0.00    -0.380 OA
ATOM     26  C   LIG    1        5.759   0.835  -1.249  0.00  0.00    +0.210 C 
ATOM     27  C   LIG    1        4.242   1.037  -1.281  0.00  0.00    +0.010 C 
ENDBRANCH  19  22
ENDBRANCH  15  17
ENDBRANCH   1  15
TORSDOF 6
