REMARK  Name = ZINCpk00000xI9eX.0
REMARK                            x       y       z     vdW  Elec       q    Type
REMARK                         _______ _______ _______ _____ _____    ______ ____
ROOT
ATOM      1  C   LIG    1       -3.121   4.480   0.048  0.00  0.00    +0.100 C 
ATOM      2  C   LIG    1       -3.575   4.049  -1.349  0.00  0.00    +0.070 C 
ENDROOT
BRANCH   1   3
ATOM      3  N   LIG    1       -3.804   5.726   0.421  0.00  0.00    -0.520 NA
ATOM      4  C   LIG    1       -3.318   6.224   1.715  0.00  0.00    +0.180 C 
ATOM      5  C   LIG    1       -3.941   7.592   2.003  0.00  0.00    +0.020 C 
ATOM      6  C   LIG    1       -5.466   7.458   2.026  0.00  0.00    +0.230 C 
ATOM      7  C   LIG    1       -5.942   6.892   0.685  0.00  0.00    +0.040 C 
ATOM      8  C   LIG    1       -5.261   5.544   0.435  0.00  0.00    +0.180 C 
BRANCH   6   9
ATOM      9  N   LIG    1       -6.071   8.775   2.243  0.00  0.00    -1.110 NA
ATOM     10  H   LIG    1       -6.223   9.368   1.492  0.00  0.00    +0.420 HD
BRANCH   9  11
ATOM     11  S   LIG    1       -6.492   9.250   3.773  0.00  0.00    +2.610 S 
ATOM     12  O   LIG    1       -7.271   8.171   4.272  0.00  0.00    -0.960 OA
ATOM     13  O   LIG    1       -7.058  10.541   3.595  0.00  0.00    -0.960 OA
ATOM     14  C   LIG    1       -4.916   9.363   4.663  0.00  0.00    -0.290 C 
ENDBRANCH   9  11
ENDBRANCH   6   9
ENDBRANCH   1   3
BRANCH   1  15
ATOM     15  C   LIG    1       -1.631   4.705   0.044  0.00  0.00    +0.420 C 
ATOM     16  O   LIG    1       -1.188   5.835   0.054  0.00  0.00    -0.430 OA
BRANCH  15  21
ATOM     17  C   LIG    1        1.098   2.329   0.009  0.00  0.00    -0.260 A 
ATOM     18  C   LIG    1       -0.017   1.503   0.004  0.00  0.00    +0.120 A 
ATOM     19  N   LIG    1       -1.117   2.268   0.011  0.00  0.00    -0.520 N 
ATOM     20  H   LIG    1       -2.029   1.938   0.006  0.00  0.00    +0.420 HD
ATOM     21  C   LIG    1       -0.748   3.598   0.029  0.00  0.00    -0.100 A 
ATOM     22  C   LIG    1        0.006  -0.004  -0.011  0.00  0.00    +0.160 C 
ATOM     23  C   LIG    1        0.627   3.662   0.024  0.00  0.00    -0.010 A 
ATOM     24  C   LIG    1        1.469   4.911   0.034  0.00  0.00    +0.130 C 
BRANCH  17  26
ATOM     25  C   LIG    1        3.194   1.564   1.295  0.00  0.00    +0.070 C 
ATOM     26  C   LIG    1        2.500   1.900  -0.000  0.00  0.00    +0.430 C 
ATOM     27  O   LIG    1        3.102   1.815  -1.050  0.00  0.00    -0.450 OA
ENDBRANCH  17  26
ENDBRANCH  15  21
ENDBRANCH   1  15
TORSDOF 6
