REMARK  Name = ZINCqH0000034FjV.0
REMARK                            x       y       z     vdW  Elec       q    Type
REMARK                         _______ _______ _______ _____ _____    ______ ____
ROOT
ATOM      1  C   LIG    1       -1.235   3.140   0.035  0.00  0.00    +0.130 A 
ATOM      2  C   LIG    1       -1.208   1.765  -0.150  0.00  0.00    +0.020 A 
ATOM      3  C   LIG    1       -0.002   1.092  -0.154  0.00  0.00    +0.010 A 
ATOM      4  C   LIG    1        1.183   1.792   0.017  0.00  0.00    +0.110 A 
ATOM      5  C   LIG    1        1.157   3.168   0.197  0.00  0.00    -0.060 A 
ATOM      6  C   LIG    1       -0.049   3.841   0.206  0.00  0.00    +0.060 A 
ENDROOT
BRANCH   1  10
ATOM      7  C   LIG    1       -4.852   5.165   0.306  0.00  0.00    +0.280 C 
ATOM      8  N   LIG    1       -3.685   5.772  -0.338  0.00  0.00    -0.620 N 
ATOM      9  C   LIG    1       -2.535   5.077  -0.443  0.00  0.00    +0.710 C 
ATOM     10  N   LIG    1       -2.459   3.823   0.044  0.00  0.00    -0.680 N 
ATOM     11  H   LIG    1       -3.252   3.392   0.401  0.00  0.00    +0.410 HD
ATOM     12  O   LIG    1       -1.566   5.581  -0.977  0.00  0.00    -0.570 OA
BRANCH   8  13
ATOM     13  C   LIG    1       -3.767   7.136  -0.868  0.00  0.00    +0.360 C 
BRANCH  13  14
ATOM     14  C   LIG    1       -4.220   7.090  -2.304  0.00  0.00    -0.070 A 
ATOM     15  C   LIG    1       -3.299   7.005  -3.337  0.00  0.00    -0.010 A 
ATOM     16  C   LIG    1       -3.752   6.961  -4.641  0.00  0.00    +0.260 A 
ATOM     17  N   LIG    1       -5.042   7.009  -4.910  0.00  0.00    -0.480 NA
ATOM     18  C   LIG    1       -5.947   7.095  -3.954  0.00  0.00    +0.250 A 
ATOM     19  C   LIG    1       -5.568   7.138  -2.625  0.00  0.00    -0.030 A 
ENDBRANCH  13  14
ENDBRANCH   8  13
ENDBRANCH   1  10
BRANCH   4  20
ATOM     20  O   LIG    1        2.371   1.131   0.009  0.00  0.00    -0.310 OA
BRANCH  20  21
ATOM     21  C   LIG    1        3.552   1.914   0.191  0.00  0.00    +0.260 C 
BRANCH  21  22
ATOM     22  C   LIG    1        4.762   1.016   0.152  0.00  0.00    -0.150 A 
ATOM     23  C   LIG    1        5.250   0.446   1.317  0.00  0.00    +0.090 A 
ATOM     24  C   LIG    1        6.362  -0.378   1.233  0.00  0.00    -0.040 A 
ATOM     25  C   LIG    1        6.950  -0.592   0.001  0.00  0.00    +0.270 A 
ATOM     26  N   LIG    1        6.461  -0.028  -1.087  0.00  0.00    -0.490 NA
ATOM     27  C   LIG    1        5.402   0.756  -1.045  0.00  0.00    +0.290 A 
ENDBRANCH  21  22
ENDBRANCH  20  21
ENDBRANCH   4  20
TORSDOF 6
