REMARK  Name = ZINCrg000000s9ZR.0
REMARK                            x       y       z     vdW  Elec       q    Type
REMARK                         _______ _______ _______ _____ _____    ______ ____
ROOT
ATOM      1  C   LIG    1       -1.183   1.473  -0.593  0.00  0.00    +0.590 C 
ATOM      2  N   LIG    1       -0.080   0.751  -0.870  0.00  0.00    -0.640 N 
ATOM      3  H   LIG    1       -0.114  -0.217  -0.842  0.00  0.00    +0.430 HD
ATOM      4  O   LIG    1       -1.157   2.686  -0.690  0.00  0.00    -0.500 OA
ENDROOT
BRANCH   2   5
ATOM      5  C   LIG    1        1.115   1.400  -1.203  0.00  0.00    +0.150 A 
ATOM      6  C   LIG    1        2.332   0.860  -0.802  0.00  0.00    +0.020 A 
ATOM      7  C   LIG    1        3.514   1.495  -1.129  0.00  0.00    +0.060 A 
ATOM      8  C   LIG    1        3.489   2.674  -1.858  0.00  0.00    +0.080 A 
ATOM      9  N   LIG    1        4.486   3.527  -2.329  0.00  0.00    -0.640 N 
ATOM     10  H   LIG    1        5.440   3.409  -2.204  0.00  0.00    +0.440 HD
ATOM     11  C   LIG    1        3.897   4.543  -2.989  0.00  0.00    +0.690 A 
ATOM     12  N   LIG    1        2.560   4.385  -2.965  0.00  0.00    -0.640 N 
ATOM     13  H   LIG    1        1.911   4.982  -3.368  0.00  0.00    +0.440 HD
ATOM     14  O   LIG    1        4.484   5.464  -3.525  0.00  0.00    -0.550 OA
ATOM     15  C   LIG    1        2.268   3.219  -2.261  0.00  0.00    +0.110 A 
ATOM     16  C   LIG    1        1.083   2.577  -1.937  0.00  0.00    +0.040 A 
ENDBRANCH   2   5
BRANCH   1  19
ATOM     17  N   LIG    1       -3.623  -1.161   0.339  0.00  0.00    -0.390 N 
ATOM     18  N   LIG    1       -2.457  -0.505  -0.068  0.00  0.00    -0.270 NA
ATOM     19  C   LIG    1       -2.422   0.794  -0.174  0.00  0.00    +0.320 C 
ATOM     20  N   LIG    1       -3.570   1.537   0.120  0.00  0.00    -0.740 N 
ATOM     21  H   LIG    1       -3.503   2.438   0.476  0.00  0.00    +0.420 HD
ATOM     22  C   LIG    1       -4.880   0.913  -0.129  0.00  0.00    +0.340 C 
ATOM     23  C   LIG    1       -4.811  -0.522   0.338  0.00  0.00    +0.480 C 
ATOM     24  O   LIG    1       -5.814  -1.094   0.709  0.00  0.00    -0.490 OA
BRANCH  17  29
ATOM     25  C   LIG    1       -3.357  -6.575   2.013  0.00  0.00    +0.090 C 
ATOM     26  C   LIG    1       -3.428  -5.137   1.568  0.00  0.00    -0.080 A 
ATOM     27  C   LIG    1       -4.378  -4.747   0.642  0.00  0.00    +0.020 A 
ATOM     28  C   LIG    1       -4.445  -3.430   0.232  0.00  0.00    +0.030 A 
ATOM     29  C   LIG    1       -3.558  -2.497   0.751  0.00  0.00    +0.140 A 
ATOM     30  C   LIG    1       -2.601  -2.893   1.677  0.00  0.00    +0.020 A 
ATOM     31  C   LIG    1       -2.542  -4.210   2.087  0.00  0.00    +0.020 A 
ENDBRANCH  17  29
ENDBRANCH   1  19
TORSDOF 3
