REMARK  Name = ZINCvU0000000In5.0
REMARK                            x       y       z     vdW  Elec       q    Type
REMARK                         _______ _______ _______ _____ _____    ______ ____
ROOT
ATOM      1  C   LIG    1        5.946   2.241  -0.045  0.00  0.00    +0.520 C 
ATOM      2  N   LIG    1        7.194   1.731  -0.058  0.00  0.00    -0.670 N 
ATOM      3  H   LIG    1        7.327   0.773   0.010  0.00  0.00    +0.420 HD
ATOM      4  O   LIG    1        5.782   3.443  -0.046  0.00  0.00    -0.480 OA
ENDROOT
BRANCH   2   5
ATOM      5  C   LIG    1        8.297   2.585  -0.170  0.00  0.00    +0.150 A 
ATOM      6  C   LIG    1        9.423   2.178  -0.875  0.00  0.00    +0.090 A 
ATOM      7  C   LIG    1       10.508   3.025  -0.988  0.00  0.00    -0.160 A 
ATOM      8  C   LIG    1       10.479   4.272  -0.392  0.00  0.00    +0.120 A 
ATOM      9  C   LIG    1        9.362   4.678   0.315  0.00  0.00    -0.160 A 
ATOM     10  C   LIG    1        8.271   3.838   0.428  0.00  0.00    +0.130 A 
BRANCH   9  11
ATOM     11  C   LIG    1        9.334   6.038   0.963  0.00  0.00    +0.510 C 
ATOM     12  F   LIG    1        9.492   7.024  -0.016  0.00  0.00    -0.170 F 
ATOM     13  F   LIG    1       10.375   6.133   1.893  0.00  0.00    -0.170 F 
ATOM     14  F   LIG    1        8.109   6.219   1.615  0.00  0.00    -0.170 F 
ENDBRANCH   9  11
BRANCH   7  15
ATOM     15  C   LIG    1       11.727   2.587  -1.757  0.00  0.00    +0.510 C 
ATOM     16  F   LIG    1       12.355   3.706  -2.314  0.00  0.00    -0.170 F 
ATOM     17  F   LIG    1       11.345   1.710  -2.778  0.00  0.00    -0.170 F 
ATOM     18  F   LIG    1       12.615   1.936  -0.893  0.00  0.00    -0.170 F 
ENDBRANCH   7  15
ENDBRANCH   2   5
BRANCH   1  19
ATOM     19  C   LIG    1        4.755   1.318  -0.029  0.00  0.00    +0.260 C 
BRANCH  19  20
ATOM     20  O   LIG    1        3.554   2.091  -0.018  0.00  0.00    -0.280 OA
BRANCH  20  28
ATOM     21  C   LIG    1       -1.299  -2.239   0.045  0.00  0.00    +0.130 C 
ATOM     22  C   LIG    1       -1.269  -0.732   0.041  0.00  0.00    +0.040 A 
ATOM     23  C   LIG    1       -2.420  -0.011   0.053  0.00  0.00    -0.100 A 
ATOM     24  C   LIG    1       -2.365   1.398   0.050  0.00  0.00    +0.510 A 
ATOM     25  O   LIG    1       -1.197   2.058   0.041  0.00  0.00    -0.270 OA
ATOM     26  C   LIG    1       -0.017   1.403   0.024  0.00  0.00    +0.190 A 
ATOM     27  C   LIG    1        1.181   2.100   0.009  0.00  0.00    -0.010 A 
ATOM     28  C   LIG    1        2.381   1.407  -0.003  0.00  0.00    +0.190 A 
ATOM     29  C   LIG    1        2.394   0.013   0.000  0.00  0.00    -0.090 A 
ATOM     30  C   LIG    1        1.223  -0.689   0.014  0.00  0.00    +0.140 A 
ATOM     31  O   LIG    1       -3.405   2.032   0.060  0.00  0.00    -0.460 OA
ATOM     32  C   LIG    1        0.003  -0.005   0.026  0.00  0.00    -0.190 A 
ENDBRANCH  20  28
ENDBRANCH  19  20
ENDBRANCH   1  19
TORSDOF 6
