REMARK  Name = ZINCvU0000000GxH.0
REMARK                            x       y       z     vdW  Elec       q    Type
REMARK                         _______ _______ _______ _____ _____    ______ ____
ROOT
ATOM      1  C   LIG    1       -0.602  -2.100   0.039  0.00  0.00    +0.160 A 
ATOM      2  N   LIG    1        0.699  -2.002   0.193  0.00  0.00    -0.290 NA
ATOM      3  N   LIG    1        1.067  -0.776   0.083  0.00  0.00    -0.260 NA
ATOM      4  C   LIG    1        0.024  -0.013  -0.148  0.00  0.00    +0.240 A 
ATOM      5  N   LIG    1       -1.080  -0.837  -0.179  0.00  0.00    -0.410 N 
ENDROOT
BRANCH   4   6
ATOM      6  C   LIG    1        0.031   1.453  -0.335  0.00  0.00    -0.030 A 
ATOM      7  C   LIG    1       -1.057   2.089  -0.935  0.00  0.00    +0.070 A 
ATOM      8  C   LIG    1       -1.047   3.458  -1.101  0.00  0.00    -0.010 A 
ATOM      9  C   LIG    1        0.045   4.201  -0.684  0.00  0.00    +0.120 A 
ATOM     10  C   LIG    1        1.131   3.575  -0.093  0.00  0.00    +0.000 A 
ATOM     11  F   LIG    1        0.052   5.541  -0.854  0.00  0.00    -0.130 F 
ATOM     12  C   LIG    1        1.129   2.207   0.084  0.00  0.00    +0.110 A 
ENDBRANCH   4   6
BRANCH   5  13
ATOM     13  C   LIG    1       -2.414  -0.460  -0.392  0.00  0.00    +0.100 A 
ATOM     14  C   LIG    1       -3.084   0.293   0.563  0.00  0.00    +0.030 A 
ATOM     15  C   LIG    1       -4.396   0.667   0.348  0.00  0.00    +0.040 A 
ATOM     16  C   LIG    1       -5.046   0.283  -0.811  0.00  0.00    +0.040 A 
ATOM     17  C   LIG    1       -4.382  -0.471  -1.761  0.00  0.00    +0.040 A 
ATOM     18  C   LIG    1       -3.068  -0.844  -1.554  0.00  0.00    +0.030 A 
ENDBRANCH   5  13
BRANCH   1  19
ATOM     19  S   LIG    1       -1.554  -3.581   0.107  0.00  0.00    +0.080 S 
BRANCH  19  20
ATOM     20  C   LIG    1       -0.241  -4.785   0.430  0.00  0.00    +0.090 C 
BRANCH  20  22
ATOM     21  O   LIG    1       -2.035  -6.320   0.398  0.00  0.00    -0.450 OA
ATOM     22  C   LIG    1       -0.839  -6.165   0.531  0.00  0.00    +0.450 C 
BRANCH  22  23
ATOM     23  C   LIG    1       -0.003  -7.282   0.781  0.00  0.00    -0.270 A 
ATOM     24  C   LIG    1        1.365  -7.271   0.949  0.00  0.00    +0.340 A 
ATOM     25  N   LIG    1        1.804  -8.525   1.172  0.00  0.00    -0.560 N 
ATOM     26  H   LIG    1        2.731  -8.766   1.322  0.00  0.00    +0.420 HD
ATOM     27  C   LIG    1        0.753  -9.420   1.152  0.00  0.00    +0.070 A 
ATOM     28  C   LIG    1        0.677 -10.799   1.320  0.00  0.00    +0.000 A 
ATOM     29  C   LIG    1       -0.543 -11.435   1.244  0.00  0.00    +0.030 A 
ATOM     30  C   LIG    1       -1.703 -10.713   1.004  0.00  0.00    +0.000 A 
ATOM     31  C   LIG    1       -1.648  -9.346   0.835  0.00  0.00    +0.060 A 
ATOM     32  C   LIG    1       -0.422  -8.691   0.909  0.00  0.00    -0.050 A 
ENDBRANCH  22  23
ENDBRANCH  20  22
ENDBRANCH  19  20
ENDBRANCH   1  19
TORSDOF 6
