REMARK  Name = ZINCtV00000L6jwj.0
REMARK                            x       y       z     vdW  Elec       q    Type
REMARK                         _______ _______ _______ _____ _____    ______ ____
ROOT
ATOM      1  C   LIG    1        3.609   5.889  -0.002  0.00  0.00    +0.270 A 
ATOM      2  N   LIG    1        4.283   6.191  -1.073  0.00  0.00    -0.470 NA
ATOM      3  C   LIG    1        5.489   6.707  -0.724  0.00  0.00    +0.040 A 
ATOM      4  C   LIG    1        6.580   7.186  -1.454  0.00  0.00    +0.070 A 
ATOM      5  C   LIG    1        7.684   7.655  -0.799  0.00  0.00    +0.000 A 
ATOM      6  C   LIG    1        7.734   7.663   0.587  0.00  0.00    +0.030 A 
ATOM      7  C   LIG    1        6.669   7.196   1.328  0.00  0.00    +0.010 A 
ATOM      8  C   LIG    1        5.540   6.715   0.680  0.00  0.00    +0.060 A 
ATOM      9  N   LIG    1        4.333   6.197   1.108  0.00  0.00    -0.480 N 
ENDROOT
BRANCH   1  10
ATOM     10  C   LIG    1        2.225   5.292   0.009  0.00  0.00    +0.320 C 
BRANCH  10  11
ATOM     11  O   LIG    1        2.322   3.866   0.000  0.00  0.00    -0.310 OA
BRANCH  11  15
ATOM     12  C   LIG    1       -1.220   1.750   0.017  0.00  0.00    -0.100 A 
ATOM     13  C   LIG    1       -0.013   1.076   0.008  0.00  0.00    +0.060 A 
ATOM     14  C   LIG    1        1.175   1.782   0.000  0.00  0.00    -0.010 A 
ATOM     15  C   LIG    1        1.155   3.169   0.008  0.00  0.00    +0.130 A 
ATOM     16  C   LIG    1       -0.057   3.844   0.023  0.00  0.00    -0.080 A 
ATOM     17  C   LIG    1       -1.242   3.133   0.031  0.00  0.00    +0.050 A 
BRANCH  12  19
ATOM     18  C   LIG    1       -2.575   0.089   1.263  0.00  0.00    +0.040 C 
ATOM     19  C   LIG    1       -2.513   0.977   0.019  0.00  0.00    -0.030 C 
ATOM     20  C   LIG    1       -2.587   0.104  -1.235  0.00  0.00    +0.040 C 
ATOM     21  C   LIG    1       -3.691   1.954   0.030  0.00  0.00    +0.030 C 
ENDBRANCH  12  19
ENDBRANCH  11  15
ENDBRANCH  10  11
ENDBRANCH   1  10
BRANCH   9  22
ATOM     22  C   LIG    1        3.913   6.009   2.499  0.00  0.00    +0.290 C 
BRANCH  22  23
ATOM     23  C   LIG    1        4.339   4.620   2.977  0.00  0.00    +0.020 C 
BRANCH  23  24
ATOM     24  C   LIG    1        3.900   4.424   4.430  0.00  0.00    -0.010 C 
ATOM     25  C   LIG    1        4.652   5.409   5.327  0.00  0.00    +0.000 C 
ATOM     26  C   LIG    1        4.213   5.213   6.780  0.00  0.00    +0.000 C 
ATOM     27  C   LIG    1        4.527   3.782   7.219  0.00  0.00    +0.000 C 
ATOM     28  C   LIG    1        3.775   2.797   6.322  0.00  0.00    +0.000 C 
ATOM     29  C   LIG    1        4.214   2.993   4.869  0.00  0.00    +0.010 C 
ENDBRANCH  23  24
ENDBRANCH  22  23
ENDBRANCH   9  22
TORSDOF 7
