REMARK  Name = ZINCvU0000000BmU.0
REMARK                            x       y       z     vdW  Elec       q    Type
REMARK                         _______ _______ _______ _____ _____    ______ ____
ROOT
ATOM      1  O   LIG    1        5.733   3.414  -1.251  0.00  0.00    -0.580 OA
ATOM      2  C   LIG    1        4.636   3.890  -1.470  0.00  0.00    +0.730 C 
ATOM      3  N   LIG    1        4.515   4.961  -2.280  0.00  0.00    -0.640 N 
ATOM      4  C   LIG    1        3.255   5.630  -2.633  0.00  0.00    +0.240 C 
ATOM      5  C   LIG    1        3.603   6.782  -3.598  0.00  0.00    +0.040 C 
ATOM      6  C   LIG    1        4.970   6.340  -4.185  0.00  0.00    -0.010 C 
ATOM      7  C   LIG    1        5.625   5.650  -2.963  0.00  0.00    +0.280 C 
ATOM      8  N   LIG    1        3.541   3.348  -0.902  0.00  0.00    -0.740 N 
ATOM      9  H   LIG    1        2.665   3.728  -1.077  0.00  0.00    +0.400 HD
ENDROOT
BRANCH   6  10
ATOM     10  C   LIG    1        5.790   7.551  -4.637  0.00  0.00    +0.090 C 
BRANCH  10  11
ATOM     11  C   LIG    1        7.120   7.085  -5.169  0.00  0.00    -0.070 A 
ATOM     12  C   LIG    1        8.203   6.968  -4.317  0.00  0.00    +0.000 A 
ATOM     13  C   LIG    1        9.424   6.536  -4.801  0.00  0.00    +0.030 A 
ATOM     14  C   LIG    1        9.568   6.231  -6.141  0.00  0.00    -0.020 A 
ATOM     15  C   LIG    1        8.485   6.354  -6.999  0.00  0.00    +0.110 A 
ATOM     16  C   LIG    1        7.260   6.782  -6.510  0.00  0.00    -0.010 A 
BRANCH  15  17
ATOM     17  O   LIG    1        8.624   6.054  -8.318  0.00  0.00    -0.500 OA
ATOM     18  H   LIG    1        8.891   6.805  -8.866  0.00  0.00    +0.390 HD
ENDBRANCH  15  17
ENDBRANCH  10  11
ENDBRANCH   6  10
BRANCH   8  19
ATOM     19  C   LIG    1        3.672   2.184  -0.022  0.00  0.00    +0.350 C 
BRANCH  19  20
ATOM     20  C   LIG    1        2.377   1.412  -0.013  0.00  0.00    -0.100 A 
ATOM     21  C   LIG    1        1.171   2.087   0.002  0.00  0.00    +0.090 A 
ATOM     22  C   LIG    1       -0.017   1.380   0.010  0.00  0.00    +0.000 A 
ATOM     23  C   LIG    1        0.002  -0.004   0.002  0.00  0.00    +0.150 A 
ATOM     24  C   LIG    1        1.211  -0.679  -0.013  0.00  0.00    -0.220 A 
ATOM     25  F   LIG    1       -1.158  -0.696   0.010  0.00  0.00    -0.120 F 
ATOM     26  C   LIG    1        2.397   0.030  -0.021  0.00  0.00    +0.120 A 
BRANCH  24  27
ATOM     27  C   LIG    1        1.233  -2.186  -0.022  0.00  0.00    +0.510 C 
ATOM     28  F   LIG    1        0.570  -2.655  -1.161  0.00  0.00    -0.170 F 
ATOM     29  F   LIG    1        0.591  -2.668   1.124  0.00  0.00    -0.170 F 
ATOM     30  F   LIG    1        2.559  -2.633  -0.037  0.00  0.00    -0.170 F 
ENDBRANCH  24  27
ENDBRANCH  19  20
BRANCH  19  31
ATOM     31  C   LIG    1        3.996   2.653   1.398  0.00  0.00    -0.060 C 
ATOM     32  C   LIG    1        3.919   4.154   1.681  0.00  0.00    +0.010 C 
ATOM     33  C   LIG    1        5.280   3.459   1.600  0.00  0.00    +0.030 C 
ENDBRANCH  19  31
ENDBRANCH   8  19
TORSDOF 7
