REMARK  Name = ZINCtV00000L6kA0.0
REMARK                            x       y       z     vdW  Elec       q    Type
REMARK                         _______ _______ _______ _____ _____    ______ ____
ROOT
ATOM      1  C   LIG    1        2.456   0.815   0.110  0.00  0.00    +0.060 C 
ENDROOT
BRANCH   1   2
ATOM      2  C   LIG    1        2.700   0.436   1.547  0.00  0.00    -0.100 A 
ATOM      3  C   LIG    1        2.844   1.421   2.507  0.00  0.00    +0.040 A 
ATOM      4  C   LIG    1        3.065   1.073   3.826  0.00  0.00    +0.010 A 
ATOM      5  C   LIG    1        3.150  -0.259   4.185  0.00  0.00    +0.020 A 
ATOM      6  C   LIG    1        3.011  -1.244   3.225  0.00  0.00    +0.010 A 
ATOM      7  C   LIG    1        2.787  -0.896   1.906  0.00  0.00    +0.060 A 
ENDBRANCH   1   2
BRANCH   1   8
ATOM      8  C   LIG    1        1.176   1.604   0.009  0.00  0.00    +0.540 C 
ATOM      9  N   LIG    1       -0.011   0.966   0.007  0.00  0.00    -0.650 N 
ATOM     10  H   LIG    1       -0.040  -0.004  -0.012  0.00  0.00    +0.410 HD
ATOM     11  O   LIG    1        1.214   2.814  -0.071  0.00  0.00    -0.500 OA
BRANCH   9  12
ATOM     12  C   LIG    1       -1.201   1.702   0.028  0.00  0.00    +0.150 A 
ATOM     13  C   LIG    1       -1.216   2.987   0.553  0.00  0.00    +0.020 A 
ATOM     14  C   LIG    1       -2.391   3.712   0.568  0.00  0.00    -0.070 A 
ATOM     15  C   LIG    1       -3.555   3.156   0.070  0.00  0.00    -0.010 A 
ATOM     16  C   LIG    1       -3.545   1.874  -0.449  0.00  0.00    +0.030 A 
ATOM     17  C   LIG    1       -2.406   5.109   1.133  0.00  0.00    +0.090 C 
ATOM     18  C   LIG    1       -2.372   1.145  -0.471  0.00  0.00    -0.120 A 
ATOM     19  C   LIG    1       -2.362  -0.252  -1.037  0.00  0.00    +0.080 C 
ENDBRANCH   9  12
ENDBRANCH   1   8
BRANCH   1  20
ATOM     20  S   LIG    1        3.837   1.824  -0.493  0.00  0.00    +0.110 S 
BRANCH  20  24
ATOM     21  C   LIG    1        7.355  -0.553  -0.516  0.00  0.00    +0.020 A 
ATOM     22  N   LIG    1        6.329  -1.223  -0.093  0.00  0.00    -0.280 NA
ATOM     23  N   LIG    1        5.141  -0.528  -0.046  0.00  0.00    -0.270 NA
ATOM     24  C   LIG    1        5.198   0.705  -0.441  0.00  0.00    +0.010 A 
ATOM     25  S   LIG    1        6.851   1.087  -0.910  0.00  0.00    +0.150 S 
BRANCH  21  26
ATOM     26  S   LIG    1        8.993  -1.183  -0.672  0.00  0.00    +0.030 S 
BRANCH  26  27
ATOM     27  C   LIG    1        8.825  -2.900  -0.112  0.00  0.00    +0.140 C 
BRANCH  27  29
ATOM     28  C   LIG    1       10.844  -3.818   0.908  0.00  0.00    +0.060 C 
ATOM     29  C   LIG    1       10.165  -3.586  -0.188  0.00  0.00    -0.130 C 
ATOM     30  C   LIG    1       10.722  -4.006  -1.523  0.00  0.00    +0.090 C 
ENDBRANCH  27  29
ENDBRANCH  26  27
ENDBRANCH  21  26
ENDBRANCH  20  24
ENDBRANCH   1  20
TORSDOF 8
