REMARK  Name = ZINCrg00000fSzUW.0
REMARK                            x       y       z     vdW  Elec       q    Type
REMARK                         _______ _______ _______ _____ _____    ______ ____
ROOT
ATOM      1  N   LIG    1        0.980  -5.030  -0.137  0.00  0.00    -0.710 N 
ATOM      2  H   LIG    1        1.846  -4.595  -0.142  0.00  0.00    +0.430 HD
ATOM      3  C   LIG    1       -0.143  -4.294  -0.021  0.00  0.00    +0.590 C 
ATOM      4  O   LIG    1       -1.224  -4.844   0.080  0.00  0.00    -0.560 OA
ENDROOT
BRANCH   3   5
ATOM      5  C   LIG    1       -0.063  -2.825  -0.015  0.00  0.00    -0.350 A 
ATOM      6  C   LIG    1       -1.210  -2.059  -0.014  0.00  0.00    +0.430 A 
ATOM      7  N   LIG    1       -1.176  -0.720  -0.009  0.00  0.00    -0.590 N 
ATOM      8  H   LIG    1       -2.015  -0.234  -0.008  0.00  0.00    +0.430 HD
ATOM      9  C   LIG    1        0.002  -0.004  -0.005  0.00  0.00    +0.180 A 
ATOM     10  C   LIG    1       -0.018   1.388  -0.001  0.00  0.00    -0.030 A 
ATOM     11  C   LIG    1        1.166   2.093   0.003  0.00  0.00    +0.080 A 
ATOM     12  C   LIG    1        2.385   1.431   0.001  0.00  0.00    -0.010 A 
ATOM     13  C   LIG    1        2.428   0.054  -0.003  0.00  0.00    +0.110 A 
ATOM     14  C   LIG    1        1.238  -0.673  -0.006  0.00  0.00    -0.180 A 
ATOM     15  C   LIG    1        1.244  -2.147  -0.011  0.00  0.00    +0.430 A 
ATOM     16  O   LIG    1        2.286  -2.778  -0.012  0.00  0.00    -0.470 OA
ENDBRANCH   3   5
BRANCH   1  17
ATOM     17  C   LIG    1        0.891  -6.488  -0.254  0.00  0.00    +0.300 C 
BRANCH  17  19
ATOM     18  O   LIG    1        3.244  -6.335  -0.355  0.00  0.00    -0.520 OA
ATOM     19  C   LIG    1        2.277  -7.067  -0.370  0.00  0.00    +0.510 C 
ATOM     20  N   LIG    1        2.443  -8.399  -0.489  0.00  0.00    -0.720 N 
ATOM     21  H   LIG    1        1.670  -8.985  -0.501  0.00  0.00    +0.400 HD
BRANCH  20  22
ATOM     22  C   LIG    1        3.790  -8.963  -0.602  0.00  0.00    +0.240 C 
ATOM     23  C   LIG    1        3.721 -10.307  -1.330  0.00  0.00    +0.040 C 
ATOM     24  C   LIG    1        5.134 -10.763  -1.712  0.00  0.00    +0.150 C 
ATOM     25  C   LIG    1        6.005 -10.681  -0.482  0.00  0.00    +0.080 A 
ATOM     26  N   LIG    1        7.163 -11.240  -0.275  0.00  0.00    -0.290 NA
ATOM     27  N   LIG    1        7.592 -10.889   1.014  0.00  0.00    -0.480 N 
ATOM     28  H   LIG    1        8.422 -11.165   1.433  0.00  0.00    +0.440 HD
ATOM     29  C   LIG    1        6.646 -10.098   1.568  0.00  0.00    +0.250 A 
ATOM     30  C   LIG    1        5.657  -9.953   0.667  0.00  0.00    -0.230 A 
ATOM     31  C   LIG    1        4.378  -9.164   0.801  0.00  0.00    +0.100 C 
ENDBRANCH  20  22
ENDBRANCH  17  19
ENDBRANCH   1  17
TORSDOF 4
