REMARK  Name = ZINCAx0000000ajm.0
REMARK                            x       y       z     vdW  Elec       q    Type
REMARK                         _______ _______ _______ _____ _____    ______ ____
ROOT
ATOM      1  C   LIG    1       -0.445   6.677  -0.146  0.00  0.00    +0.250 C 
ENDROOT
BRANCH   1   2
ATOM      2  C   LIG    1       -0.864   7.252   1.208  0.00  0.00    +0.000 C 
ATOM      3  C   LIG    1       -1.540   6.158   2.042  0.00  0.00    +0.010 C 
ATOM      4  C   LIG    1       -2.026   6.761   3.362  0.00  0.00    +0.200 C 
ATOM      5  O   LIG    1       -2.919   7.842   3.091  0.00  0.00    -0.380 OA
ATOM      6  C   LIG    1       -2.329   8.916   2.355  0.00  0.00    +0.200 C 
ATOM      7  C   LIG    1       -1.855   8.400   0.994  0.00  0.00    -0.010 C 
ENDBRANCH   1   2
BRANCH   1   8
ATOM      8  C   LIG    1        0.625   5.636   0.059  0.00  0.00    -0.010 A 
ATOM      9  C   LIG    1        0.602   4.354  -0.376  0.00  0.00    +0.170 A 
ATOM     10  N   LIG    1        1.762   3.795   0.038  0.00  0.00    -0.290 N 
ATOM     11  N   LIG    1        2.437   4.688   0.672  0.00  0.00    -0.080 NA
ATOM     12  N   LIG    1        1.786   5.798   0.703  0.00  0.00    -0.260 NA
BRANCH  10  13
ATOM     13  C   LIG    1        2.181   2.411  -0.201  0.00  0.00    +0.270 C 
BRANCH  13  14
ATOM     14  C   LIG    1        0.976   1.507  -0.157  0.00  0.00    +0.520 C 
ATOM     15  O   LIG    1        0.305   1.341  -1.154  0.00  0.00    -0.500 OA
ATOM     16  N   LIG    1        0.647   0.878   0.989  0.00  0.00    -0.840 N 
ATOM     17  H   LIG    1       -0.167   0.353   1.037  0.00  0.00    +0.410 HD
ATOM     18  H   LIG    1        1.224   0.951   1.765  0.00  0.00    +0.400 HD
ENDBRANCH  13  14
BRANCH  13  19
ATOM     19  C   LIG    1        2.845   2.309  -1.575  0.00  0.00    +0.110 C 
BRANCH  19  20
ATOM     20  C   LIG    1        3.366   0.910  -1.779  0.00  0.00    -0.100 A 
ATOM     21  C   LIG    1        4.603   0.553  -1.276  0.00  0.00    +0.010 A 
ATOM     22  C   LIG    1        5.079  -0.732  -1.459  0.00  0.00    +0.000 A 
ATOM     23  C   LIG    1        4.322  -1.657  -2.153  0.00  0.00    +0.010 A 
ATOM     24  C   LIG    1        3.087  -1.299  -2.660  0.00  0.00    +0.000 A 
ATOM     25  C   LIG    1        2.609  -0.015  -2.473  0.00  0.00    +0.030 A 
ENDBRANCH  19  20
ENDBRANCH  13  19
ENDBRANCH  10  13
ENDBRANCH   1   8
BRANCH   1  26
ATOM     26  N   LIG    1       -1.609   6.062  -0.798  0.00  0.00    -0.680 NA
ATOM     27  H   LIG    1       -2.463   6.521  -0.521  0.00  0.00    +0.360 HD
BRANCH  26  28
ATOM     28  C   LIG    1       -1.458   6.069  -2.260  0.00  0.00    +0.240 C 
BRANCH  28  31
ATOM     29  C   LIG    1       -4.894   5.865  -3.817  0.00  0.00    +0.140 A 
ATOM     30  C   LIG    1       -3.744   6.371  -3.231  0.00  0.00    +0.060 A 
ATOM     31  C   LIG    1       -2.708   5.520  -2.896  0.00  0.00    -0.040 A 
ATOM     32  C   LIG    1       -2.817   4.165  -3.150  0.00  0.00    +0.090 A 
ATOM     33  C   LIG    1       -3.965   3.658  -3.729  0.00  0.00    -0.000 A 
ATOM     34  C   LIG    1       -5.003   4.505  -4.066  0.00  0.00    +0.010 A 
BRANCH  33  35
ATOM     35  N   LIG    1       -4.081   2.206  -3.994  0.00  0.00    +0.020 N 
ATOM     36  O   LIG    1       -3.166   1.458  -3.698  0.00  0.00    -0.140 OA
ATOM     37  O   LIG    1       -5.090   1.759  -4.508  0.00  0.00    -0.160 OA
ENDBRANCH  33  35
BRANCH  29  39
ATOM     38  C   LIG    1       -7.069   6.111  -4.747  0.00  0.00    +0.250 C 
ATOM     39  O   LIG    1       -5.914   6.701  -4.147  0.00  0.00    -0.300 OA
ENDBRANCH  29  39
ENDBRANCH  28  31
ENDBRANCH  26  28
ENDBRANCH   1  26
TORSDOF 11
