REMARK  Name = ZINCpk00000e95di.0
REMARK                            x       y       z     vdW  Elec       q    Type
REMARK                         _______ _______ _______ _____ _____    ______ ____
ROOT
ATOM      1  N   LIG    1        1.366   1.593  -0.002  0.00  0.00    -0.510 NA
ATOM      2  C   LIG    1        1.389   3.055  -0.143  0.00  0.00    +0.190 C 
ATOM      3  C   LIG    1        2.835   3.550  -0.070  0.00  0.00    +0.200 C 
ATOM      4  N   LIG    1        3.623   2.910  -1.132  0.00  0.00    -0.530 NA
ATOM      5  C   LIG    1        3.601   1.447  -0.991  0.00  0.00    +0.200 C 
ATOM      6  C   LIG    1        2.155   0.952  -1.064  0.00  0.00    +0.180 C 
ENDROOT
BRANCH   1  11
ATOM      7  N   LIG    1       -0.760  -1.281  -0.279  0.00  0.00    -0.600 N 
ATOM      8  C   LIG    1       -1.656  -0.973  -1.386  0.00  0.00    +0.260 C 
ATOM      9  C   LIG    1       -1.965   0.524  -1.424  0.00  0.00    +0.030 C 
ATOM     10  C   LIG    1       -0.644   1.300  -1.370  0.00  0.00    +0.000 C 
ATOM     11  C   LIG    1       -0.013   1.086   0.008  0.00  0.00    +0.190 C 
ATOM     12  C   LIG    1       -0.004  -0.378   0.342  0.00  0.00    +0.520 C 
ATOM     13  O   LIG    1        0.734  -0.761   1.226  0.00  0.00    -0.520 OA
BRANCH   7  15
ATOM     14  C   LIG    1        0.744  -3.184   0.030  0.00  0.00    +0.030 C 
ATOM     15  C   LIG    1       -0.689  -2.671   0.180  0.00  0.00    +0.220 C 
ATOM     16  C   LIG    1       -1.107  -2.744   1.650  0.00  0.00    +0.020 C 
ENDBRANCH   7  15
ENDBRANCH   1  11
BRANCH   4  17
ATOM     17  C   LIG    1        5.002   3.416  -1.142  0.00  0.00    +0.360 C 
BRANCH  17  18
ATOM     18  C   LIG    1        4.986   4.920  -1.040  0.00  0.00    +0.190 A 
ATOM     19  N   LIG    1        5.006   5.628   0.064  0.00  0.00    -0.470 NA
ATOM     20  C   LIG    1        4.981   6.913  -0.330  0.00  0.00    +0.200 A 
ATOM     21  N   LIG    1        4.940   6.921  -1.629  0.00  0.00    -0.380 NA
ATOM     22  O   LIG    1        4.942   5.786  -2.056  0.00  0.00    +0.090 OA
BRANCH  20  23
ATOM     23  C   LIG    1        4.992   8.122   0.570  0.00  0.00    +0.060 C 
ATOM     24  C   LIG    1        4.747   9.487  -0.078  0.00  0.00    +0.050 C 
ATOM     25  C   LIG    1        6.149   9.111   0.409  0.00  0.00    +0.050 C 
ENDBRANCH  20  23
ENDBRANCH  17  18
ENDBRANCH   4  17
TORSDOF 5
