REMARK  Name = ZINCvU000000058M.0
REMARK                            x       y       z     vdW  Elec       q    Type
REMARK                         _______ _______ _______ _____ _____    ______ ____
ROOT
ATOM      1  C   LIG    1       -1.677  -1.943   7.458  0.00  0.00    -0.680 A 
ATOM      2  C   LIG    1       -0.414  -1.380   7.482  0.00  0.00    +0.160 A 
ATOM      3  C   LIG    1       -0.003  -0.542   6.460  0.00  0.00    +0.010 A 
ATOM      4  C   LIG    1       -0.852  -0.262   5.410  0.00  0.00    +0.100 A 
ATOM      5  C   LIG    1       -2.129  -0.827   5.380  0.00  0.00    -0.150 A 
ATOM      6  C   LIG    1       -2.539  -1.667   6.416  0.00  0.00    +0.210 A 
ENDROOT
BRANCH   5   7
ATOM      7  C   LIG    1       -3.045  -0.531   4.258  0.00  0.00    +0.580 C 
ATOM      8  N   LIG    1       -2.648   0.284   3.261  0.00  0.00    -0.590 N 
ATOM      9  H   LIG    1       -1.762   0.678   3.280  0.00  0.00    +0.380 HD
ATOM     10  O   LIG    1       -4.156  -1.024   4.234  0.00  0.00    -0.490 OA
BRANCH   8  11
ATOM     11  N   LIG    1       -3.516   0.564   2.197  0.00  0.00    -0.230 NA
ATOM     12  C   LIG    1       -3.106   1.257   1.202  0.00  0.00    +0.110 C 
ATOM     13  C   LIG    1       -1.725   1.875   1.203  0.00  0.00    +0.030 C 
ATOM     14  C   LIG    1       -1.017   1.487  -0.099  0.00  0.00    -0.010 C 
ATOM     15  C   LIG    1       -1.886   1.890  -1.291  0.00  0.00    +0.030 C 
ATOM     16  C   LIG    1       -3.200   1.105  -1.263  0.00  0.00    -0.060 C 
ATOM     17  C   LIG    1       -4.025   1.448  -2.505  0.00  0.00    +0.040 C 
ATOM     18  C   LIG    1       -2.897  -0.395  -1.249  0.00  0.00    +0.020 C 
ATOM     19  C   LIG    1        0.330   2.209  -0.182  0.00  0.00    +0.020 C 
ATOM     20  C   LIG    1       -3.990   1.479  -0.005  0.00  0.00    +0.130 C 
ENDBRANCH   8  11
ENDBRANCH   5   7
BRANCH   1  21
ATOM     21  S   LIG    1       -2.190  -3.008   8.765  0.00  0.00    +2.690 S 
ATOM     22  O   LIG    1       -1.003  -3.527   9.348  0.00  0.00    -0.940 OA
ATOM     23  O   LIG    1       -3.219  -3.830   8.231  0.00  0.00    -0.940 OA
BRANCH  21  24
ATOM     24  N   LIG    1       -2.902  -2.058   9.920  0.00  0.00    -1.050 N 
ATOM     25  H   LIG    1       -2.539  -2.033  10.818  0.00  0.00    +0.430 HD
BRANCH  24  30
ATOM     26  C   LIG    1       -7.469   1.043   8.621  0.00  0.00    +0.090 C 
ATOM     27  C   LIG    1       -6.255   0.219   8.966  0.00  0.00    -0.090 A 
ATOM     28  C   LIG    1       -6.082  -1.028   8.392  0.00  0.00    +0.040 A 
ATOM     29  C   LIG    1       -4.971  -1.785   8.706  0.00  0.00    +0.000 A 
ATOM     30  C   LIG    1       -4.027  -1.294   9.599  0.00  0.00    +0.140 A 
ATOM     31  C   LIG    1       -4.207  -0.044  10.178  0.00  0.00    -0.100 A 
ATOM     32  C   LIG    1       -3.189   0.490  11.152  0.00  0.00    +0.090 C 
ATOM     33  C   LIG    1       -5.318   0.711   9.855  0.00  0.00    +0.030 A 
ENDBRANCH  24  30
ENDBRANCH  21  24
ENDBRANCH   1  21
TORSDOF 5
