REMARK  Name = ZINCpk00000y6z1q.0
REMARK                            x       y       z     vdW  Elec       q    Type
REMARK                         _______ _______ _______ _____ _____    ______ ____
ROOT
ATOM      1  C   LIG    1        4.333   0.646  -1.990  0.00  0.00    -0.350 C 
ENDROOT
BRANCH   1   2
ATOM      2  C   LIG    1        2.865   1.075  -2.028  0.00  0.00    +0.000 C 
ATOM      3  C   LIG    1        2.736   2.386  -2.807  0.00  0.00    +0.040 C 
ATOM      4  C   LIG    1        1.264   2.799  -2.874  0.00  0.00    +0.020 C 
ATOM      5  C   LIG    1        0.736   3.023  -1.458  0.00  0.00    +0.260 C 
ATOM      6  N   LIG    1        0.989   1.819  -0.656  0.00  0.00    -0.610 N 
ATOM      7  C   LIG    1       -0.014   1.213   0.009  0.00  0.00    +0.590 C 
ATOM      8  O   LIG    1        0.181   0.150   0.569  0.00  0.00    -0.520 OA
ATOM      9  C   LIG    1        2.356   1.283  -0.599  0.00  0.00    +0.280 C 
BRANCH   7  10
ATOM     10  C   LIG    1       -1.343   1.831   0.052  0.00  0.00    -0.270 A 
ATOM     11  C   LIG    1       -2.528   1.157   0.142  0.00  0.00    +0.100 A 
ATOM     12  C   LIG    1       -3.625   1.986   0.164  0.00  0.00    +0.000 A 
ATOM     13  C   LIG    1       -3.349   3.293   0.095  0.00  0.00    -0.070 A 
ATOM     14  S   LIG    1       -1.666   3.558   0.004  0.00  0.00    +0.220 S 
ENDBRANCH   7  10
ENDBRANCH   1   2
BRANCH   1  15
ATOM     15  S   LIG    1        4.468  -0.978  -1.193  0.00  0.00    +2.600 S 
ATOM     16  O   LIG    1        3.886  -1.985  -2.009  0.00  0.00    -0.950 OA
ATOM     17  O   LIG    1        4.152  -0.882   0.189  0.00  0.00    -0.950 OA
BRANCH  15  18
ATOM     18  N   LIG    1        6.088  -1.318  -1.218  0.00  0.00    -1.120 NA
ATOM     19  H   LIG    1        6.419  -2.066  -1.740  0.00  0.00    +0.420 HD
BRANCH  18  20
ATOM     20  C   LIG    1        7.023  -0.488  -0.453  0.00  0.00    +0.360 C 
BRANCH  20  24
ATOM     21  C   LIG    1       10.750  -3.402   1.202  0.00  0.00    +0.360 C 
ATOM     22  N   LIG    1        9.966  -2.469   0.388  0.00  0.00    -0.370 N 
ATOM     23  C   LIG    1        8.713  -2.046   0.652  0.00  0.00    +0.260 A 
ATOM     24  C   LIG    1        8.347  -1.199  -0.338  0.00  0.00    -0.260 A 
ATOM     25  C   LIG    1        9.417  -1.094  -1.232  0.00  0.00    +0.250 A 
ATOM     26  N   LIG    1       10.389  -1.855  -0.798  0.00  0.00    -0.300 NA
ENDBRANCH  20  24
ENDBRANCH  18  20
ENDBRANCH  15  18
ENDBRANCH   1  15
TORSDOF 6
