REMARK  Name = ZINCqH0000032xUt.0
REMARK                            x       y       z     vdW  Elec       q    Type
REMARK                         _______ _______ _______ _____ _____    ______ ____
ROOT
ATOM      1  N   LIG    1       -2.435   1.016   0.019  0.00  0.00    -1.050 N 
ATOM      2  H   LIG    1       -3.161   1.276  -0.570  0.00  0.00    +0.430 HD
ENDROOT
BRANCH   1   8
ATOM      3  N   LIG    1        2.188   3.972   0.002  0.00  0.00    -0.380 N 
ATOM      4  N   LIG    1        1.653   5.264   0.014  0.00  0.00    -0.230 NA
ATOM      5  C   LIG    1        0.352   5.209   0.026  0.00  0.00    +0.280 A 
ATOM      6  C   LIG    1       -0.033   3.802   0.023  0.00  0.00    -0.210 A 
ATOM      7  C   LIG    1       -1.259   3.126   0.031  0.00  0.00    +0.150 A 
ATOM      8  C   LIG    1       -1.238   1.740   0.018  0.00  0.00    +0.040 A 
ATOM      9  C   LIG    1       -0.013   1.076   0.008  0.00  0.00    +0.350 A 
ATOM     10  N   LIG    1        1.126   1.734   0.001  0.00  0.00    -0.480 NA
ATOM     11  C   LIG    1        1.165   3.060   0.007  0.00  0.00    +0.310 A 
BRANCH   3  13
ATOM     12  C   LIG    1        4.263   4.240  -1.265  0.00  0.00    +0.050 C 
ATOM     13  C   LIG    1        3.616   3.645  -0.013  0.00  0.00    +0.270 C 
ATOM     14  C   LIG    1        4.286   4.229   1.233  0.00  0.00    +0.050 C 
ENDBRANCH   3  13
ENDBRANCH   1   8
BRANCH   1  15
ATOM     15  S   LIG    1       -2.614  -0.286   1.027  0.00  0.00    +2.680 S 
ATOM     16  O   LIG    1       -1.451  -1.086   0.860  0.00  0.00    -0.950 OA
ATOM     17  O   LIG    1       -3.931  -0.777   0.819  0.00  0.00    -0.940 OA
BRANCH  15  18
ATOM     18  C   LIG    1       -2.565   0.323   2.680  0.00  0.00    -0.710 C 
ATOM     19  C   LIG    1       -1.480   0.128   3.412  0.00  0.00    +0.210 C 
ATOM     20  C   LIG    1       -1.443   0.607   4.809  0.00  0.00    -0.100 A 
ATOM     21  C   LIG    1       -0.233   0.757   5.482  0.00  0.00    +0.050 A 
ATOM     22  C   LIG    1       -0.227   1.238   6.777  0.00  0.00    +0.000 A 
ATOM     23  C   LIG    1       -1.416   1.568   7.402  0.00  0.00    +0.040 A 
ATOM     24  C   LIG    1       -2.622   1.413   6.739  0.00  0.00    +0.000 A 
ATOM     25  C   LIG    1       -2.640   0.929   5.449  0.00  0.00    -0.050 A 
ATOM     26  C   LIG    1       -3.944   0.740   4.718  0.00  0.00    +0.100 C 
ATOM     27  C   LIG    1       -3.759   1.050   3.234  0.00  0.00    +0.120 C 
ENDBRANCH  15  18
ENDBRANCH   1  15
TORSDOF 4
