REMARK  Name = ZINCqH0000008qfj.0
REMARK                            x       y       z     vdW  Elec       q    Type
REMARK                         _______ _______ _______ _____ _____    ______ ____
ROOT
ATOM      1  C   LIG    1       -0.923   9.358   4.380  0.00  0.00    +0.040 C 
ATOM      2  C   LIG    1       -2.170   8.819   3.678  0.00  0.00    +0.280 C 
ENDROOT
BRANCH   2   3
ATOM      3  C   LIG    1       -3.368   8.997   4.574  0.00  0.00    -0.090 A 
ATOM      4  C   LIG    1       -3.603   8.098   5.598  0.00  0.00    +0.020 A 
ATOM      5  C   LIG    1       -4.697   8.259   6.425  0.00  0.00    +0.030 A 
ATOM      6  C   LIG    1       -5.570   9.326   6.221  0.00  0.00    -0.040 A 
ATOM      7  C   LIG    1       -5.331  10.226   5.184  0.00  0.00    +0.030 A 
ATOM      8  C   LIG    1       -4.232  10.058   4.367  0.00  0.00    +0.030 A 
BRANCH   6   9
ATOM      9  C   LIG    1       -6.749   9.502   7.103  0.00  0.00    -0.100 A 
ATOM     10  C   LIG    1       -6.997   8.604   8.145  0.00  0.00    +0.070 A 
ATOM     11  C   LIG    1       -8.111   8.812   8.941  0.00  0.00    -0.030 A 
ATOM     12  C   LIG    1       -8.935   9.892   8.681  0.00  0.00    +0.260 A 
ATOM     13  N   LIG    1       -8.675  10.723   7.690  0.00  0.00    -0.480 NA
ATOM     14  C   LIG    1       -7.625  10.569   6.911  0.00  0.00    +0.270 A 
ENDBRANCH   6   9
ENDBRANCH   2   3
BRANCH   2  15
ATOM     15  N   LIG    1       -1.988   7.395   3.384  0.00  0.00    -0.710 N 
ATOM     16  H   LIG    1       -2.328   6.726   3.998  0.00  0.00    +0.410 HD
ATOM     17  C   LIG    1       -1.349   7.015   2.260  0.00  0.00    +0.580 C 
ATOM     18  O   LIG    1       -0.923   7.854   1.490  0.00  0.00    -0.540 OA
BRANCH  17  19
ATOM     19  C   LIG    1       -1.165   5.579   1.963  0.00  0.00    +0.000 A 
ATOM     20  C   LIG    1       -0.502   5.194   0.798  0.00  0.00    +0.100 A 
ATOM     21  C   LIG    1       -0.337   3.848   0.530  0.00  0.00    -0.030 A 
ATOM     22  C   LIG    1       -0.842   2.922   1.442  0.00  0.00    +0.190 A 
ATOM     23  C   LIG    1       -1.498   3.382   2.584  0.00  0.00    +0.190 A 
ATOM     24  N   LIG    1       -1.634   4.668   2.810  0.00  0.00    -0.420 NA
BRANCH  22  25
ATOM     25  N   LIG    1       -0.698   1.558   1.213  0.00  0.00    -0.620 N 
ATOM     26  C   LIG    1       -1.233   0.594   2.178  0.00  0.00    +0.280 C 
ATOM     27  C   LIG    1       -0.013   1.086   0.008  0.00  0.00    +0.290 C 
ENDBRANCH  22  25
ENDBRANCH  17  19
ENDBRANCH   2  15
TORSDOF 5
