REMARK  Name = ZINCpe000000Tje1.0
REMARK                            x       y       z     vdW  Elec       q    Type
REMARK                         _______ _______ _______ _____ _____    ______ ____
ROOT
ATOM      1  N   LIG    1       -0.680   1.021   2.282  0.00  0.00    -0.540 N 
ATOM      2  C   LIG    1        0.399   1.800   2.475  0.00  0.00    +0.710 A 
ATOM      3  N   LIG    1        1.328   1.489   3.396  0.00  0.00    -0.660 N 
ATOM      4  H   LIG    1        2.097   2.068   3.516  0.00  0.00    +0.430 HD
ATOM      5  C   LIG    1        1.203   0.382   4.154  0.00  0.00    +0.570 A 
ATOM      6  C   LIG    1        0.086  -0.457   3.978  0.00  0.00    -0.170 A 
ATOM      7  O   LIG    1        2.051   0.109   4.986  0.00  0.00    -0.520 OA
ATOM      8  O   LIG    1        0.537   2.805   1.804  0.00  0.00    -0.530 OA
ATOM      9  C   LIG    1       -0.860  -0.118   3.032  0.00  0.00    +0.510 A 
ENDROOT
BRANCH   6  10
ATOM     10  N   LIG    1       -0.067  -1.621   4.760  0.00  0.00    -0.510 N 
ATOM     11  C   LIG    1        0.149  -2.833   4.213  0.00  0.00    +0.610 C 
ATOM     12  O   LIG    1        0.109  -3.831   4.909  0.00  0.00    -0.500 OA
BRANCH  11  13
ATOM     13  C   LIG    1        0.433  -2.951   2.779  0.00  0.00    -0.070 A 
ATOM     14  C   LIG    1        0.566  -4.116   2.080  0.00  0.00    +0.040 A 
ATOM     15  C   LIG    1        0.828  -3.760   0.748  0.00  0.00    -0.060 A 
ATOM     16  C   LIG    1        0.852  -2.410   0.694  0.00  0.00    +0.180 A 
ATOM     17  O   LIG    1        0.613  -1.926   1.920  0.00  0.00    -0.150 OA
ENDBRANCH  11  13
BRANCH  10  18
ATOM     18  C   LIG    1       -0.460  -1.512   6.167  0.00  0.00    +0.320 C 
BRANCH  18  19
ATOM     19  C   LIG    1       -1.984  -1.416   6.265  0.00  0.00    +0.160 C 
BRANCH  19  20
ATOM     20  O   LIG    1       -2.568  -2.635   5.803  0.00  0.00    -0.380 OA
ATOM     21  C   LIG    1       -3.997  -2.650   5.852  0.00  0.00    +0.200 C 
ENDBRANCH  19  20
ENDBRANCH  18  19
ENDBRANCH  10  18
ENDBRANCH   6  10
BRANCH   9  22
ATOM     22  N   LIG    1       -1.965  -0.912   2.838  0.00  0.00    -0.830 N 
ATOM     23  H   LIG    1       -2.133  -1.662   3.429  0.00  0.00    +0.430 HD
ATOM     24  H   LIG    1       -2.577  -0.721   2.111  0.00  0.00    +0.410 HD
ENDBRANCH   9  22
BRANCH   1  25
ATOM     25  C   LIG    1       -1.674   1.390   1.270  0.00  0.00    +0.310 C 
BRANCH  25  26
ATOM     26  C   LIG    1       -1.358   0.669  -0.042  0.00  0.00    +0.010 C 
BRANCH  26  28
ATOM     27  C   LIG    1       -2.080   0.333  -2.410  0.00  0.00    +0.020 C 
ATOM     28  C   LIG    1       -2.396   1.054  -1.098  0.00  0.00    +0.020 C 
ENDBRANCH  26  28
ENDBRANCH  25  26
ENDBRANCH   1  25
TORSDOF 9
