REMARK  Name = ZINCqH0000007auQ.0
REMARK                            x       y       z     vdW  Elec       q    Type
REMARK                         _______ _______ _______ _____ _____    ______ ____
ROOT
ATOM      1  C   LIG    1       -6.845   1.083  -0.416  0.00  0.00    +0.360 C 
ENDROOT
BRANCH   1   5
ATOM      2  C   LIG    1       -7.307   1.674  -4.629  0.00  0.00    +0.130 A 
ATOM      3  C   LIG    1       -7.518   2.724  -3.750  0.00  0.00    -0.060 A 
ATOM      4  C   LIG    1       -7.369   2.530  -2.389  0.00  0.00    +0.090 A 
ATOM      5  C   LIG    1       -7.007   1.289  -1.900  0.00  0.00    -0.160 A 
ATOM      6  C   LIG    1       -6.789   0.234  -2.773  0.00  0.00    +0.130 A 
ATOM      7  C   LIG    1       -6.943   0.424  -4.141  0.00  0.00    +0.040 A 
BRANCH   2   9
ATOM      8  C   LIG    1       -7.830   3.176  -6.397  0.00  0.00    +0.240 C 
ATOM      9  O   LIG    1       -7.455   1.866  -5.967  0.00  0.00    -0.300 OA
ENDBRANCH   2   9
BRANCH   6  10
ATOM     10  O   LIG    1       -6.428  -0.985  -2.292  0.00  0.00    -0.330 OA
ATOM     11  C   LIG    1       -7.483  -1.895  -1.973  0.00  0.00    +0.230 C 
ENDBRANCH   6  10
BRANCH   7  12
ATOM     12  O   LIG    1       -6.735  -0.610  -5.001  0.00  0.00    -0.320 OA
ATOM     13  C   LIG    1       -5.407  -0.780  -5.501  0.00  0.00    +0.220 C 
ENDBRANCH   7  12
ENDBRANCH   1   5
BRANCH   1  14
ATOM     14  N   LIG    1       -5.423   1.131  -0.069  0.00  0.00    -0.590 N 
ATOM     15  C   LIG    1       -4.848   2.305   0.259  0.00  0.00    +0.600 C 
ATOM     16  O   LIG    1       -5.523   3.314   0.327  0.00  0.00    -0.510 OA
ATOM     17  C   LIG    1       -4.625  -0.098  -0.079  0.00  0.00    +0.300 C 
BRANCH  15  18
ATOM     18  C   LIG    1       -3.405   2.365   0.535  0.00  0.00    -0.030 A 
ATOM     19  C   LIG    1       -2.694   3.506   0.729  0.00  0.00    +0.060 A 
ATOM     20  C   LIG    1       -1.313   3.087   0.966  0.00  0.00    -0.150 A 
ATOM     21  C   LIG    1       -0.118   3.766   1.213  0.00  0.00    +0.070 A 
ATOM     22  C   LIG    1        1.037   3.060   1.397  0.00  0.00    -0.010 A 
ATOM     23  C   LIG    1        1.030   1.673   1.340  0.00  0.00    +0.060 A 
ATOM     24  C   LIG    1       -0.139   0.984   1.097  0.00  0.00    +0.030 A 
ATOM     25  C   LIG    1       -1.325   1.681   0.901  0.00  0.00    +0.060 A 
ATOM     26  O   LIG    1       -2.591   1.296   0.646  0.00  0.00    -0.180 OA
ENDBRANCH  15  18
ENDBRANCH   1  14
TORSDOF 6
