REMARK  Name = ZINCrg000009Cxuk.1
REMARK                            x       y       z     vdW  Elec       q    Type
REMARK                         _______ _______ _______ _____ _____    ______ ____
ROOT
ATOM      1  C   LIG    1       -1.398  -2.023   0.039  0.00  0.00    +0.220 C 
ATOM      2  C   LIG    1       -1.308  -2.483   1.495  0.00  0.00    +0.040 C 
ENDROOT
BRANCH   1   3
ATOM      3  N   LIG    1       -1.586  -0.571  -0.004  0.00  0.00    -0.700 N 
ATOM      4  H   LIG    1       -2.479  -0.199  -0.074  0.00  0.00    +0.410 HD
ATOM      5  C   LIG    1       -0.518   0.249   0.054  0.00  0.00    +0.570 C 
ATOM      6  O   LIG    1        0.601  -0.216   0.141  0.00  0.00    -0.510 OA
BRANCH   5   7
ATOM      7  C   LIG    1       -0.709   1.722   0.010  0.00  0.00    +0.160 A 
ATOM      8  C   LIG    1        0.384   2.565   0.069  0.00  0.00    -0.070 A 
ATOM      9  C   LIG    1        0.165   3.959   0.025  0.00  0.00    +0.540 A 
ATOM     10  N   LIG    1       -1.103   4.413  -0.072  0.00  0.00    -0.620 N 
ATOM     11  H   LIG    1       -1.274   5.368  -0.104  0.00  0.00    +0.430 HD
ATOM     12  C   LIG    1       -2.138   3.536  -0.126  0.00  0.00    +0.580 A 
ATOM     13  O   LIG    1        1.102   4.738   0.074  0.00  0.00    -0.510 OA
ATOM     14  N   LIG    1       -1.941   2.238  -0.092  0.00  0.00    -0.580 NA
BRANCH  12  15
ATOM     15  O   LIG    1       -3.398   4.009  -0.224  0.00  0.00    -0.310 OA
ATOM     16  C   LIG    1       -4.468   3.029  -0.278  0.00  0.00    +0.320 C 
ENDBRANCH  12  15
ENDBRANCH   5   7
ENDBRANCH   1   3
BRANCH   1  17
ATOM     17  C   LIG    1       -2.583  -2.711  -0.641  0.00  0.00    +0.300 C 
BRANCH  17  19
ATOM     18  C   LIG    1       -2.101  -2.768  -3.029  0.00  0.00    +0.560 C 
ATOM     19  N   LIG    1       -2.742  -2.183  -1.998  0.00  0.00    -0.610 N 
ATOM     20  C   LIG    1       -3.598  -1.017  -2.235  0.00  0.00    +0.290 C 
ATOM     21  O   LIG    1       -1.327  -3.683  -2.822  0.00  0.00    -0.520 OA
BRANCH  18  26
ATOM     22  C   LIG    1       -2.655  -0.500  -5.983  0.00  0.00    +0.010 A 
ATOM     23  C   LIG    1       -2.785  -1.433  -7.013  0.00  0.00    +0.060 A 
ATOM     24  C   LIG    1       -2.691  -2.784  -6.741  0.00  0.00    +0.020 A 
ATOM     25  C   LIG    1       -2.465  -3.221  -5.451  0.00  0.00    +0.080 A 
ATOM     26  C   LIG    1       -2.339  -2.299  -4.410  0.00  0.00    -0.130 A 
ATOM     27  C   LIG    1       -2.432  -0.934  -4.678  0.00  0.00    +0.070 A 
BRANCH  22  29
ATOM     28  C   LIG    1       -2.831   2.048  -6.499  0.00  0.00    +0.070 C 
ATOM     29  C   LIG    1       -2.752   0.900  -6.266  0.00  0.00    -0.160 C 
ENDBRANCH  22  29
ENDBRANCH  18  26
ENDBRANCH  17  19
ENDBRANCH   1  17
TORSDOF 7
