REMARK  Name = ZINCqH0000034fXH.0
REMARK                            x       y       z     vdW  Elec       q    Type
REMARK                         _______ _______ _______ _____ _____    ______ ____
ROOT
ATOM      1  C   LIG    1        4.904   5.367   0.861  0.00  0.00    +0.020 C 
ATOM      2  C   LIG    1        3.635   6.217   0.768  0.00  0.00    +0.030 C 
ATOM      3  C   LIG    1        2.408   5.330   0.991  0.00  0.00    +0.010 C 
ATOM      4  C   LIG    1        2.352   4.258  -0.107  0.00  0.00    +0.270 C 
ATOM      5  N   LIG    1        3.628   3.530  -0.115  0.00  0.00    -0.600 N 
ATOM      6  C   LIG    1        3.652   2.186  -0.021  0.00  0.00    +0.560 C 
ATOM      7  O   LIG    1        4.715   1.602   0.073  0.00  0.00    -0.520 OA
ATOM      8  C   LIG    1        4.877   4.295  -0.234  0.00  0.00    +0.290 C 
ENDROOT
BRANCH   6   9
ATOM      9  C   LIG    1        2.390   1.422  -0.031  0.00  0.00    -0.090 A 
ATOM     10  C   LIG    1        1.470   1.599  -1.067  0.00  0.00    +0.070 A 
ATOM     11  C   LIG    1        0.290   0.885  -1.076  0.00  0.00    +0.050 A 
ATOM     12  C   LIG    1        0.007  -0.011  -0.060  0.00  0.00    +0.060 A 
ATOM     13  C   LIG    1        0.909  -0.199   0.975  0.00  0.00    +0.070 A 
ATOM     14  N   LIG    1        0.908  -1.009   2.111  0.00  0.00    -0.650 N 
ATOM     15  H   LIG    1        0.207  -1.625   2.376  0.00  0.00    +0.450 HD
ATOM     16  C   LIG    1        2.059  -0.778   2.773  0.00  0.00    +0.640 A 
ATOM     17  O   LIG    1        2.391  -1.316   3.812  0.00  0.00    -0.480 OA
ATOM     18  O   LIG    1        2.781   0.137   2.107  0.00  0.00    -0.230 OA
ATOM     19  C   LIG    1        2.106   0.516   0.997  0.00  0.00    +0.080 A 
ENDBRANCH   6   9
BRANCH   1  23
ATOM     20  C   LIG    1        8.333   7.858   0.330  0.00  0.00    -0.080 A 
ATOM     21  C   LIG    1        8.173   7.143   1.502  0.00  0.00    +0.000 A 
ATOM     22  C   LIG    1        7.064   6.337   1.674  0.00  0.00    +0.010 A 
ATOM     23  C   LIG    1        6.114   6.246   0.673  0.00  0.00    -0.080 A 
ATOM     24  C   LIG    1        6.277   6.957  -0.501  0.00  0.00    +0.010 A 
ATOM     25  C   LIG    1        7.384   7.766  -0.671  0.00  0.00    +0.000 A 
BRANCH  20  27
ATOM     26  C   LIG    1       10.669   7.925  -0.499  0.00  0.00    +0.030 C 
ATOM     27  C   LIG    1        9.543   8.737   0.143  0.00  0.00    +0.050 C 
ENDBRANCH  20  27
ENDBRANCH   1  23
TORSDOF 3
