REMARK  Name = ZINCrD000000AbIU.0
REMARK                            x       y       z     vdW  Elec       q    Type
REMARK                         _______ _______ _______ _____ _____    ______ ____
ROOT
ATOM      1  O   LIG    1        8.056   3.110   0.649  0.00  0.00    -0.530 OA
ATOM      2  C   LIG    1        7.003   3.703   0.754  0.00  0.00    +0.520 C 
ATOM      3  N   LIG    1        5.850   3.014   0.864  0.00  0.00    -0.620 N 
ATOM      4  C   LIG    1        5.853   1.545   0.859  0.00  0.00    +0.280 C 
ATOM      5  C   LIG    1        4.914   1.057  -0.251  0.00  0.00    +0.290 C 
ATOM      6  N   LIG    1        3.631   1.762  -0.124  0.00  0.00    -0.610 N 
ATOM      7  C   LIG    1        3.627   3.232  -0.125  0.00  0.00    +0.270 C 
ATOM      8  C   LIG    1        2.477   1.074  -0.015  0.00  0.00    +0.570 C 
ATOM      9  O   LIG    1        2.500  -0.138   0.086  0.00  0.00    -0.520 OA
ATOM     10  C   LIG    1        4.567   3.720   0.991  0.00  0.00    +0.270 C 
ENDROOT
BRANCH   8  11
ATOM     11  C   LIG    1        1.187   1.790  -0.019  0.00  0.00    -0.110 A 
ATOM     12  C   LIG    1        0.180   1.424   0.877  0.00  0.00    +0.120 A 
ATOM     13  C   LIG    1       -1.025   2.095   0.872  0.00  0.00    -0.030 A 
ATOM     14  C   LIG    1       -1.242   3.134  -0.024  0.00  0.00    +0.070 A 
ATOM     15  O   LIG    1       -2.325   3.938  -0.225  0.00  0.00    -0.290 OA
ATOM     16  C   LIG    1       -1.826   5.076  -0.960  0.00  0.00    +0.440 C 
ATOM     17  O   LIG    1       -0.695   4.548  -1.676  0.00  0.00    -0.300 OA
ATOM     18  C   LIG    1       -0.238   3.508  -0.918  0.00  0.00    +0.040 A 
ATOM     19 CL   LIG    1       -2.275   1.637   1.987  0.00  0.00    -0.040 Cl
ATOM     20  C   LIG    1        0.969   2.836  -0.920  0.00  0.00    +0.080 A 
ENDBRANCH   8  11
BRANCH   2  21
ATOM     21  C   LIG    1        6.985   5.210   0.761  0.00  0.00    +0.040 C 
BRANCH  21  22
ATOM     22  C   LIG    1        8.414   5.738   0.624  0.00  0.00    +0.040 C 
BRANCH  22  23
ATOM     23  C   LIG    1        8.395   7.268   0.631  0.00  0.00    -0.020 C 
ATOM     24  C   LIG    1        7.698   7.794  -0.641  0.00  0.00    +0.010 C 
ATOM     25  C   LIG    1        8.506   9.061  -1.020  0.00  0.00    +0.000 C 
ATOM     26  C   LIG    1        9.962   8.651  -0.687  0.00  0.00    -0.010 C 
ATOM     27  C   LIG    1        9.834   7.813   0.602  0.00  0.00    +0.010 C 
ENDBRANCH  22  23
ENDBRANCH  21  22
ENDBRANCH   2  21
TORSDOF 4
