REMARK  Name = ZINCb70000003X8p.1
REMARK                            x       y       z     vdW  Elec       q    Type
REMARK                         _______ _______ _______ _____ _____    ______ ____
ROOT
ATOM      1  C   LIG    1       -1.068   3.522  -1.393  0.00  0.00    +0.090 C 
ATOM      2  C   LIG    1       -1.031   1.992  -1.383  0.00  0.00    -0.420 C 
ATOM      3  C   LIG    1       -2.452   1.446  -1.224  0.00  0.00    +0.100 C 
ATOM      4  C   LIG    1       -3.091   2.016   0.039  0.00  0.00    -0.030 C 
ATOM      5  C   LIG    1       -2.431   1.433   1.285  0.00  0.00    +0.060 C 
ATOM      6  C   LIG    1       -1.004   1.977   1.428  0.00  0.00    -0.330 C 
ATOM      7  S   LIG    1       -0.017   1.417   0.010  0.00  0.00    +2.420 S 
ATOM      8  O   LIG    1        1.212   2.129   0.002  0.00  0.00    -0.920 OA
ATOM      9  O   LIG    1        0.002  -0.004   0.002  0.00  0.00    -0.920 OA
ENDROOT
BRANCH   4  10
ATOM     10  C   LIG    1       -4.581   1.670   0.051  0.00  0.00    +0.280 C 
BRANCH  10  11
ATOM     11  N   LIG    1       -5.225   2.316   1.202  0.00  0.00    -0.640 N 
ATOM     12  H   LIG    1       -5.112   3.317   1.133  0.00  0.00    +0.440 HD
ATOM     13  H   LIG    1       -4.797   1.988   2.055  0.00  0.00    +0.430 HD
ATOM     14  H   LIG    1       -6.208   2.088   1.209  0.00  0.00    +0.440 HD
ENDBRANCH  10  11
ENDBRANCH   4  10
TORSDOF 2
