REMARK  Name = ZINCrH000004joFD.0
REMARK                            x       y       z     vdW  Elec       q    Type
REMARK                         _______ _______ _______ _____ _____    ______ ____
ROOT
ATOM      1  N   LIG    1        4.403   8.776  -1.190  0.00  0.00    -0.470 N 
ATOM      2  C   LIG    1        3.758   9.990  -1.018  0.00  0.00    +0.100 A 
ATOM      3  C   LIG    1        4.099  11.306  -1.290  0.00  0.00    +0.010 A 
ATOM      4  C   LIG    1        3.212  12.321  -0.993  0.00  0.00    +0.130 A 
ATOM      5  C   LIG    1        1.981  12.033  -0.423  0.00  0.00    -0.680 A 
ATOM      6  C   LIG    1        1.626  10.731  -0.146  0.00  0.00    +0.200 A 
ATOM      7  C   LIG    1        2.512   9.693  -0.441  0.00  0.00    +0.030 A 
ATOM      8  N   LIG    1        2.450   8.343  -0.295  0.00  0.00    -0.480 NA
ATOM      9  C   LIG    1        3.562   7.802  -0.729  0.00  0.00    +0.260 A 
ENDROOT
BRANCH   5  10
ATOM     10  S   LIG    1        0.862  13.342  -0.050  0.00  0.00    +2.710 S 
ATOM     11  O   LIG    1       -0.436  12.765  -0.021  0.00  0.00    -0.960 OA
ATOM     12  O   LIG    1        1.213  14.424  -0.902  0.00  0.00    -0.960 OA
BRANCH  10  13
ATOM     13  N   LIG    1        1.187  13.840   1.496  0.00  0.00    -1.250 NA
ATOM     14  H   LIG    1        0.673  14.561   1.891  0.00  0.00    +0.420 HD
ATOM     15  H   LIG    1        1.892  13.410   2.006  0.00  0.00    +0.420 HD
ENDBRANCH  10  13
ENDBRANCH   5  10
BRANCH   1  17
ATOM     16  C   LIG    1        5.621   8.381  -3.274  0.00  0.00    +0.050 C 
ATOM     17  C   LIG    1        5.737   8.574  -1.760  0.00  0.00    +0.300 C 
ENDBRANCH   1  17
BRANCH   9  18
ATOM     18  S   LIG    1        3.917   6.076  -0.726  0.00  0.00    +0.060 S 
BRANCH  18  19
ATOM     19  C   LIG    1        2.388   5.442   0.007  0.00  0.00    +0.000 C 
ATOM     20  C   LIG    1        2.268   5.943   1.448  0.00  0.00    +0.100 C 
BRANCH  19  21
ATOM     21  C   LIG    1        2.415   3.936  -0.001  0.00  0.00    +0.420 C 
ATOM     22  O   LIG    1        3.475   3.348  -0.014  0.00  0.00    -0.430 OA
BRANCH  21  23
ATOM     23  C   LIG    1        1.153   3.178   0.008  0.00  0.00    -0.150 A 
ATOM     24  C   LIG    1        1.173   1.780   0.000  0.00  0.00    +0.090 A 
ATOM     25  C   LIG    1       -0.013   1.076   0.008  0.00  0.00    +0.020 A 
ATOM     26  C   LIG    1       -1.221   1.749   0.017  0.00  0.00    +0.070 A 
ATOM     27  C   LIG    1       -1.250   3.134   0.030  0.00  0.00    -0.050 A 
ATOM     28 CL   LIG    1       -2.773   3.968   0.048  0.00  0.00    -0.050 Cl
ATOM     29  C   LIG    1       -0.072   3.852   0.022  0.00  0.00    +0.090 A 
ENDBRANCH  21  23
ENDBRANCH  19  21
ENDBRANCH  18  19
ENDBRANCH   9  18
TORSDOF 7
