REMARK  Name = ZINCvU0000000HWs.0
REMARK                            x       y       z     vdW  Elec       q    Type
REMARK                         _______ _______ _______ _____ _____    ______ ____
ROOT
ATOM      1  C   LIG    1        1.278   2.184   0.002  0.00  0.00    +0.210 C 
ENDROOT
BRANCH   1   2
ATOM      2  C   LIG    1        1.822   2.237  -1.403  0.00  0.00    -0.110 A 
ATOM      3  C   LIG    1        1.383   3.212  -2.278  0.00  0.00    +0.040 A 
ATOM      4  C   LIG    1        1.885   3.263  -3.565  0.00  0.00    +0.010 A 
ATOM      5  C   LIG    1        2.821   2.333  -3.979  0.00  0.00    +0.020 A 
ATOM      6  C   LIG    1        3.256   1.355  -3.105  0.00  0.00    +0.010 A 
ATOM      7  C   LIG    1        2.756   1.306  -1.817  0.00  0.00    +0.020 A 
ENDBRANCH   1   2
BRANCH   1   8
ATOM      8  C   LIG    1       -0.017   1.413   0.010  0.00  0.00    +0.430 C 
ATOM      9  O   LIG    1       -1.077   2.006   0.018  0.00  0.00    -0.430 OA
BRANCH   8  10
ATOM     10  C   LIG    1        0.002  -0.004   0.002  0.00  0.00    -0.270 A 
ATOM     11  C   LIG    1        1.115  -0.817  -0.019  0.00  0.00    +0.320 A 
ATOM     12  N   LIG    1        0.733  -2.108  -0.016  0.00  0.00    -0.560 N 
ATOM     13  H   LIG    1        1.341  -2.864  -0.027  0.00  0.00    +0.420 HD
ATOM     14  C   LIG    1       -0.644  -2.209  -0.004  0.00  0.00    +0.080 A 
ATOM     15  C   LIG    1       -1.516  -3.293  -0.001  0.00  0.00    +0.000 A 
ATOM     16  C   LIG    1       -2.877  -3.080   0.012  0.00  0.00    +0.030 A 
ATOM     17  C   LIG    1       -3.391  -1.792   0.024  0.00  0.00    +0.000 A 
ATOM     18  C   LIG    1       -2.543  -0.706   0.022  0.00  0.00    +0.060 A 
ATOM     19  C   LIG    1       -1.166  -0.907   0.008  0.00  0.00    -0.050 A 
ENDBRANCH   8  10
ENDBRANCH   1   8
BRANCH   1  20
ATOM     20  O   LIG    1        1.040   3.535   0.479  0.00  0.00    -0.300 OA
BRANCH  20  22
ATOM     21  O   LIG    1        3.114   3.568   1.267  0.00  0.00    -0.490 OA
ATOM     22  C   LIG    1        2.057   4.146   1.115  0.00  0.00    +0.520 C 
BRANCH  22  23
ATOM     23  C   LIG    1        1.887   5.525   1.630  0.00  0.00    +0.120 A 
ATOM     24  N   LIG    1        0.734   6.142   1.453  0.00  0.00    -0.410 NA
ATOM     25  C   LIG    1        0.535   7.380   1.903  0.00  0.00    +0.120 A 
ATOM     26  C   LIG    1       -0.700   8.030   1.715  0.00  0.00    +0.060 A 
ATOM     27  C   LIG    1       -0.874   9.296   2.180  0.00  0.00    +0.040 A 
ATOM     28  C   LIG    1        0.152   9.966   2.844  0.00  0.00    +0.030 A 
ATOM     29  C   LIG    1        1.361   9.371   3.046  0.00  0.00    +0.030 A 
ATOM     30  C   LIG    1        1.578   8.065   2.580  0.00  0.00    -0.080 A 
ATOM     31  C   LIG    1        2.813   7.418   2.769  0.00  0.00    +0.090 A 
ATOM     32  C   LIG    1        2.957   6.147   2.291  0.00  0.00    +0.030 A 
ENDBRANCH  22  23
ENDBRANCH  20  22
ENDBRANCH   1  20
TORSDOF 6
