REMARK  Name = ZINCkj00000kIYWX.0
REMARK                            x       y       z     vdW  Elec       q    Type
REMARK                         _______ _______ _______ _____ _____    ______ ____
ROOT
ATOM      1  C   LIG    1        3.999   1.033  -5.647  0.00  0.00    +0.150 A 
ATOM      2  C   LIG    1        4.723   1.485  -4.556  0.00  0.00    -0.030 A 
ATOM      3  C   LIG    1        4.175   1.420  -3.288  0.00  0.00    -0.050 A 
ATOM      4  C   LIG    1        2.905   0.905  -3.107  0.00  0.00    -0.170 A 
ATOM      5  C   LIG    1        2.179   0.448  -4.191  0.00  0.00    +0.000 A 
ATOM      6  C   LIG    1        4.964   1.911  -2.102  0.00  0.00    +0.110 C 
ATOM      7  C   LIG    1        2.720   0.515  -5.465  0.00  0.00    +0.100 A 
ENDROOT
BRANCH   1   9
ATOM      8  C   LIG    1        5.854   1.639  -7.007  0.00  0.00    +0.250 C 
ATOM      9  O   LIG    1        4.537   1.096  -6.895  0.00  0.00    -0.300 OA
ENDBRANCH   1   9
BRANCH   7  10
ATOM     10  O   LIG    1        2.006   0.071  -6.533  0.00  0.00    -0.300 OA
ATOM     11  C   LIG    1        0.701  -0.448  -6.270  0.00  0.00    +0.250 C 
ENDBRANCH   7  10
BRANCH   4  12
ATOM     12  C   LIG    1        2.312   0.837  -1.723  0.00  0.00    +0.320 C 
BRANCH  12  13
ATOM     13  N   LIG    1        1.792   2.158  -1.347  0.00  0.00    -0.490 N 
ATOM     14  H   LIG    1        2.543   2.832  -1.359  0.00  0.00    +0.430 HD
ATOM     15  H   LIG    1        1.079   2.438  -2.005  0.00  0.00    +0.430 HD
BRANCH  13  16
ATOM     16  C   LIG    1        1.214   2.092   0.002  0.00  0.00    +0.160 C 
ATOM     17  C   LIG    1        0.685   3.479   0.433  0.00  0.00    +0.100 C 
ATOM     18  C   LIG    1       -0.800   3.394   0.017  0.00  0.00    +0.280 C 
ATOM     19  N   LIG    1       -1.127   1.963   0.018  0.00  0.00    -0.600 N 
ATOM     20  C   LIG    1       -2.490   1.427   0.029  0.00  0.00    +0.330 C 
ATOM     21  C   LIG    1       -0.014   1.209   0.009  0.00  0.00    +0.500 C 
ATOM     22  O   LIG    1        0.002  -0.004   0.002  0.00  0.00    -0.480 OA
ENDBRANCH  13  16
ENDBRANCH  12  13
ENDBRANCH   4  12
TORSDOF 5
