REMARK  Name = ZINCrD0000073enm.0
REMARK                            x       y       z     vdW  Elec       q    Type
REMARK                         _______ _______ _______ _____ _____    ______ ____
ROOT
ATOM      1  C   LIG    1        7.134   1.581   0.270  0.00  0.00    +0.520 C 
ATOM      2  O   LIG    1        7.238   0.443   0.685  0.00  0.00    -0.500 OA
ENDROOT
BRANCH   1   5
ATOM      3  C   LIG    1        9.261   4.652  -0.110  0.00  0.00    +0.130 A 
ATOM      4  C   LIG    1        8.174   3.801  -0.157  0.00  0.00    +0.010 A 
ATOM      5  C   LIG    1        8.292   2.493   0.320  0.00  0.00    -0.090 A 
ATOM      6  C   LIG    1        9.507   2.053   0.849  0.00  0.00    +0.070 A 
ATOM      7  C   LIG    1       10.595   2.908   0.889  0.00  0.00    +0.070 A 
ATOM      8  O   LIG    1       11.773   2.461   1.406  0.00  0.00    -0.300 OA
ATOM      9  C   LIG    1       12.944   3.223   1.092  0.00  0.00    +0.230 C 
ATOM     10  C   LIG    1       12.621   4.708   1.307  0.00  0.00    +0.230 C 
ATOM     11  O   LIG    1       11.536   5.061   0.442  0.00  0.00    -0.290 OA
ATOM     12  C   LIG    1       10.476   4.209   0.412  0.00  0.00    +0.060 A 
BRANCH   3  14
ATOM     13  C   LIG    1        7.873   6.314  -1.094  0.00  0.00    +0.250 C 
ATOM     14  O   LIG    1        9.146   5.926  -0.573  0.00  0.00    -0.300 OA
ENDBRANCH   3  14
ENDBRANCH   1   5
BRANCH   1  15
ATOM     15  O   LIG    1        5.960   2.008  -0.236  0.00  0.00    -0.320 OA
BRANCH  15  16
ATOM     16  C   LIG    1        4.864   1.056  -0.253  0.00  0.00    +0.190 C 
ATOM     17  C   LIG    1        4.884   0.280  -1.571  0.00  0.00    +0.070 C 
BRANCH  16  18
ATOM     18  C   LIG    1        3.556   1.794  -0.124  0.00  0.00    +0.520 C 
ATOM     19  N   LIG    1        2.403   1.106  -0.015  0.00  0.00    -0.670 N 
ATOM     20  H   LIG    1        2.419   0.138   0.048  0.00  0.00    +0.420 HD
ATOM     21  O   LIG    1        3.542   3.006  -0.117  0.00  0.00    -0.490 OA
BRANCH  19  22
ATOM     22  C   LIG    1        1.181   1.788   0.008  0.00  0.00    +0.150 A 
ATOM     23  C   LIG    1        0.059   1.225  -0.586  0.00  0.00    +0.010 A 
ATOM     24  C   LIG    1       -1.145   1.902  -0.567  0.00  0.00    +0.050 A 
ATOM     25  C   LIG    1       -1.236   3.135   0.054  0.00  0.00    -0.050 A 
ATOM     26  C   LIG    1       -0.120   3.699   0.647  0.00  0.00    +0.050 A 
ATOM     27 CL   LIG    1       -2.752   3.981   0.083  0.00  0.00    -0.070 Cl
ATOM     28  C   LIG    1        1.088   3.028   0.625  0.00  0.00    +0.040 A 
ENDBRANCH  19  22
ENDBRANCH  16  18
ENDBRANCH  15  16
ENDBRANCH   1  15
TORSDOF 6
