REMARK  Name = ZINCrD000000Ar4a.0
REMARK                            x       y       z     vdW  Elec       q    Type
REMARK                         _______ _______ _______ _____ _____    ______ ____
ROOT
ATOM      1  O   LIG    1       -0.602  -2.295  -1.307  0.00  0.00    -0.490 OA
ATOM      2  C   LIG    1       -1.591  -1.885  -0.738  0.00  0.00    +0.520 C 
ATOM      3  N   LIG    1       -1.516  -0.781   0.032  0.00  0.00    -0.670 N 
ATOM      4  H   LIG    1       -2.291  -0.490   0.538  0.00  0.00    +0.420 HD
ENDROOT
BRANCH   3   5
ATOM      5  C   LIG    1       -0.322  -0.057   0.102  0.00  0.00    +0.170 A 
ATOM      6  C   LIG    1        0.898  -0.720   0.052  0.00  0.00    +0.000 A 
ATOM      7  C   LIG    1        2.078  -0.005   0.122  0.00  0.00    +0.060 A 
ATOM      8  C   LIG    1        2.050   1.371   0.241  0.00  0.00    -0.040 A 
ATOM      9  C   LIG    1        0.833   2.041   0.291  0.00  0.00    +0.180 A 
ATOM     10  C   LIG    1       -0.354   1.326   0.222  0.00  0.00    -0.020 A 
BRANCH   9  11
ATOM     11  N   LIG    1        0.805   3.434   0.411  0.00  0.00    -0.560 N 
ATOM     12  C   LIG    1        1.996   4.292   0.382  0.00  0.00    +0.260 C 
ATOM     13  C   LIG    1        1.466   5.719   0.105  0.00  0.00    +0.060 C 
ATOM     14  C   LIG    1        0.025   5.631   0.658  0.00  0.00    +0.070 C 
ATOM     15  C   LIG    1       -0.315   4.159   0.575  0.00  0.00    +0.520 C 
ATOM     16  O   LIG    1       -1.436   3.700   0.644  0.00  0.00    -0.510 OA
ENDBRANCH   9  11
ENDBRANCH   3   5
BRANCH   2  17
ATOM     17  C   LIG    1       -2.904  -2.608  -0.893  0.00  0.00    +0.250 C 
BRANCH  17  18
ATOM     18  O   LIG    1       -2.728  -3.737  -1.752  0.00  0.00    -0.260 OA
BRANCH  18  19
ATOM     19  C   LIG    1       -3.823  -4.503  -1.997  0.00  0.00    +0.190 A 
ATOM     20  C   LIG    1       -5.041  -4.178  -1.419  0.00  0.00    -0.040 A 
ATOM     21  C   LIG    1       -6.155  -4.955  -1.674  0.00  0.00    +0.170 A 
ATOM     22  C   LIG    1       -6.054  -6.062  -2.496  0.00  0.00    -0.070 A 
ATOM     23  C   LIG    1       -4.840  -6.392  -3.069  0.00  0.00    +0.160 A 
ATOM     24  C   LIG    1       -3.724  -5.615  -2.822  0.00  0.00    -0.070 A 
ATOM     25 CL   LIG    1       -2.199  -6.030  -3.542  0.00  0.00    -0.010 Cl
BRANCH  22  26
ATOM     26  N   LIG    1       -7.247  -6.896  -2.763  0.00  0.00    +0.030 N 
ATOM     27  O   LIG    1       -8.318  -6.606  -2.258  0.00  0.00    -0.150 OA
ATOM     28  O   LIG    1       -7.160  -7.872  -3.486  0.00  0.00    -0.150 OA
ENDBRANCH  22  26
ENDBRANCH  18  19
ENDBRANCH  17  18
ENDBRANCH   2  17
TORSDOF 6
