REMARK  Name = ZINCvU00000003NB.0
REMARK                            x       y       z     vdW  Elec       q    Type
REMARK                         _______ _______ _______ _____ _____    ______ ____
ROOT
ATOM      1  C   LIG    1       -0.638   3.861   0.045  0.00  0.00    +0.230 A 
ATOM      2  N   LIG    1        0.610   3.714   0.423  0.00  0.00    -0.270 NA
ATOM      3  N   LIG    1        0.977   2.494   0.257  0.00  0.00    -0.290 NA
ATOM      4  C   LIG    1       -0.015   1.787  -0.238  0.00  0.00    +0.140 A 
ATOM      5  N   LIG    1       -1.075   2.633  -0.395  0.00  0.00    -0.450 N 
ENDROOT
BRANCH   1   9
ATOM      6  C   LIG    1       -2.897   7.457   0.143  0.00  0.00    -0.050 A 
ATOM      7  C   LIG    1       -3.531   6.241   0.326  0.00  0.00    +0.020 A 
ATOM      8  C   LIG    1       -2.803   5.069   0.295  0.00  0.00    +0.010 A 
ATOM      9  C   LIG    1       -1.425   5.113   0.079  0.00  0.00    -0.030 A 
ATOM     10  C   LIG    1       -0.791   6.344  -0.098  0.00  0.00    +0.060 A 
ATOM     11  C   LIG    1       -1.531   7.508  -0.071  0.00  0.00    +0.020 A 
BRANCH   6  13
ATOM     12  C   LIG    1       -4.381   8.870   1.541  0.00  0.00    +0.040 C 
ATOM     13  C   LIG    1       -3.699   8.733   0.178  0.00  0.00    -0.030 C 
ATOM     14  C   LIG    1       -4.761   8.698  -0.922  0.00  0.00    +0.040 C 
ATOM     15  C   LIG    1       -2.768   9.926  -0.048  0.00  0.00    +0.030 C 
ENDBRANCH   6  13
ENDBRANCH   1   9
BRANCH   5  16
ATOM     16  C   LIG    1       -2.402   2.302  -0.921  0.00  0.00    +0.240 C 
ATOM     17  C   LIG    1       -3.099   1.329   0.032  0.00  0.00    +0.010 C 
ATOM     18  C   LIG    1       -4.485   0.983  -0.517  0.00  0.00    +0.040 C 
ATOM     19  C   LIG    1       -4.340   0.332  -1.894  0.00  0.00    +0.010 C 
ATOM     20  C   LIG    1       -3.642   1.305  -2.847  0.00  0.00    +0.040 C 
ATOM     21  C   LIG    1       -2.257   1.651  -2.298  0.00  0.00    +0.020 C 
ENDBRANCH   5  16
BRANCH   4  22
ATOM     22  S   LIG    1        0.019   0.070  -0.631  0.00  0.00    +0.090 S 
BRANCH  22  23
ATOM     23  C   LIG    1        1.722  -0.327  -0.161  0.00  0.00    +0.100 C 
BRANCH  23  24
ATOM     24  C   LIG    1        1.986  -1.788  -0.417  0.00  0.00    +0.550 C 
ATOM     25  N   LIG    1        3.196  -2.312  -0.140  0.00  0.00    -0.720 N 
ATOM     26  H   LIG    1        3.897  -1.749   0.225  0.00  0.00    +0.410 HD
ATOM     27  O   LIG    1        1.110  -2.492  -0.873  0.00  0.00    -0.510 OA
BRANCH  25  28
ATOM     28  C   LIG    1        3.454  -3.733  -0.389  0.00  0.00    +0.320 C 
BRANCH  28  29
ATOM     29  C   LIG    1        4.893  -4.068   0.008  0.00  0.00    +0.450 C 
ATOM     30  F   LIG    1        5.778  -3.294  -0.749  0.00  0.00    -0.180 F 
ATOM     31  F   LIG    1        5.138  -5.424  -0.230  0.00  0.00    -0.170 F 
ATOM     32  F   LIG    1        5.077  -3.792   1.367  0.00  0.00    -0.180 F 
ENDBRANCH  28  29
ENDBRANCH  25  28
ENDBRANCH  23  24
ENDBRANCH  22  23
ENDBRANCH   4  22
TORSDOF 8
