REMARK  Name = ZINCrg000000t33y.0
REMARK                            x       y       z     vdW  Elec       q    Type
REMARK                         _______ _______ _______ _____ _____    ______ ____
ROOT
ATOM      1  N   LIG    1       -7.384   9.664   0.095  0.00  0.00    -0.680 N 
ATOM      2  H   LIG    1       -6.554  10.160   0.168  0.00  0.00    +0.420 HD
ATOM      3  C   LIG    1       -7.366   8.316   0.085  0.00  0.00    +0.520 C 
ATOM      4  O   LIG    1       -8.408   7.696   0.079  0.00  0.00    -0.500 OA
ENDROOT
BRANCH   1   8
ATOM      5  C   LIG    1      -11.008  11.700  -0.188  0.00  0.00    -0.690 A 
ATOM      6  C   LIG    1      -10.942  10.502   0.498  0.00  0.00    +0.150 A 
ATOM      7  C   LIG    1       -9.742   9.824   0.594  0.00  0.00    +0.010 A 
ATOM      8  C   LIG    1       -8.601  10.348  -0.001  0.00  0.00    +0.200 A 
ATOM      9  C   LIG    1       -8.670  11.554  -0.685  0.00  0.00    -0.030 A 
ATOM     10  C   LIG    1       -9.874  12.224  -0.781  0.00  0.00    +0.150 A 
BRANCH   5  11
ATOM     11  S   LIG    1      -12.540  12.561  -0.308  0.00  0.00    +2.700 S 
ATOM     12  O   LIG    1      -13.562  11.590  -0.126  0.00  0.00    -0.960 OA
ATOM     13  O   LIG    1      -12.448  13.386  -1.461  0.00  0.00    -0.960 OA
BRANCH  11  14
ATOM     14  N   LIG    1      -12.631  13.583   0.992  0.00  0.00    -1.250 NA
ATOM     15  H   LIG    1      -13.408  14.152   1.109  0.00  0.00    +0.420 HD
ATOM     16  H   LIG    1      -11.907  13.614   1.637  0.00  0.00    +0.420 HD
ENDBRANCH  11  14
ENDBRANCH   5  11
ENDBRANCH   1   8
BRANCH   3  17
ATOM     17  C   LIG    1       -6.051   7.581   0.082  0.00  0.00    +0.070 C 
BRANCH  17  18
ATOM     18  C   LIG    1       -6.310   6.073   0.071  0.00  0.00    +0.310 C 
BRANCH  18  19
ATOM     19  N   LIG    1       -5.031   5.358   0.069  0.00  0.00    -0.720 N 
ATOM     20  H   LIG    1       -4.198   5.854   0.074  0.00  0.00    +0.400 HD
ATOM     21  C   LIG    1       -5.013   4.010   0.059  0.00  0.00    +0.560 C 
ATOM     22  O   LIG    1       -6.057   3.388   0.052  0.00  0.00    -0.510 OA
BRANCH  21  23
ATOM     23  C   LIG    1       -3.722   3.288   0.056  0.00  0.00    -0.080 A 
ATOM     24  C   LIG    1       -3.700   1.893   0.046  0.00  0.00    +0.100 A 
ATOM     25  C   LIG    1       -2.492   1.226   0.044  0.00  0.00    +0.100 A 
ATOM     26  C   LIG    1       -1.305   1.937   0.052  0.00  0.00    -0.020 A 
ATOM     27  C   LIG    1       -1.321   3.320   0.068  0.00  0.00    +0.100 A 
ATOM     28  C   LIG    1       -2.521   4.000   0.064  0.00  0.00    +0.060 A 
BRANCH  26  29
ATOM     29  N   LIG    1       -0.013   1.214   0.051  0.00  0.00    +0.020 N 
ATOM     30  O   LIG    1        1.033   1.838   0.053  0.00  0.00    -0.150 OA
ATOM     31  O   LIG    1        0.003  -0.004   0.042  0.00  0.00    -0.150 OA
ENDBRANCH  26  29
ENDBRANCH  21  23
ENDBRANCH  18  19
ENDBRANCH  17  18
ENDBRANCH   3  17
TORSDOF 8
