REMARK  Name = ZINC550000002ttm.0
REMARK                            x       y       z     vdW  Elec       q    Type
REMARK                         _______ _______ _______ _____ _____    ______ ____
ROOT
ATOM      1  C   LIG    1       -0.874   3.050   1.496  0.00  0.00    +0.280 C 
ENDROOT
BRANCH   1   2
ATOM      2  N   LIG    1       -1.590   3.262   2.761  0.00  0.00    -0.630 N 
ATOM      3  H   LIG    1       -2.502   2.832   2.707  0.00  0.00    +0.440 HD
ATOM      4  H   LIG    1       -1.694   4.252   2.927  0.00  0.00    +0.440 HD
ATOM      5  H   LIG    1       -1.067   2.847   3.517  0.00  0.00    +0.440 HD
ENDBRANCH   1   2
BRANCH   1   7
ATOM      6  C   LIG    1       -0.013   1.086   0.008  0.00  0.00    +0.110 C 
ATOM      7  C   LIG    1       -0.718   1.572   1.248  0.00  0.00    +0.350 C 
ATOM      8  O   LIG    1       -1.159   0.777   2.043  0.00  0.00    -0.440 OA
ENDBRANCH   1   7
TORSDOF 2
