REMARK  Name = ZINC550000002ttm.1
REMARK                            x       y       z     vdW  Elec       q    Type
REMARK                         _______ _______ _______ _____ _____    ______ ____
ROOT
ATOM      1  C   LIG    1       -0.874   3.050   1.496  0.00  0.00    +0.180 C 
ENDROOT
BRANCH   1   3
ATOM      2  C   LIG    1       -0.013   1.086   0.008  0.00  0.00    +0.050 C 
ATOM      3  C   LIG    1       -0.718   1.572   1.248  0.00  0.00    +0.350 C 
ATOM      4  O   LIG    1       -1.159   0.777   2.043  0.00  0.00    -0.440 OA
ENDBRANCH   1   3
BRANCH   1   5
ATOM      5  N   LIG    1       -1.590   3.262   2.761  0.00  0.00    -0.840 NA
ATOM      6  H   LIG    1       -1.707   4.246   2.950  0.00  0.00    +0.350 HD
ATOM      7  H   LIG    1       -1.119   2.800   3.525  0.00  0.00    +0.350 HD
ENDBRANCH   1   5
TORSDOF 2
