REMARK  Name = ZINCkj000005biwI.0
REMARK                            x       y       z     vdW  Elec       q    Type
REMARK                         _______ _______ _______ _____ _____    ______ ____
ROOT
ATOM      1  C   LIG    1        2.220   1.017   0.207  0.00  0.00    +0.240 C 
ATOM      2  C   LIG    1        2.531   1.498   1.623  0.00  0.00    +0.010 C 
ATOM      3  C   LIG    1        2.501   3.027   1.659  0.00  0.00    +0.040 C 
ATOM      4  C   LIG    1        1.103   3.520   1.276  0.00  0.00    +0.020 C 
ATOM      5  C   LIG    1        0.777   3.063  -0.150  0.00  0.00    +0.290 C 
ATOM      6  N   LIG    1        0.946   1.606  -0.229  0.00  0.00    -0.610 N 
ATOM      7  C   LIG    1       -0.051   0.823  -0.687  0.00  0.00    +0.590 C 
ATOM      8  O   LIG    1        0.051  -0.387  -0.629  0.00  0.00    -0.580 OA
ENDROOT
BRANCH   7   9
ATOM      9  C   LIG    1       -1.263   1.435  -1.265  0.00  0.00    -0.270 A 
ATOM     10  C   LIG    1       -2.432   0.693  -1.367  0.00  0.00    +0.260 A 
ATOM     11  C   LIG    1       -3.562   1.318  -1.924  0.00  0.00    -0.290 A 
ATOM     12  C   LIG    1       -4.865   0.927  -2.186  0.00  0.00    +0.360 A 
ATOM     13  N   LIG    1       -5.500   1.969  -2.735  0.00  0.00    -0.400 N 
ATOM     14  H   LIG    1       -6.428   1.968  -3.016  0.00  0.00    +0.460 HD
ATOM     15  N   LIG    1       -4.630   3.058  -2.843  0.00  0.00    -0.270 NA
ATOM     16  C   LIG    1       -3.447   2.718  -2.367  0.00  0.00    +0.280 A 
ATOM     17  N   LIG    1       -2.274   3.359  -2.230  0.00  0.00    -0.460 NA
ATOM     18  C   LIG    1       -1.232   2.772  -1.707  0.00  0.00    +0.380 A 
ENDBRANCH   7   9
BRANCH   1  20
ATOM     19  C   LIG    1        3.484  -1.121   0.471  0.00  0.00    +0.080 C 
ATOM     20  C   LIG    1        2.109  -0.509   0.198  0.00  0.00    +0.200 C 
BRANCH  20  21
ATOM     21  N   LIG    1        1.166  -0.938   1.240  0.00  0.00    -0.620 N 
ATOM     22  H   LIG    1        1.596  -0.831   2.146  0.00  0.00    +0.410 HD
ATOM     23  H   LIG    1        0.923  -1.906   1.095  0.00  0.00    +0.430 HD
ATOM     24  H   LIG    1        0.333  -0.371   1.193  0.00  0.00    +0.430 HD
ENDBRANCH  20  21
ENDBRANCH   1  20
TORSDOF 3
