REMARK  Name = ZINCrD0000072k6D.0
REMARK                            x       y       z     vdW  Elec       q    Type
REMARK                         _______ _______ _______ _____ _____    ______ ____
ROOT
ATOM      1  C   LIG    1        0.063   9.321  -0.525  0.00  0.00    +0.530 C 
ATOM      2  N   LIG    1       -0.171   8.006  -0.708  0.00  0.00    -0.720 N 
ATOM      3  H   LIG    1        0.347   7.507  -1.358  0.00  0.00    +0.410 HD
ATOM      4  O   LIG    1       -0.585   9.945   0.288  0.00  0.00    -0.520 OA
ENDROOT
BRANCH   1   5
ATOM      5  C   LIG    1        1.130  10.015  -1.331  0.00  0.00    +0.110 C 
BRANCH   5   6
ATOM      6  S   LIG    1        1.202  11.761  -0.859  0.00  0.00    +0.060 S 
BRANCH   6  10
ATOM      7  C   LIG    1        3.061  15.931  -1.349  0.00  0.00    -0.150 A 
ATOM      8  C   LIG    1        2.445  14.788  -1.112  0.00  0.00    +0.050 A 
ATOM      9  C   LIG    1        2.909  13.670  -1.910  0.00  0.00    -0.160 A 
ATOM     10  C   LIG    1        2.493  12.313  -1.924  0.00  0.00    +0.190 A 
ATOM     11  N   LIG    1        3.088  11.468  -2.755  0.00  0.00    -0.530 NA
ATOM     12  C   LIG    1        4.057  11.868  -3.558  0.00  0.00    +0.540 A 
ATOM     13  N   LIG    1        4.480  13.111  -3.580  0.00  0.00    -0.490 NA
ATOM     14  C   LIG    1        3.941  14.038  -2.777  0.00  0.00    +0.100 A 
ATOM     15  S   LIG    1        4.292  15.749  -2.584  0.00  0.00    +0.180 S 
BRANCH   7  17
ATOM     16  C   LIG    1        3.614  17.351   0.607  0.00  0.00    +0.040 C 
ATOM     17  C   LIG    1        2.746  17.227  -0.647  0.00  0.00    +0.110 C 
ENDBRANCH   7  17
ENDBRANCH   6  10
ENDBRANCH   5   6
ENDBRANCH   1   5
BRANCH   2  18
ATOM     18  C   LIG    1       -1.209   7.331   0.076  0.00  0.00    +0.320 C 
BRANCH  18  19
ATOM     19  C   LIG    1       -1.270   5.855  -0.323  0.00  0.00    +0.130 C 
ATOM     20  C   LIG    1       -2.417   5.164   0.426  0.00  0.00    +0.240 C 
ATOM     21  O   LIG    1       -2.438   3.785   0.040  0.00  0.00    -0.300 OA
ATOM     22  C   LIG    1       -1.241   3.136   0.030  0.00  0.00    +0.050 A 
ATOM     23  C   LIG    1       -1.220   1.750   0.017  0.00  0.00    +0.030 A 
ATOM     24  C   LIG    1       -0.013   1.076   0.008  0.00  0.00    +0.020 A 
ATOM     25  C   LIG    1        1.175   1.782   0.000  0.00  0.00    +0.020 A 
ATOM     26  C   LIG    1        1.161   3.164   0.009  0.00  0.00    +0.020 A 
ATOM     27  C   LIG    1       -0.046   3.846   0.024  0.00  0.00    +0.050 A 
ATOM     28  O   LIG    1       -0.045   5.207   0.037  0.00  0.00    -0.300 OA
ENDBRANCH  18  19
ENDBRANCH   2  18
TORSDOF 6
