REMARK  Name = ZINCqH0000032TMm.0
REMARK                            x       y       z     vdW  Elec       q    Type
REMARK                         _______ _______ _______ _____ _____    ______ ____
ROOT
ATOM      1  C   LIG    1       -2.637   2.364  -0.251  0.00  0.00    +0.540 C 
ENDROOT
BRANCH   1   2
ATOM      2  N   LIG    1       -1.364   3.052  -0.481  0.00  0.00    -0.370 N 
ATOM      3  N   LIG    1       -1.137   4.434  -0.415  0.00  0.00    -0.250 NA
ATOM      4  C   LIG    1        0.119   4.644  -0.688  0.00  0.00    +0.290 A 
ATOM      5  O   LIG    1        0.724   3.459  -0.923  0.00  0.00    -0.210 OA
ATOM      6  C   LIG    1       -0.183   2.475  -0.793  0.00  0.00    +0.410 A 
ATOM      7  S   LIG    1        0.104   0.800  -0.995  0.00  0.00    -0.450 S 
BRANCH   4   8
ATOM      8  C   LIG    1        0.778   5.967  -0.732  0.00  0.00    -0.030 A 
ATOM      9  C   LIG    1        0.043   7.125  -0.475  0.00  0.00    +0.090 A 
ATOM     10  C   LIG    1        0.664   8.357  -0.513  0.00  0.00    +0.040 A 
ATOM     11  C   LIG    1        2.011   8.446  -0.816  0.00  0.00    +0.080 A 
ATOM     12  C   LIG    1        2.745   7.302  -1.078  0.00  0.00    -0.040 A 
ATOM     13 CL   LIG    1        4.435   7.425  -1.457  0.00  0.00    -0.050 Cl
ATOM     14  C   LIG    1        2.136   6.064  -1.038  0.00  0.00    +0.090 A 
ENDBRANCH   4   8
ENDBRANCH   1   2
BRANCH   1  15
ATOM     15  N   LIG    1       -2.943   2.369   1.185  0.00  0.00    -0.530 NA
BRANCH  15  16
ATOM     16  C   LIG    1       -2.236   1.284   1.878  0.00  0.00    +0.190 C 
ATOM     17  C   LIG    1       -1.934   1.694   3.330  0.00  0.00    +0.080 C 
ATOM     18  C   LIG    1       -1.509   0.440   4.120  0.00  0.00    -0.310 C 
ATOM     19  S   LIG    1       -2.345  -0.955   3.284  0.00  0.00    +2.390 S 
ATOM     20  O   LIG    1       -3.347  -1.486   4.140  0.00  0.00    -0.930 OA
ATOM     21  O   LIG    1       -1.368  -1.818   2.717  0.00  0.00    -0.920 OA
ATOM     22  C   LIG    1       -3.136   0.024   1.950  0.00  0.00    -0.330 C 
ENDBRANCH  15  16
BRANCH  15  23
ATOM     23  C   LIG    1       -4.392   2.283   1.415  0.00  0.00    +0.200 C 
BRANCH  23  24
ATOM     24  C   LIG    1       -4.687   2.498   2.901  0.00  0.00    +0.020 C 
BRANCH  24  26
ATOM     25  C   LIG    1       -6.494   2.798   4.599  0.00  0.00    +0.020 C 
ATOM     26  C   LIG    1       -6.199   2.583   3.114  0.00  0.00    +0.000 C 
ENDBRANCH  24  26
ENDBRANCH  23  24
ENDBRANCH  15  23
ENDBRANCH   1  15
TORSDOF 7
