REMARK  Name = ZINCqH0000037iW4.0
REMARK                            x       y       z     vdW  Elec       q    Type
REMARK                         _______ _______ _______ _____ _____    ______ ____
ROOT
ATOM      1  C   LIG    1       -0.014   1.209   0.009  0.00  0.00    +0.520 C 
ATOM      2  N   LIG    1       -1.191   1.867   0.018  0.00  0.00    -0.730 N 
ATOM      3  H   LIG    1       -1.204   2.837   0.023  0.00  0.00    +0.400 HD
ATOM      4  O   LIG    1        0.002  -0.004   0.002  0.00  0.00    -0.510 OA
ENDROOT
BRANCH   1   6
ATOM      5  C   LIG    1        1.394   2.772  -1.304  0.00  0.00    +0.040 C 
ATOM      6  C   LIG    1        1.280   1.980   0.001  0.00  0.00    +0.160 C 
BRANCH   6   7
ATOM      7  O   LIG    1        2.377   1.070   0.102  0.00  0.00    -0.350 OA
BRANCH   7   8
ATOM      8  C   LIG    1        3.524   1.613   0.760  0.00  0.00    +0.220 C 
BRANCH   8   9
ATOM      9  C   LIG    1        4.614   0.573   0.811  0.00  0.00    -0.090 A 
ATOM     10  C   LIG    1        4.697  -0.287   1.889  0.00  0.00    +0.020 A 
ATOM     11  C   LIG    1        5.694  -1.244   1.934  0.00  0.00    +0.000 A 
ATOM     12  C   LIG    1        6.613  -1.334   0.905  0.00  0.00    +0.010 A 
ATOM     13  C   LIG    1        6.532  -0.470  -0.171  0.00  0.00    +0.000 A 
ATOM     14  C   LIG    1        5.533   0.484  -0.218  0.00  0.00    +0.020 A 
ENDBRANCH   8   9
ENDBRANCH   7   8
ENDBRANCH   6   7
ENDBRANCH   1   6
BRANCH   2  15
ATOM     15  C   LIG    1       -2.449   1.117   0.020  0.00  0.00    +0.440 C 
BRANCH  15  16
ATOM     16  C   LIG    1       -3.581   2.058   0.030  0.00  0.00    -0.160 C 
ATOM     17  C   LIG    1       -4.484   2.809   0.039  0.00  0.00    -0.110 C 
BRANCH  17  18
ATOM     18  C   LIG    1       -5.585   3.724   0.049  0.00  0.00    +0.010 A 
ATOM     19  C   LIG    1       -5.351   5.100   0.061  0.00  0.00    +0.080 A 
ATOM     20  C   LIG    1       -6.417   5.977   0.066  0.00  0.00    +0.030 A 
ATOM     21  C   LIG    1       -7.713   5.495   0.070  0.00  0.00    +0.080 A 
ATOM     22  C   LIG    1       -7.951   4.132   0.063  0.00  0.00    -0.180 A 
ATOM     23  C   LIG    1       -6.895   3.245   0.052  0.00  0.00    +0.090 A 
BRANCH  22  24
ATOM     24  C   LIG    1       -9.367   3.616   0.067  0.00  0.00    +0.510 C 
ATOM     25  F   LIG    1       -9.417   2.387  -0.600  0.00  0.00    -0.180 F 
ATOM     26  F   LIG    1      -10.200   4.533  -0.584  0.00  0.00    -0.170 F 
ATOM     27  F   LIG    1       -9.799   3.448   1.387  0.00  0.00    -0.170 F 
ENDBRANCH  22  24
ENDBRANCH  17  18
ENDBRANCH  15  16
ENDBRANCH   2  15
TORSDOF 8
