REMARK  Name = ZINCpk000000pSID.0
REMARK                            x       y       z     vdW  Elec       q    Type
REMARK                         _______ _______ _______ _____ _____    ______ ____
ROOT
ATOM      1  C   LIG    1       -0.317   0.362  -0.262  0.00  0.00    +0.000 C 
ATOM      2  C   LIG    1       -0.871   1.483  -1.168  0.00  0.00    +0.280 C 
ATOM      3  N   LIG    1       -2.221   1.768  -0.621  0.00  0.00    -0.620 N 
ATOM      4  C   LIG    1       -2.045   1.694   0.848  0.00  0.00    +0.270 C 
ATOM      5  C   LIG    1       -3.350   2.035  -1.306  0.00  0.00    +0.600 C 
ATOM      6  O   LIG    1       -3.320   2.120  -2.519  0.00  0.00    -0.530 OA
ATOM      7  C   LIG    1       -1.089   0.501   1.066  0.00  0.00    +0.130 C 
ENDROOT
BRANCH   5   8
ATOM      8  C   LIG    1       -4.623   2.225  -0.585  0.00  0.00    -0.240 A 
ATOM      9  C   LIG    1       -5.822   1.875  -1.192  0.00  0.00    +0.240 A 
ATOM     10  C   LIG    1       -7.010   2.068  -0.464  0.00  0.00    -0.270 A 
ATOM     11  C   LIG    1       -8.355   1.849  -0.713  0.00  0.00    +0.160 A 
ATOM     12  N   LIG    1       -9.038   2.239   0.369  0.00  0.00    -0.410 N 
ATOM     13  H   LIG    1      -10.002   2.195   0.463  0.00  0.00    +0.450 HD
ATOM     14  N   LIG    1       -8.158   2.721   1.344  0.00  0.00    -0.290 NA
ATOM     15  C   LIG    1       -8.943   1.272  -1.975  0.00  0.00    +0.180 C 
ATOM     16  C   LIG    1       -6.922   2.639   0.890  0.00  0.00    +0.280 A 
ATOM     17  N   LIG    1       -5.717   2.954   1.396  0.00  0.00    -0.470 NA
ATOM     18  C   LIG    1       -4.620   2.765   0.715  0.00  0.00    +0.380 A 
ENDBRANCH   5   8
BRANCH   7  19
ATOM     19  N   LIG    1       -0.161   0.783   2.169  0.00  0.00    -0.530 NA
ATOM     20  C   LIG    1        0.874  -0.256   2.265  0.00  0.00    +0.150 C 
ATOM     21  C   LIG    1        1.851   0.107   3.386  0.00  0.00    +0.220 C 
ATOM     22  O   LIG    1        1.128   0.265   4.610  0.00  0.00    -0.380 OA
ATOM     23  C   LIG    1        0.112   1.270   4.552  0.00  0.00    +0.220 C 
ATOM     24  C   LIG    1       -0.883   0.918   3.443  0.00  0.00    +0.150 C 
ENDBRANCH   7  19
BRANCH   1  26
ATOM     25  C   LIG    1        0.263  -1.159  -2.158  0.00  0.00    +0.030 C 
ATOM     26  C   LIG    1       -0.580  -1.008  -0.890  0.00  0.00    +0.000 C 
ENDBRANCH   1  26
TORSDOF 3
