REMARK  Name = ZINCbw0000000Hhh.0
REMARK                            x       y       z     vdW  Elec       q    Type
REMARK                         _______ _______ _______ _____ _____    ______ ____
ROOT
ATOM      1  C   LIG    1       -0.742   1.585  -1.213  0.00  0.00    -0.070 A 
ATOM      2  C   LIG    1       -0.899   0.758  -2.309  0.00  0.00    +0.020 A 
ATOM      3  C   LIG    1       -1.568   1.215  -3.430  0.00  0.00    +0.090 A 
ATOM      4  C   LIG    1       -2.079   2.499  -3.456  0.00  0.00    -0.130 A 
ATOM      5  C   LIG    1       -1.921   3.328  -2.357  0.00  0.00    +0.130 A 
ATOM      6  F   LIG    1       -2.420   4.583  -2.380  0.00  0.00    -0.120 F 
ATOM      7 BR   LIG    1       -2.993   3.123  -4.989  0.00  0.00    -0.020 Br
ATOM      8  C   LIG    1       -1.257   2.868  -1.233  0.00  0.00    +0.000 A 
ENDROOT
BRANCH   1  10
ATOM      9  C   LIG    1        1.423   1.615  -0.003  0.00  0.00    +0.020 C 
ATOM     10  C   LIG    1       -0.013   1.086   0.008  0.00  0.00    +0.260 C 
BRANCH  10  11
ATOM     11  O   LIG    1       -0.682   1.547   1.184  0.00  0.00    -0.550 OA
ATOM     12  H   LIG    1       -0.732   2.510   1.256  0.00  0.00    +0.380 HD
ENDBRANCH  10  11
ENDBRANCH   1  10
TORSDOF 2
