REMARK  Name = ZINCrD000000BvOP.0
REMARK                            x       y       z     vdW  Elec       q    Type
REMARK                         _______ _______ _______ _____ _____    ______ ____
ROOT
ATOM      1  O   LIG    1        0.717   0.543  -2.532  0.00  0.00    -0.530 OA
ATOM      2  C   LIG    1       -0.269   1.239  -2.407  0.00  0.00    +0.530 C 
ATOM      3  N   LIG    1       -0.720   1.555  -1.177  0.00  0.00    -0.720 N 
ATOM      4  H   LIG    1       -1.508   2.111  -1.078  0.00  0.00    +0.410 HD
ENDROOT
BRANCH   2   5
ATOM      5  C   LIG    1       -0.990   1.749  -3.628  0.00  0.00    +0.010 C 
ATOM      6  C   LIG    1       -2.389   1.102  -3.756  0.00  0.00    +0.100 C 
ATOM      7  C   LIG    1       -2.571   0.902  -5.244  0.00  0.00    +0.520 C 
ATOM      8  N   LIG    1       -1.387   1.003  -5.872  0.00  0.00    -0.560 N 
ATOM      9  O   LIG    1       -3.631   0.683  -5.791  0.00  0.00    -0.490 OA
ATOM     10  C   LIG    1       -0.299   1.263  -4.922  0.00  0.00    +0.320 C 
BRANCH   8  11
ATOM     11  C   LIG    1       -1.213   0.875  -7.255  0.00  0.00    +0.230 A 
ATOM     12  C   LIG    1       -2.283   0.506  -8.059  0.00  0.00    -0.040 A 
ATOM     13  C   LIG    1       -2.111   0.386  -9.426  0.00  0.00    +0.160 A 
ATOM     14  C   LIG    1       -0.869   0.622  -9.992  0.00  0.00    -0.070 A 
ATOM     15  C   LIG    1        0.200   0.986  -9.191  0.00  0.00    +0.160 A 
ATOM     16  F   LIG    1        1.411   1.217  -9.746  0.00  0.00    -0.120 F 
ATOM     17  F   LIG    1       -3.153   0.032 -10.209  0.00  0.00    -0.120 F 
ATOM     18  C   LIG    1        0.031   1.113  -7.824  0.00  0.00    -0.060 A 
ENDBRANCH   8  11
ENDBRANCH   2   5
BRANCH   3  19
ATOM     19  C   LIG    1       -0.019   1.059   0.010  0.00  0.00    +0.360 C 
BRANCH  19  20
ATOM     20  C   LIG    1       -0.719   1.552   1.250  0.00  0.00    -0.210 A 
ATOM     21  C   LIG    1       -0.360   2.589   2.018  0.00  0.00    +0.250 A 
ATOM     22  O   LIG    1       -1.224   2.731   3.039  0.00  0.00    -0.190 OA
ATOM     23  C   LIG    1       -2.189   1.791   2.985  0.00  0.00    +0.050 A 
ATOM     24  C   LIG    1       -3.291   1.507   3.783  0.00  0.00    +0.030 A 
ATOM     25  C   LIG    1       -4.118   0.452   3.464  0.00  0.00    +0.050 A 
ATOM     26  C   LIG    1       -3.864  -0.336   2.350  0.00  0.00    +0.000 A 
ATOM     27  C   LIG    1       -2.776  -0.072   1.547  0.00  0.00    +0.060 A 
ATOM     28  C   LIG    1       -1.936   0.996   1.855  0.00  0.00    -0.120 A 
ENDBRANCH  19  20
ENDBRANCH   3  19
TORSDOF 4
