REMARK  Name = ZINCrH000004nA6d.0
REMARK                            x       y       z     vdW  Elec       q    Type
REMARK                         _______ _______ _______ _____ _____    ______ ____
ROOT
ATOM      1  C   LIG    1        1.252   1.966   0.001  0.00  0.00    -0.290 A 
ATOM      2  C   LIG    1        1.946   2.392  -1.115  0.00  0.00    +0.130 A 
ATOM      3  N   LIG    1        3.040   3.040  -0.684  0.00  0.00    -0.350 N 
ATOM      4  N   LIG    1        3.042   3.026   0.715  0.00  0.00    -0.290 NA
ATOM      5  C   LIG    1        1.547   2.169  -2.551  0.00  0.00    +0.160 C 
ATOM      6  C   LIG    1        1.980   2.395   1.133  0.00  0.00    +0.110 A 
ATOM      7  C   LIG    1        1.599   2.160   2.572  0.00  0.00    +0.160 C 
ENDROOT
BRANCH   1  10
ATOM      8  N   LIG    1       -1.191   1.870   0.018  0.00  0.00    -0.710 N 
ATOM      9  H   LIG    1       -1.204   2.840   0.023  0.00  0.00    +0.400 HD
ATOM     10  C   LIG    1       -0.014   1.212   0.009  0.00  0.00    +0.600 C 
ATOM     11  O   LIG    1        0.002  -0.004   0.002  0.00  0.00    -0.530 OA
BRANCH   8  12
ATOM     12  C   LIG    1       -2.449   1.120   0.020  0.00  0.00    +0.330 C 
BRANCH  12  18
ATOM     13  C   LIG    1       -4.010   2.699  -1.146  0.00  0.00    +0.140 A 
ATOM     14  C   LIG    1       -5.081   3.581  -1.134  0.00  0.00    -0.080 A 
ATOM     15  C   LIG    1       -5.736   3.854   0.051  0.00  0.00    +0.060 A 
ATOM     16  C   LIG    1       -5.330   3.244   1.223  0.00  0.00    -0.030 A 
ATOM     17  C   LIG    1       -4.266   2.360   1.213  0.00  0.00    +0.070 A 
ATOM     18  C   LIG    1       -3.608   2.084   0.030  0.00  0.00    -0.140 A 
BRANCH  13  20
ATOM     19  C   LIG    1       -3.829   3.103  -3.482  0.00  0.00    +0.250 C 
ATOM     20  O   LIG    1       -3.360   2.433  -2.310  0.00  0.00    -0.310 OA
ENDBRANCH  13  20
ENDBRANCH  12  18
ENDBRANCH   8  12
ENDBRANCH   1  10
BRANCH   3  21
ATOM     21  C   LIG    1        4.060   3.656  -1.536  0.00  0.00    +0.380 C 
BRANCH  21  22
ATOM     22  C   LIG    1        3.682   5.088  -1.816  0.00  0.00    -0.130 A 
ATOM     23  C   LIG    1        2.911   5.396  -2.921  0.00  0.00    +0.020 A 
ATOM     24  C   LIG    1        2.560   6.709  -3.175  0.00  0.00    +0.000 A 
ATOM     25  C   LIG    1        2.990   7.715  -2.330  0.00  0.00    -0.070 A 
ATOM     26  C   LIG    1        3.765   7.407  -1.227  0.00  0.00    +0.010 A 
ATOM     27  C   LIG    1        2.612   9.147  -2.610  0.00  0.00    +0.090 C 
ATOM     28  C   LIG    1        4.111   6.094  -0.971  0.00  0.00    +0.050 A 
ENDBRANCH  21  22
ENDBRANCH   3  21
TORSDOF 6
