REMARK  Name = ZINCpe000000ZuOu.0
REMARK                            x       y       z     vdW  Elec       q    Type
REMARK                         _______ _______ _______ _____ _____    ______ ____
ROOT
ATOM      1  O   LIG    1        1.233   1.537   2.599  0.00  0.00    -0.540 OA
ATOM      2  C   LIG    1        0.035   1.693   2.459  0.00  0.00    +0.600 C 
ATOM      3  N   LIG    1       -0.537   1.466   1.260  0.00  0.00    -0.600 N 
ATOM      4  C   LIG    1       -1.969   1.614   0.947  0.00  0.00    +0.280 C 
ATOM      5  C   LIG    1       -2.150   1.274  -0.547  0.00  0.00    +0.050 C 
ATOM      6  C   LIG    1       -0.731   1.503  -1.130  0.00  0.00    +0.160 C 
ATOM      7  C   LIG    1        0.166   1.029   0.040  0.00  0.00    +0.240 C 
ENDROOT
BRANCH   2   8
ATOM      8  C   LIG    1       -0.790   2.129   3.598  0.00  0.00    +0.000 A 
ATOM      9  C   LIG    1       -0.203   2.362   4.830  0.00  0.00    +0.130 A 
ATOM     10  C   LIG    1       -1.025   2.777   5.892  0.00  0.00    +0.020 A 
ATOM     11  C   LIG    1       -0.781   3.090   7.217  0.00  0.00    -0.010 A 
ATOM     12  C   LIG    1       -2.007   3.439   7.787  0.00  0.00    +0.010 A 
ATOM     13  C   LIG    1       -2.961   3.338   6.828  0.00  0.00    +0.160 A 
ATOM     14  N   LIG    1       -2.382   2.936   5.666  0.00  0.00    -0.390 N 
ATOM     15  C   LIG    1       -2.889   2.687   4.419  0.00  0.00    +0.520 A 
ATOM     16  N   LIG    1       -2.125   2.308   3.440  0.00  0.00    -0.470 NA
ENDBRANCH   2   8
BRANCH   6  17
ATOM     17  O   LIG    1       -0.520   0.702  -2.295  0.00  0.00    -0.350 OA
BRANCH  17  18
ATOM     18  C   LIG    1        0.485   1.210  -3.175  0.00  0.00    +0.180 C 
BRANCH  18  19
ATOM     19  C   LIG    1        0.625   0.278  -4.380  0.00  0.00    +0.190 C 
BRANCH  19  20
ATOM     20  N   LIG    1       -0.619   0.296  -5.161  0.00  0.00    -0.530 NA
ATOM     21  C   LIG    1       -0.714  -0.886  -6.030  0.00  0.00    +0.150 C 
ATOM     22  C   LIG    1       -2.049  -0.857  -6.778  0.00  0.00    +0.220 C 
ATOM     23  O   LIG    1       -2.151   0.365  -7.514  0.00  0.00    -0.390 OA
ATOM     24  C   LIG    1       -2.064   1.536  -6.698  0.00  0.00    +0.220 C 
ATOM     25  C   LIG    1       -0.729   1.532  -5.949  0.00  0.00    +0.130 C 
ENDBRANCH  19  20
ENDBRANCH  18  19
ENDBRANCH  17  18
ENDBRANCH   6  17
TORSDOF 5
