REMARK  Name = ZINCrH000004qVwf.0
REMARK                            x       y       z     vdW  Elec       q    Type
REMARK                         _______ _______ _______ _____ _____    ______ ____
ROOT
ATOM      1  N   LIG    1       -1.194   2.135   0.019  0.00  0.00    -0.640 N 
ATOM      2  H   LIG    1       -2.026   1.642  -0.054  0.00  0.00    +0.420 HD
ATOM      3  C   LIG    1       -0.018   1.477   0.012  0.00  0.00    +0.570 C 
ATOM      4  O   LIG    1        1.026   2.099  -0.000  0.00  0.00    -0.510 OA
ENDROOT
BRANCH   1   7
ATOM      5  C   LIG    1       -3.451   3.516  -1.008  0.00  0.00    +0.090 C 
ATOM      6  C   LIG    1       -2.304   4.247  -0.358  0.00  0.00    -0.130 A 
ATOM      7  C   LIG    1       -1.215   3.529   0.133  0.00  0.00    +0.160 A 
ATOM      8  C   LIG    1       -0.156   4.185   0.737  0.00  0.00    +0.000 A 
ATOM      9  C   LIG    1       -0.175   5.571   0.844  0.00  0.00    +0.110 A 
ATOM     10  N   LIG    1        0.702   6.492   1.373  0.00  0.00    -0.600 N 
ATOM     11  H   LIG    1        1.553   6.277   1.787  0.00  0.00    +0.420 HD
ATOM     12  C   LIG    1        0.194   7.755   1.228  0.00  0.00    +0.220 A 
ATOM     13  C   LIG    1       -0.999   7.701   0.616  0.00  0.00    -0.050 A 
ATOM     14  C   LIG    1       -1.279   6.288   0.347  0.00  0.00    -0.120 A 
ATOM     15  C   LIG    1       -2.340   5.608  -0.255  0.00  0.00    +0.080 A 
ENDBRANCH   1   7
BRANCH   3  16
ATOM     16  C   LIG    1        0.002  -0.004   0.011  0.00  0.00    +0.100 A 
ATOM     17  C   LIG    1        1.219  -0.676  -0.008  0.00  0.00    +0.020 A 
ATOM     18  C   LIG    1        1.220  -2.071  -0.004  0.00  0.00    +0.150 A 
ATOM     19  C   LIG    1       -0.007  -2.734   0.010  0.00  0.00    -0.050 A 
ATOM     20  C   LIG    1       -1.175  -1.994   0.024  0.00  0.00    +0.300 A 
ATOM     21  N   LIG    1       -1.143  -0.678   0.024  0.00  0.00    -0.480 NA
BRANCH  18  22
ATOM     22  N   LIG    1        2.415  -2.784  -0.018  0.00  0.00    -0.490 N 
ATOM     23  C   LIG    1        3.244  -2.400  -1.170  0.00  0.00    +0.180 C 
ATOM     24  C   LIG    1        4.571  -3.162  -1.114  0.00  0.00    +0.160 C 
ATOM     25  O   LIG    1        4.307  -4.567  -1.081  0.00  0.00    -0.380 OA
ATOM     26  C   LIG    1        3.503  -4.976   0.029  0.00  0.00    +0.160 C 
ATOM     27  C   LIG    1        3.253  -6.483  -0.050  0.00  0.00    +0.070 C 
ATOM     28  C   LIG    1        5.405  -2.827  -2.352  0.00  0.00    +0.070 C 
ATOM     29  C   LIG    1        2.165  -4.232  -0.016  0.00  0.00    +0.180 C 
ENDBRANCH  18  22
ENDBRANCH   3  16
TORSDOF 3
