REMARK  Name = ZINCvU00000004w6.0
REMARK                            x       y       z     vdW  Elec       q    Type
REMARK                         _______ _______ _______ _____ _____    ______ ____
ROOT
ATOM      1  N   LIG    1       -3.421  -2.882   1.052  0.00  0.00    -0.730 N 
ATOM      2  H   LIG    1       -4.133  -2.227   1.127  0.00  0.00    +0.400 HD
ATOM      3  C   LIG    1       -3.647  -4.166   1.392  0.00  0.00    +0.700 C 
ATOM      4  N   LIG    1       -4.863  -4.541   1.836  0.00  0.00    -0.690 N 
ATOM      5  H   LIG    1       -5.596  -3.905   1.837  0.00  0.00    +0.410 HD
ATOM      6  O   LIG    1       -2.755  -4.987   1.298  0.00  0.00    -0.570 OA
ENDROOT
BRANCH   4   7
ATOM      7  C   LIG    1       -5.069  -5.848   2.295  0.00  0.00    +0.160 A 
ATOM      8  C   LIG    1       -6.301  -6.463   2.112  0.00  0.00    +0.020 A 
ATOM      9  C   LIG    1       -6.502  -7.753   2.560  0.00  0.00    +0.010 A 
ATOM     10  C   LIG    1       -5.476  -8.432   3.204  0.00  0.00    +0.150 A 
ATOM     11  C   LIG    1       -4.246  -7.816   3.391  0.00  0.00    +0.050 A 
ATOM     12  C   LIG    1       -4.043  -6.528   2.938  0.00  0.00    +0.050 A 
BRANCH  10  13
ATOM     13  N   LIG    1       -5.682  -9.740   3.663  0.00  0.00    -0.350 N 
ATOM     14  N   LIG    1       -4.723 -10.758   3.671  0.00  0.00    -0.250 NA
ATOM     15  C   LIG    1       -5.233 -11.850   4.166  0.00  0.00    +0.280 A 
ATOM     16  C   LIG    1       -6.625 -11.577   4.509  0.00  0.00    -0.180 A 
ATOM     17  C   LIG    1       -7.658 -12.344   5.058  0.00  0.00    +0.090 A 
ATOM     18  C   LIG    1       -8.885 -11.782   5.263  0.00  0.00    -0.030 A 
ATOM     19  C   LIG    1       -9.119 -10.453   4.931  0.00  0.00    +0.060 A 
ATOM     20  C   LIG    1       -8.118  -9.678   4.390  0.00  0.00    -0.010 A 
ATOM     21  C   LIG    1       -6.859 -10.230   4.172  0.00  0.00    +0.130 A 
ENDBRANCH  10  13
ENDBRANCH   4   7
BRANCH   1  22
ATOM     22  C   LIG    1       -2.099  -2.474   0.569  0.00  0.00    +0.300 C 
BRANCH  22  23
ATOM     23  C   LIG    1       -2.110  -0.977   0.256  0.00  0.00    +0.180 C 
BRANCH  23  24
ATOM     24  O   LIG    1       -2.316  -0.239   1.462  0.00  0.00    -0.370 OA
BRANCH  24  25
ATOM     25  C   LIG    1       -2.240   1.179   1.296  0.00  0.00    +0.200 C 
BRANCH  25  26
ATOM     26  C   LIG    1       -3.314   1.839   2.121  0.00  0.00    -0.090 A 
ATOM     27  C   LIG    1       -3.609   1.359   3.384  0.00  0.00    +0.040 A 
ATOM     28  C   LIG    1       -4.591   1.968   4.143  0.00  0.00    +0.000 A 
ATOM     29  C   LIG    1       -5.285   3.050   3.635  0.00  0.00    +0.000 A 
ATOM     30  C   LIG    1       -4.994   3.526   2.371  0.00  0.00    +0.000 A 
ATOM     31  C   LIG    1       -4.009   2.921   1.614  0.00  0.00    +0.010 A 
ENDBRANCH  25  26
BRANCH  25  33
ATOM     32  C   LIG    1        0.213   1.113   0.829  0.00  0.00    +0.010 C 
ATOM     33  C   LIG    1       -0.867   1.673   1.756  0.00  0.00    +0.000 C 
ENDBRANCH  25  33
ENDBRANCH  24  25
ENDBRANCH  23  24
ENDBRANCH  22  23
ENDBRANCH   1  22
TORSDOF 8
