REMARK  Name = ZINCvU00000004iZ.0
REMARK                            x       y       z     vdW  Elec       q    Type
REMARK                         _______ _______ _______ _____ _____    ______ ____
ROOT
ATOM      1  N   LIG    1       -4.827   5.572  -1.418  0.00  0.00    -0.620 N 
ATOM      2  C   LIG    1       -3.669   5.822  -2.062  0.00  0.00    +0.710 C 
ATOM      3  N   LIG    1       -2.493   5.615  -1.438  0.00  0.00    -0.680 N 
ATOM      4  H   LIG    1       -2.476   5.210  -0.556  0.00  0.00    +0.400 HD
ATOM      5  O   LIG    1       -3.687   6.234  -3.205  0.00  0.00    -0.560 OA
ATOM      6  C   LIG    1       -4.806   5.075  -0.040  0.00  0.00    +0.270 C 
ENDROOT
BRANCH   3   7
ATOM      7  C   LIG    1       -1.296   5.985  -2.061  0.00  0.00    +0.180 A 
ATOM      8  C   LIG    1       -1.293   6.986  -3.023  0.00  0.00    +0.020 A 
ATOM      9  C   LIG    1       -0.110   7.344  -3.642  0.00  0.00    +0.020 A 
ATOM     10  C   LIG    1        1.070   6.712  -3.298  0.00  0.00    -0.020 A 
ATOM     11  C   LIG    1        1.072   5.719  -2.335  0.00  0.00    +0.030 A 
ATOM     12  C   LIG    1       -0.107   5.356  -1.714  0.00  0.00    -0.110 A 
BRANCH  12  13
ATOM     13  C   LIG    1       -0.105   4.274  -0.665  0.00  0.00    +0.120 C 
BRANCH  13  14
ATOM     14  C   LIG    1       -0.455   2.955  -1.304  0.00  0.00    -0.080 A 
ATOM     15  C   LIG    1        0.545   2.145  -1.810  0.00  0.00    +0.010 A 
ATOM     16  C   LIG    1        0.224   0.934  -2.395  0.00  0.00    +0.000 A 
ATOM     17  C   LIG    1       -1.097   0.533  -2.473  0.00  0.00    +0.000 A 
ATOM     18  C   LIG    1       -2.097   1.345  -1.972  0.00  0.00    +0.010 A 
ATOM     19  C   LIG    1       -1.775   2.554  -1.383  0.00  0.00    +0.000 A 
ENDBRANCH  13  14
ENDBRANCH  12  13
ENDBRANCH   3   7
BRANCH   1  20
ATOM     20  C   LIG    1       -6.106   5.796  -2.096  0.00  0.00    +0.360 C 
BRANCH  20  23
ATOM     21  C   LIG    1       -7.684   2.440  -2.812  0.00  0.00    +0.110 A 
ATOM     22  C   LIG    1       -7.299   3.598  -2.156  0.00  0.00    -0.020 A 
ATOM     23  C   LIG    1       -6.523   4.537  -2.811  0.00  0.00    -0.100 A 
ATOM     24  C   LIG    1       -6.135   4.327  -4.120  0.00  0.00    +0.050 A 
ATOM     25  C   LIG    1       -6.512   3.170  -4.779  0.00  0.00    -0.010 A 
ATOM     26  C   LIG    1       -7.288   2.225  -4.129  0.00  0.00    +0.080 A 
BRANCH  21  28
ATOM     27  C   LIG    1       -8.814   1.801  -0.819  0.00  0.00    +0.240 C 
ATOM     28  O   LIG    1       -8.446   1.514  -2.170  0.00  0.00    -0.310 OA
ENDBRANCH  21  28
BRANCH  26  29
ATOM     29  O   LIG    1       -7.664   1.090  -4.777  0.00  0.00    -0.310 OA
BRANCH  29  30
ATOM     30  C   LIG    1       -7.222   0.937  -6.128  0.00  0.00    +0.590 C 
ATOM     31  F   LIG    1       -5.824   0.945  -6.164  0.00  0.00    -0.200 F 
ATOM     32  F   LIG    1       -7.715   1.993  -6.902  0.00  0.00    -0.200 F 
ENDBRANCH  29  30
ENDBRANCH  26  29
ENDBRANCH  20  23
ENDBRANCH   1  20
TORSDOF 8
