REMARK  Name = ZINCrH00000No4Sj.0
REMARK                            x       y       z     vdW  Elec       q    Type
REMARK                         _______ _______ _______ _____ _____    ______ ____
ROOT
ATOM      1  C   LIG    1       -0.183  -0.015   0.636  0.00  0.00    +0.120 C 
ATOM      2  C   LIG    1       -0.152   1.331   0.518  0.00  0.00    -0.080 C 
ENDROOT
BRANCH   1   5
ATOM      3  C   LIG    1        2.200  -2.850   1.239  0.00  0.00    +0.140 A 
ATOM      4  C   LIG    1        1.030  -2.153   1.006  0.00  0.00    -0.070 A 
ATOM      5  C   LIG    1        1.059  -0.759   0.884  0.00  0.00    -0.010 A 
ATOM      6  C   LIG    1        2.276  -0.076   0.993  0.00  0.00    -0.070 A 
ATOM      7  C   LIG    1        3.442  -0.779   1.230  0.00  0.00    +0.140 A 
ATOM      8  C   LIG    1        3.409  -2.166   1.351  0.00  0.00    +0.050 A 
BRANCH   3  10
ATOM      9  C   LIG    1        0.899  -4.841   1.231  0.00  0.00    +0.250 C 
ATOM     10  O   LIG    1        2.172  -4.204   1.358  0.00  0.00    -0.300 OA
ENDBRANCH   3  10
BRANCH   7  11
ATOM     11  O   LIG    1        4.624  -0.116   1.341  0.00  0.00    -0.300 OA
ATOM     12  C   LIG    1        4.586   1.306   1.206  0.00  0.00    +0.250 C 
ENDBRANCH   7  11
BRANCH   8  13
ATOM     13  O   LIG    1        4.558  -2.855   1.580  0.00  0.00    -0.470 OA
ATOM     14  H   LIG    1        5.016  -3.133   0.776  0.00  0.00    +0.390 HD
ENDBRANCH   8  13
ENDBRANCH   1   5
BRANCH   2  15
ATOM     15  C   LIG    1       -1.388   2.071   0.266  0.00  0.00    +0.460 C 
ATOM     16  O   LIG    1       -2.444   1.474   0.161  0.00  0.00    -0.470 OA
BRANCH  15  17
ATOM     17  C   LIG    1       -1.354   3.541   0.137  0.00  0.00    -0.310 A 
ATOM     18  C   LIG    1       -2.434   4.367  -0.106  0.00  0.00    +0.160 A 
ATOM     19  N   LIG    1       -1.971   5.630  -0.146  0.00  0.00    -0.310 N 
ATOM     20  N   LIG    1       -0.588   5.603   0.064  0.00  0.00    -0.290 NA
ATOM     21  C   LIG    1       -3.865   3.934  -0.289  0.00  0.00    +0.170 C 
ATOM     22  C   LIG    1       -0.211   4.365   0.234  0.00  0.00    +0.300 A 
BRANCH  19  23
ATOM     23  C   LIG    1       -2.744   6.779  -0.366  0.00  0.00    +0.140 A 
ATOM     24  C   LIG    1       -2.272   7.785  -1.199  0.00  0.00    +0.030 A 
ATOM     25  C   LIG    1       -3.039   8.913  -1.419  0.00  0.00    +0.040 A 
ATOM     26  C   LIG    1       -4.269   9.046  -0.802  0.00  0.00    +0.020 A 
ATOM     27  C   LIG    1       -4.738   8.048   0.033  0.00  0.00    +0.040 A 
ATOM     28  C   LIG    1       -3.979   6.915   0.252  0.00  0.00    +0.010 A 
ENDBRANCH  19  23
ENDBRANCH  15  17
ENDBRANCH   2  15
TORSDOF 7
