REMARK  Name = ZINCpk00000ebpOZ.0
REMARK                            x       y       z     vdW  Elec       q    Type
REMARK                         _______ _______ _______ _____ _____    ______ ____
ROOT
ATOM      1  N   LIG    1        0.074  -0.332   7.317  0.00  0.00    -0.670 N 
ATOM      2  H   LIG    1        0.016   0.628   7.447  0.00  0.00    +0.420 HD
ATOM      3  C   LIG    1        0.236  -0.835   6.077  0.00  0.00    +0.520 C 
ATOM      4  O   LIG    1        0.405  -2.026   5.923  0.00  0.00    -0.490 OA
ENDROOT
BRANCH   1   9
ATOM      5  C   LIG    1        0.414  -1.654  10.731  0.00  0.00    -0.660 A 
ATOM      6  C   LIG    1       -0.174  -2.897  10.590  0.00  0.00    +0.120 A 
ATOM      7  C   LIG    1       -0.680  -3.291   9.364  0.00  0.00    +0.020 A 
ATOM      8  C   LIG    1       -0.604  -2.441   8.279  0.00  0.00    +0.090 A 
ATOM      9  C   LIG    1       -0.009  -1.193   8.416  0.00  0.00    +0.130 A 
ATOM     10  C   LIG    1        0.498  -0.801   9.648  0.00  0.00    +0.110 A 
BRANCH   5  11
ATOM     11  S   LIG    1        1.057  -1.157  12.294  0.00  0.00    +2.700 S 
ATOM     12  O   LIG    1        2.037  -0.164  12.028  0.00  0.00    -0.960 OA
ATOM     13  O   LIG    1        1.336  -2.352  13.011  0.00  0.00    -0.960 OA
BRANCH  11  14
ATOM     14  N   LIG    1       -0.169  -0.398  13.110  0.00  0.00    -1.250 NA
ATOM     15  H   LIG    1       -0.014  -0.047  14.001  0.00  0.00    +0.420 HD
ATOM     16  H   LIG    1       -1.041  -0.305  12.696  0.00  0.00    +0.420 HD
ENDBRANCH  11  14
ENDBRANCH   5  11
ENDBRANCH   1   9
BRANCH   3  17
ATOM     17  C   LIG    1        0.206   0.083   4.882  0.00  0.00    +0.270 C 
BRANCH  17  18
ATOM     18  O   LIG    1        0.402  -0.693   3.671  0.00  0.00    -0.330 OA
BRANCH  18  19
ATOM     19  C   LIG    1        0.402  -0.018   2.505  0.00  0.00    +0.510 C 
ATOM     20  O   LIG    1        0.244   1.187   2.500  0.00  0.00    -0.480 OA
BRANCH  19  21
ATOM     21  C   LIG    1        0.595  -0.741   1.234  0.00  0.00    -0.150 A 
ATOM     22  C   LIG    1        0.777  -2.126   1.235  0.00  0.00    +0.120 A 
ATOM     23  C   LIG    1        0.956  -2.796   0.043  0.00  0.00    -0.060 A 
ATOM     24  C   LIG    1        0.956  -2.101  -1.157  0.00  0.00    +0.100 A 
ATOM     25  C   LIG    1        0.772  -0.733  -1.171  0.00  0.00    +0.000 A 
ATOM     26 CL   LIG    1        1.183  -4.517   0.044  0.00  0.00    -0.050 Cl
ATOM     27  C   LIG    1        0.596  -0.042   0.019  0.00  0.00    +0.180 A 
BRANCH  27  28
ATOM     28  O   LIG    1        0.420   1.303   0.006  0.00  0.00    -0.480 OA
ATOM     29  H   LIG    1        1.243   1.808   0.069  0.00  0.00    +0.400 HD
ENDBRANCH  27  28
ENDBRANCH  19  21
ENDBRANCH  18  19
ENDBRANCH  17  18
ENDBRANCH   3  17
TORSDOF 8
