REMARK  Name = ZINCpe000000YrBH.0
REMARK                            x       y       z     vdW  Elec       q    Type
REMARK                         _______ _______ _______ _____ _____    ______ ____
ROOT
ATOM      1  C   LIG    1        2.092   0.266  -1.327  0.00  0.00    +0.290 C 
ATOM      2  C   LIG    1        1.939   1.775  -1.550  0.00  0.00    +0.220 C 
ATOM      3  O   LIG    1        1.048   2.308  -0.567  0.00  0.00    -0.370 OA
ATOM      4  C   LIG    1       -0.281   1.783  -0.637  0.00  0.00    +0.220 C 
ATOM      5  C   LIG    1       -0.242   0.274  -0.368  0.00  0.00    +0.260 C 
ATOM      6  N   LIG    1        0.749  -0.333  -1.271  0.00  0.00    -0.610 N 
ATOM      7  C   LIG    1        0.435  -1.405  -2.025  0.00  0.00    +0.600 C 
ATOM      8  O   LIG    1        1.222  -1.816  -2.857  0.00  0.00    -0.480 OA
ENDROOT
BRANCH   1  14
ATOM      9  C   LIG    1        1.563   0.674  -4.355  0.00  0.00    +0.330 C 
ATOM     10  N   LIG    1        2.629  -0.152  -3.783  0.00  0.00    -0.350 N 
ATOM     11  N   LIG    1        3.578  -0.889  -4.503  0.00  0.00    -0.280 NA
ATOM     12  C   LIG    1        4.360  -1.496  -3.648  0.00  0.00    +0.230 A 
ATOM     13  C   LIG    1        3.938  -1.162  -2.357  0.00  0.00    -0.120 A 
ATOM     14  C   LIG    1        2.869  -0.339  -2.468  0.00  0.00    +0.110 A 
ENDBRANCH   1  14
BRANCH   7  15
ATOM     15  C   LIG    1       -0.856  -2.078  -1.842  0.00  0.00    -0.060 A 
ATOM     16  C   LIG    1       -1.355  -3.082  -2.621  0.00  0.00    +0.060 A 
ATOM     17  C   LIG    1       -2.606  -3.425  -2.085  0.00  0.00    +0.010 A 
ATOM     18  C   LIG    1       -2.817  -2.619  -1.021  0.00  0.00    -0.030 A 
ATOM     19  O   LIG    1       -1.760  -1.808  -0.878  0.00  0.00    -0.160 OA
BRANCH  18  20
ATOM     20  C   LIG    1       -4.041  -2.629  -0.142  0.00  0.00    +0.470 C 
BRANCH  20  21
ATOM     21  N   LIG    1       -3.836  -3.563   0.969  0.00  0.00    -0.300 N 
ATOM     22  C   LIG    1       -3.943  -3.266   2.284  0.00  0.00    +0.140 A 
ATOM     23  C   LIG    1       -3.677  -4.413   2.952  0.00  0.00    +0.140 A 
ATOM     24  N   LIG    1       -3.416  -5.341   2.025  0.00  0.00    -0.260 NA
ATOM     25  N   LIG    1       -3.518  -4.806   0.860  0.00  0.00    -0.080 NA
ENDBRANCH  20  21
ENDBRANCH  18  20
ENDBRANCH   7  15
TORSDOF 4
