REMARK  Name = ZINCrH000004rwf1.0
REMARK                            x       y       z     vdW  Elec       q    Type
REMARK                         _______ _______ _______ _____ _____    ______ ____
ROOT
ATOM      1  C   LIG    1       -0.728   2.296   1.252  0.00  0.00    +0.540 C 
ATOM      2  N   LIG    1       -0.867   3.618   1.474  0.00  0.00    -0.730 N 
ATOM      3  H   LIG    1       -0.513   4.257   0.835  0.00  0.00    +0.410 HD
ATOM      4  O   LIG    1       -1.170   1.497   2.050  0.00  0.00    -0.510 OA
ENDROOT
BRANCH   1   5
ATOM      5  C   LIG    1       -0.022   1.810   0.012  0.00  0.00    +0.080 C 
BRANCH   5   6
ATOM      6  S   LIG    1        0.002  -0.004   0.002  0.00  0.00    -0.020 S 
BRANCH   6  11
ATOM      7  C   LIG    1        2.912  -1.294  -5.127  0.00  0.00    +0.090 C 
ATOM      8  C   LIG    1        2.186  -0.972  -3.846  0.00  0.00    -0.080 A 
ATOM      9  C   LIG    1        1.970   0.346  -3.489  0.00  0.00    +0.010 A 
ATOM     10  C   LIG    1        1.304   0.645  -2.316  0.00  0.00    -0.010 A 
ATOM     11  C   LIG    1        0.852  -0.381  -1.495  0.00  0.00    -0.110 A 
ATOM     12  C   LIG    1        1.075  -1.704  -1.855  0.00  0.00    -0.060 A 
ATOM     13  C   LIG    1        0.592  -2.820  -0.965  0.00  0.00    +0.100 C 
ATOM     14  C   LIG    1        1.736  -1.996  -3.032  0.00  0.00    +0.030 A 
ENDBRANCH   6  11
ENDBRANCH   5   6
ENDBRANCH   1   5
BRANCH   2  15
ATOM     15  C   LIG    1       -1.553   4.090   2.679  0.00  0.00    +0.430 C 
BRANCH  15  16
ATOM     16  C   LIG    1       -1.573   5.597   2.687  0.00  0.00    +0.130 A 
ATOM     17  N   LIG    1       -0.668   6.380   3.215  0.00  0.00    -0.210 NA
ATOM     18  N   LIG    1       -0.991   7.614   3.044  0.00  0.00    -0.270 NA
ATOM     19  C   LIG    1       -2.141   7.683   2.395  0.00  0.00    +0.210 A 
ATOM     20  C   LIG    1       -2.943   8.755   1.957  0.00  0.00    +0.110 A 
ATOM     21  C   LIG    1       -4.103   8.490   1.298  0.00  0.00    +0.100 A 
ATOM     22  C   LIG    1       -4.484   7.157   1.064  0.00  0.00    -0.190 A 
ATOM     23  C   LIG    1       -3.705   6.140   1.490  0.00  0.00    +0.330 A 
ATOM     24  N   LIG    1       -2.539   6.392   2.152  0.00  0.00    -0.390 N 
BRANCH  22  25
ATOM     25  C   LIG    1       -5.769   6.862   0.335  0.00  0.00    +0.520 C 
ATOM     26  F   LIG    1       -5.681   5.605  -0.274  0.00  0.00    -0.170 F 
ATOM     27  F   LIG    1       -5.985   7.839  -0.643  0.00  0.00    -0.160 F 
ATOM     28  F   LIG    1       -6.833   6.867   1.243  0.00  0.00    -0.170 F 
ENDBRANCH  22  25
ENDBRANCH  15  16
ENDBRANCH   2  15
TORSDOF 6
