REMARK  Name = ZINCnE000001ToSF.1
REMARK                            x       y       z     vdW  Elec       q    Type
REMARK                         _______ _______ _______ _____ _____    ______ ____
ROOT
ATOM      1  C   LIG    1       -1.223   1.751   0.012  0.00  0.00    +0.200 A 
ATOM      2  C   LIG    1       -0.021   1.083  -0.178  0.00  0.00    +0.040 A 
ATOM      3  C   LIG    1        1.167   1.788  -0.191  0.00  0.00    +0.060 A 
ATOM      4  C   LIG    1        1.159   3.165  -0.009  0.00  0.00    +0.110 A 
ATOM      5  C   LIG    1       -0.044   3.833   0.186  0.00  0.00    -0.000 A 
ATOM      6 CL   LIG    1       -0.054   5.554   0.412  0.00  0.00    -0.070 Cl
ATOM      7  C   LIG    1       -1.231   3.128   0.199  0.00  0.00    -0.010 A 
ENDROOT
BRANCH   4   8
ATOM      8  N   LIG    1        2.364   3.880  -0.023  0.00  0.00    -0.570 N 
ATOM      9  C   LIG    1        3.179   4.150   1.167  0.00  0.00    +0.260 C 
ATOM     10  C   LIG    1        4.572   4.553   0.627  0.00  0.00    +0.040 C 
ATOM     11  C   LIG    1        4.217   5.103  -0.774  0.00  0.00    +0.050 C 
ATOM     12  C   LIG    1        2.918   4.411  -1.126  0.00  0.00    +0.520 C 
ATOM     13  O   LIG    1        2.446   4.346  -2.241  0.00  0.00    -0.520 OA
ENDBRANCH   4   8
BRANCH   1  16
ATOM     14  O   LIG    1       -1.473  -0.698   1.026  0.00  0.00    -0.500 OA
ATOM     15  C   LIG    1       -2.462  -0.220   0.506  0.00  0.00    +0.560 C 
ATOM     16  N   LIG    1       -2.427   1.037   0.019  0.00  0.00    -0.690 N 
ATOM     17  H   LIG    1       -3.236   1.446  -0.326  0.00  0.00    +0.410 HD
BRANCH  15  18
ATOM     18  C   LIG    1       -3.701  -1.014   0.407  0.00  0.00    -0.310 A 
ATOM     19  C   LIG    1       -4.840  -0.469  -0.189  0.00  0.00    +0.060 A 
ATOM     20  C   LIG    1       -5.995  -1.216  -0.278  0.00  0.00    -0.170 A 
ATOM     21  C   LIG    1       -6.031  -2.507   0.223  0.00  0.00    +0.050 A 
ATOM     22  C   LIG    1       -4.912  -3.059   0.815  0.00  0.00    -0.160 A 
ATOM     23  C   LIG    1       -3.740  -2.323   0.907  0.00  0.00    +0.310 A 
ATOM     24  O   LIG    1       -2.639  -2.866   1.484  0.00  0.00    -0.670 OA
ENDBRANCH  15  18
ENDBRANCH   1  16
TORSDOF 3
