REMARK  Name = ZINCqH0000037dh0.0
REMARK                            x       y       z     vdW  Elec       q    Type
REMARK                         _______ _______ _______ _____ _____    ______ ____
ROOT
ATOM      1  N   LIG    1       -2.071   8.789  -2.392  0.00  0.00    -0.740 N 
ATOM      2  H   LIG    1       -2.000   9.332  -1.591  0.00  0.00    +0.390 HD
ATOM      3  C   LIG    1       -1.917   7.452  -2.315  0.00  0.00    +0.710 C 
ATOM      4  N   LIG    1       -1.666   6.870  -1.126  0.00  0.00    -0.690 N 
ATOM      5  H   LIG    1       -1.676   7.401  -0.314  0.00  0.00    +0.400 HD
ATOM      6  O   LIG    1       -2.005   6.772  -3.319  0.00  0.00    -0.570 OA
ENDROOT
BRANCH   4   7
ATOM      7  C   LIG    1       -1.389   5.497  -1.062  0.00  0.00    +0.140 A 
ATOM      8  C   LIG    1       -0.688   4.879  -2.089  0.00  0.00    +0.040 A 
ATOM      9  C   LIG    1       -0.421   3.529  -2.023  0.00  0.00    -0.010 A 
ATOM     10  C   LIG    1       -0.850   2.775  -0.929  0.00  0.00    +0.110 A 
ATOM     11  C   LIG    1       -1.544   3.394   0.096  0.00  0.00    -0.110 A 
ATOM     12  C   LIG    1       -2.019   2.637   1.311  0.00  0.00    +0.070 C 
ATOM     13  C   LIG    1       -1.970   1.133   1.036  0.00  0.00    +0.040 C 
ATOM     14  C   LIG    1       -0.609   0.811   0.407  0.00  0.00    +0.200 C 
ATOM     15  N   LIG    1       -0.552   1.410  -0.928  0.00  0.00    -0.500 N 
ATOM     16  C   LIG    1        0.746   1.154  -1.566  0.00  0.00    +0.220 C 
ATOM     17  C   LIG    1       -1.814   4.751   0.026  0.00  0.00    +0.000 A 
ENDBRANCH   4   7
BRANCH   1  19
ATOM     18  C   LIG    1       -3.847   9.381  -3.965  0.00  0.00    +0.020 C 
ATOM     19  C   LIG    1       -2.344   9.422  -3.684  0.00  0.00    +0.280 C 
BRANCH  19  20
ATOM     20  C   LIG    1       -1.871  10.877  -3.650  0.00  0.00    +0.010 C 
ATOM     21  C   LIG    1       -2.732  11.715  -2.675  0.00  0.00    +0.230 C 
ATOM     22  O   LIG    1       -3.751  12.255  -3.533  0.00  0.00    -0.300 OA
ATOM     23  C   LIG    1       -3.260  12.366  -4.798  0.00  0.00    +0.110 A 
ATOM     24  C   LIG    1       -3.719  13.126  -5.870  0.00  0.00    -0.010 A 
ATOM     25  C   LIG    1       -3.071  13.073  -7.087  0.00  0.00    +0.050 A 
ATOM     26  C   LIG    1       -1.961  12.267  -7.253  0.00  0.00    -0.020 A 
ATOM     27  C   LIG    1       -1.496  11.511  -6.191  0.00  0.00    +0.070 A 
ATOM     28  C   LIG    1       -2.139  11.565  -4.974  0.00  0.00    -0.170 A 
ENDBRANCH  19  20
ENDBRANCH   1  19
TORSDOF 3
