REMARK  Name = ZINCtV00000bM9Bb.0
REMARK                            x       y       z     vdW  Elec       q    Type
REMARK                         _______ _______ _______ _____ _____    ______ ____
ROOT
ATOM      1  O   LIG    1        4.440  -0.317  -1.214  0.00  0.00    -0.490 OA
ATOM      2  C   LIG    1        3.406  -0.869  -0.891  0.00  0.00    +0.560 C 
ATOM      3  N   LIG    1        3.434  -2.132  -0.421  0.00  0.00    -0.660 N 
ATOM      4  H   LIG    1        2.611  -2.566  -0.147  0.00  0.00    +0.410 HD
ENDROOT
BRANCH   2   5
ATOM      5  C   LIG    1        2.120  -0.157  -1.013  0.00  0.00    -0.170 A 
ATOM      6  C   LIG    1        0.930  -0.787  -0.643  0.00  0.00    +0.080 A 
ATOM      7  C   LIG    1       -0.268  -0.115  -0.760  0.00  0.00    -0.020 A 
ATOM      8  C   LIG    1       -0.298   1.182  -1.244  0.00  0.00    +0.080 A 
ATOM      9  C   LIG    1        0.871   1.817  -1.613  0.00  0.00    -0.070 A 
ATOM     10  C   LIG    1        2.086   1.157  -1.502  0.00  0.00    +0.190 A 
BRANCH  10  11
ATOM     11  O   LIG    1        3.235   1.779  -1.865  0.00  0.00    -0.220 OA
BRANCH  11  12
ATOM     12  C   LIG    1        3.164   3.085  -2.236  0.00  0.00    +0.080 A 
ATOM     13  C   LIG    1        3.225   3.431  -3.578  0.00  0.00    +0.010 A 
ATOM     14  C   LIG    1        3.148   4.758  -3.952  0.00  0.00    +0.030 A 
ATOM     15  C   LIG    1        3.021   5.743  -2.990  0.00  0.00    +0.010 A 
ATOM     16  C   LIG    1        2.966   5.401  -1.651  0.00  0.00    +0.020 A 
ATOM     17  C   LIG    1        3.037   4.075  -1.272  0.00  0.00    +0.000 A 
ENDBRANCH  11  12
ENDBRANCH  10  11
ENDBRANCH   2   5
BRANCH   3  18
ATOM     18  C   LIG    1        4.652  -2.817  -0.327  0.00  0.00    +0.150 A 
ATOM     19  C   LIG    1        5.847  -2.113  -0.319  0.00  0.00    +0.030 A 
ATOM     20  C   LIG    1        7.048  -2.791  -0.227  0.00  0.00    +0.040 A 
ATOM     21  C   LIG    1        7.062  -4.171  -0.143  0.00  0.00    +0.000 A 
ATOM     22  C   LIG    1        5.875  -4.880  -0.151  0.00  0.00    +0.040 A 
ATOM     23  C   LIG    1        4.667  -4.208  -0.237  0.00  0.00    +0.040 A 
BRANCH  23  24
ATOM     24  O   LIG    1        3.498  -4.903  -0.238  0.00  0.00    -0.260 OA
BRANCH  24  25
ATOM     25  C   LIG    1        2.900  -5.142  -1.435  0.00  0.00    +0.110 A 
ATOM     26  C   LIG    1        3.421  -4.588  -2.595  0.00  0.00    -0.060 A 
ATOM     27  C   LIG    1        2.814  -4.838  -3.811  0.00  0.00    +0.040 A 
ATOM     28  C   LIG    1        1.682  -5.629  -3.870  0.00  0.00    -0.020 A 
ATOM     29  C   LIG    1        1.157  -6.177  -2.715  0.00  0.00    +0.050 A 
ATOM     30  C   LIG    1        1.764  -5.936  -1.497  0.00  0.00    -0.020 A 
ENDBRANCH  24  25
ENDBRANCH  23  24
ENDBRANCH   3  18
TORSDOF 6
