REMARK  Name = ZINCrg000000tXwD.0
REMARK                            x       y       z     vdW  Elec       q    Type
REMARK                         _______ _______ _______ _____ _____    ______ ____
ROOT
ATOM      1  N   LIG    1        7.323   5.855   1.017  0.00  0.00    -0.530 NA
ATOM      2  C   LIG    1        6.649   6.510  -0.112  0.00  0.00    +0.210 C 
ATOM      3  C   LIG    1        5.142   6.261  -0.017  0.00  0.00    +0.220 C 
ATOM      4  N   LIG    1        4.886   4.814  -0.022  0.00  0.00    -0.470 N 
ATOM      5  C   LIG    1        5.560   4.159   1.108  0.00  0.00    +0.230 C 
ATOM      6  C   LIG    1        7.067   4.408   1.013  0.00  0.00    +0.190 C 
ENDROOT
BRANCH   4   7
ATOM      7  C   LIG    1        3.521   4.549  -0.009  0.00  0.00    +0.310 A 
ATOM      8  C   LIG    1        2.608   5.600   0.006  0.00  0.00    +0.180 A 
ATOM      9  N   LIG    1        1.312   5.348   0.018  0.00  0.00    -0.390 NA
ATOM     10  C   LIG    1        0.878   4.101   0.015  0.00  0.00    +0.220 A 
ATOM     11  C   LIG    1        1.784   3.048   0.001  0.00  0.00    +0.350 A 
ATOM     12  N   LIG    1        3.087   3.295  -0.005  0.00  0.00    -0.480 NA
BRANCH  11  13
ATOM     13  N   LIG    1        1.323   1.727  -0.001  0.00  0.00    -0.340 N 
ATOM     14  C   LIG    1        2.075   0.609  -0.015  0.00  0.00    +0.530 A 
ATOM     15  N   LIG    1        1.268  -0.421  -0.012  0.00  0.00    -0.530 NA
ATOM     16  C   LIG    1        0.002  -0.004   0.002  0.00  0.00    +0.450 A 
ATOM     17  N   LIG    1       -0.016   1.303   0.009  0.00  0.00    -0.310 NA
ENDBRANCH  11  13
ENDBRANCH   4   7
BRANCH   1  18
ATOM     18  C   LIG    1        8.765   6.134   1.004  0.00  0.00    +0.300 C 
BRANCH  18  23
ATOM     19  C   LIG    1       11.003   4.926   6.433  0.00  0.00    +0.040 A 
ATOM     20  C   LIG    1       10.355   5.879   5.711  0.00  0.00    +0.070 A 
ATOM     21  C   LIG    1       10.043   5.628   4.359  0.00  0.00    +0.220 A 
ATOM     22  N   LIG    1        9.431   6.354   3.435  0.00  0.00    -0.470 NA
ATOM     23  C   LIG    1        9.381   5.660   2.295  0.00  0.00    +0.070 A 
ATOM     24  C   LIG    1        9.970   4.460   2.494  0.00  0.00    +0.080 A 
ATOM     25  N   LIG    1       10.397   4.430   3.793  0.00  0.00    -0.360 N 
ATOM     26  C   LIG    1       11.048   3.483   4.530  0.00  0.00    +0.210 A 
ATOM     27  C   LIG    1       11.352   3.709   5.825  0.00  0.00    +0.010 A 
ENDBRANCH  18  23
ENDBRANCH   1  18
TORSDOF 4
