REMARK  Name = ZINCpe00000yRlzh.0
REMARK                            x       y       z     vdW  Elec       q    Type
REMARK                         _______ _______ _______ _____ _____    ______ ____
ROOT
ATOM      1  C   LIG    1       -1.913   4.768  -1.695  0.00  0.00    +0.500 C 
ATOM      2  N   LIG    1       -0.951   5.417  -1.010  0.00  0.00    -0.610 N 
ATOM      3  C   LIG    1       -0.725   6.854  -1.216  0.00  0.00    +0.260 C 
ATOM      4  C   LIG    1       -0.821   7.565   0.140  0.00  0.00    +0.270 C 
ATOM      5  N   LIG    1        0.022   6.848   1.106  0.00  0.00    -0.620 N 
ATOM      6  C   LIG    1       -0.203   5.410   1.313  0.00  0.00    +0.300 C 
ATOM      7  C   LIG    1        0.984   7.497   1.792  0.00  0.00    +0.510 C 
ATOM      8  O   LIG    1        1.673   6.894   2.587  0.00  0.00    -0.510 OA
ATOM      9  C   LIG    1       -0.107   4.699  -0.043  0.00  0.00    +0.270 C 
ATOM     10  O   LIG    1       -2.150   3.603  -1.452  0.00  0.00    -0.480 OA
ENDROOT
BRANCH   9  11
ATOM     11  C   LIG    1       -0.592   3.279   0.095  0.00  0.00    -0.050 A 
ATOM     12  C   LIG    1        0.113   2.247  -0.495  0.00  0.00    +0.000 A 
ATOM     13  C   LIG    1       -0.332   0.945  -0.368  0.00  0.00    +0.010 A 
ATOM     14  C   LIG    1       -1.481   0.674   0.350  0.00  0.00    +0.000 A 
ATOM     15  C   LIG    1       -2.190   1.706   0.936  0.00  0.00    +0.010 A 
ATOM     16  C   LIG    1       -1.743   3.008   0.812  0.00  0.00    +0.030 A 
ENDBRANCH   9  11
BRANCH   1  18
ATOM     17  C   LIG    1       -3.728   6.405  -2.107  0.00  0.00    +0.080 C 
ATOM     18  C   LIG    1       -2.694   5.489  -2.763  0.00  0.00    +0.260 C 
BRANCH  18  19
ATOM     19  N   LIG    1       -3.378   4.511  -3.612  0.00  0.00    -0.360 N 
ATOM     20  C   LIG    1       -4.577   3.944  -3.364  0.00  0.00    +0.240 A 
ATOM     21  C   LIG    1       -4.854   3.101  -4.385  0.00  0.00    -0.120 A 
ATOM     22  C   LIG    1       -3.788   3.153  -5.288  0.00  0.00    +0.230 A 
ATOM     23  N   LIG    1       -2.905   4.002  -4.829  0.00  0.00    -0.300 NA
ENDBRANCH  18  19
ENDBRANCH   1  18
BRANCH   7  24
ATOM     24  C   LIG    1        1.204   8.971   1.569  0.00  0.00    +0.220 C 
BRANCH  24  25
ATOM     25  O   LIG    1        2.270   9.425   2.405  0.00  0.00    -0.550 OA
ATOM     26  H   LIG    1        2.467  10.367   2.314  0.00  0.00    +0.390 HD
ENDBRANCH  24  25
ENDBRANCH   7  24
TORSDOF 5
