REMARK  Name = ZINCpk00000y6wyX.0
REMARK                            x       y       z     vdW  Elec       q    Type
REMARK                         _______ _______ _______ _____ _____    ______ ____
ROOT
ATOM      1  C   LIG    1        1.486   4.663  -1.801  0.00  0.00    +0.570 C 
ATOM      2  N   LIG    1        0.720   4.449  -0.713  0.00  0.00    -0.600 N 
ATOM      3  C   LIG    1       -0.676   4.929  -0.722  0.00  0.00    +0.260 C 
ATOM      4  C   LIG    1       -1.627   3.893  -0.100  0.00  0.00    +0.030 C 
ATOM      5  C   LIG    1       -1.222   2.503  -0.540  0.00  0.00    +0.200 C 
ATOM      6  N   LIG    1       -0.306   1.936   0.448  0.00  0.00    -0.560 NA
ATOM      7  C   LIG    1        1.066   2.234   0.277  0.00  0.00    +0.180 C 
ATOM      8  C   LIG    1        1.298   3.757   0.421  0.00  0.00    +0.290 C 
ATOM      9  O   LIG    1        2.659   4.342  -1.791  0.00  0.00    -0.530 OA
ENDROOT
BRANCH   1  16
ATOM     10  C   LIG    1        1.039   4.677  -4.262  0.00  0.00    +0.450 A 
ATOM     11  N   LIG    1        0.508   5.238  -5.338  0.00  0.00    -0.540 NA
ATOM     12  C   LIG    1       -0.150   6.379  -5.272  0.00  0.00    +0.200 A 
ATOM     13  C   LIG    1       -0.321   7.040  -4.069  0.00  0.00    -0.100 A 
ATOM     14  C   LIG    1        0.207   6.497  -2.912  0.00  0.00    +0.140 A 
ATOM     15  C   LIG    1       -0.727   6.973  -6.531  0.00  0.00    +0.130 C 
ATOM     16  C   LIG    1        0.902   5.285  -3.003  0.00  0.00    -0.270 A 
BRANCH  10  18
ATOM     17  C   LIG    1        1.970   2.903  -5.702  0.00  0.00    +0.290 C 
ATOM     18  N   LIG    1        1.726   3.483  -4.378  0.00  0.00    -0.710 N 
ATOM     19  H   LIG    1        2.047   3.029  -3.583  0.00  0.00    +0.410 HD
ENDBRANCH  10  18
ENDBRANCH   1  16
BRANCH   6  20
ATOM     20  C   LIG    1       -0.517   0.489   0.592  0.00  0.00    +0.320 C 
BRANCH  20  21
ATOM     21  C   LIG    1        0.116   0.014   1.875  0.00  0.00    +0.180 A 
ATOM     22  N   LIG    1       -0.457  -0.047   3.039  0.00  0.00    -0.370 NA
ATOM     23  O   LIG    1        0.319  -0.473   3.868  0.00  0.00    +0.080 OA
ATOM     24  C   LIG    1        1.498  -0.731   3.294  0.00  0.00    +0.180 A 
ATOM     25  C   LIG    1        2.729  -1.272   3.975  0.00  0.00    +0.240 C 
ATOM     26  N   LIG    1        1.377  -0.429   2.023  0.00  0.00    -0.480 NA
ENDBRANCH  20  21
ENDBRANCH   6  20
TORSDOF 4
