REMARK  Name = ZINCkj00000hbrTh.0
REMARK                            x       y       z     vdW  Elec       q    Type
REMARK                         _______ _______ _______ _____ _____    ______ ____
ROOT
ATOM      1  C   LIG    1        3.453   3.693  -3.754  0.00  0.00    +0.330 C 
ATOM      2  N   LIG    1        4.366   3.021  -2.820  0.00  0.00    -0.380 N 
ATOM      3  H   LIG    1        4.692   2.159  -3.230  0.00  0.00    +0.420 HD
ENDROOT
BRANCH   2   4
ATOM      4  C   LIG    1        5.513   3.895  -2.542  0.00  0.00    +0.280 C 
BRANCH   4   5
ATOM      5  C   LIG    1        6.330   4.087  -3.821  0.00  0.00    -0.020 C 
ATOM      6  C   LIG    1        6.949   2.749  -4.237  0.00  0.00    +0.030 C 
ATOM      7  C   LIG    1        7.564   2.890  -5.635  0.00  0.00    +0.170 C 
ATOM      8  C   LIG    1        8.421   4.134  -5.651  0.00  0.00    +0.190 A 
ATOM      9  N   LIG    1        9.328   4.458  -6.526  0.00  0.00    -0.480 NA
ATOM     10  C   LIG    1        9.867   5.640  -6.186  0.00  0.00    +0.160 A 
ATOM     11  C   LIG    1        9.267   6.064  -5.055  0.00  0.00    +0.130 A 
ATOM     12  N   LIG    1        8.352   5.112  -4.716  0.00  0.00    -0.460 N 
ATOM     13  C   LIG    1        7.444   5.109  -3.567  0.00  0.00    +0.310 C 
ENDBRANCH   4   5
ENDBRANCH   2   4
BRANCH   2  14
ATOM     14  C   LIG    1        3.657   2.729  -1.567  0.00  0.00    +0.260 C 
BRANCH  14  15
ATOM     15  C   LIG    1        2.539   1.721  -1.836  0.00  0.00    +0.080 C 
BRANCH  15  16
ATOM     16  C   LIG    1        1.801   1.417  -0.531  0.00  0.00    -0.020 C 
ATOM     17  C   LIG    1        0.749   0.308  -0.753  0.00  0.00    +0.060 C 
ATOM     18  C   LIG    1       -0.489   0.883  -0.027  0.00  0.00    +0.270 C 
ATOM     19  O   LIG    1       -0.305   2.329  -0.084  0.00  0.00    -0.340 OA
ATOM     20  C   LIG    1        1.003   2.623  -0.081  0.00  0.00    +0.480 C 
ATOM     21  O   LIG    1        1.475   3.690   0.232  0.00  0.00    -0.450 OA
ENDBRANCH  15  16
ENDBRANCH  14  15
ENDBRANCH   2  14
TORSDOF 5
