REMARK  Name = ZINCkj00000hbrTh.1
REMARK                            x       y       z     vdW  Elec       q    Type
REMARK                         _______ _______ _______ _____ _____    ______ ____
ROOT
ATOM      1  C   LIG    1       -0.639  -0.393  -4.948  0.00  0.00    +0.320 C 
ATOM      2  N   LIG    1       -1.942   0.076  -4.461  0.00  0.00    -0.390 N 
ATOM      3  H   LIG    1       -2.444  -0.694  -4.045  0.00  0.00    +0.420 HD
ENDROOT
BRANCH   2   4
ATOM      4  C   LIG    1       -2.720   0.616  -5.585  0.00  0.00    +0.280 C 
BRANCH   4   5
ATOM      5  C   LIG    1       -3.037  -0.509  -6.572  0.00  0.00    -0.020 C 
ATOM      6  C   LIG    1       -3.738   0.074  -7.803  0.00  0.00    +0.070 C 
ATOM      7  C   LIG    1       -3.841  -1.007  -8.886  0.00  0.00    +0.180 C 
ATOM      8  C   LIG    1       -4.393  -2.261  -8.250  0.00  0.00    +0.200 A 
ATOM      9  N   LIG    1       -4.897  -3.297  -8.854  0.00  0.00    -0.480 NA
ATOM     10  C   LIG    1       -5.277  -4.201  -7.937  0.00  0.00    +0.160 A 
ATOM     11  C   LIG    1       -4.996  -3.703  -6.716  0.00  0.00    +0.130 A 
ATOM     12  N   LIG    1       -4.436  -2.476  -6.913  0.00  0.00    -0.470 N 
ATOM     13  C   LIG    1       -3.956  -1.534  -5.899  0.00  0.00    +0.280 C 
ENDBRANCH   4   5
ENDBRANCH   2   4
BRANCH   2  14
ATOM     14  C   LIG    1       -1.740   1.129  -3.456  0.00  0.00    +0.260 C 
BRANCH  14  15
ATOM     15  C   LIG    1       -1.040   0.536  -2.232  0.00  0.00    +0.070 C 
BRANCH  15  16
ATOM     16  C   LIG    1       -0.829   1.632  -1.185  0.00  0.00    -0.020 C 
ATOM     17  C   LIG    1       -0.013   1.086   0.008  0.00  0.00    +0.060 C 
ATOM     18  C   LIG    1       -0.806   1.619   1.223  0.00  0.00    +0.270 C 
ATOM     19  O   LIG    1       -2.174   1.763   0.722  0.00  0.00    -0.340 OA
ATOM     20  C   LIG    1       -2.154   2.052  -0.587  0.00  0.00    +0.480 C 
ATOM     21  O   LIG    1       -3.059   2.570  -1.198  0.00  0.00    -0.450 OA
ENDBRANCH  15  16
ENDBRANCH  14  15
ENDBRANCH   2  14
TORSDOF 5
