REMARK  Name = ZINCqH0000032vOC.1
REMARK                            x       y       z     vdW  Elec       q    Type
REMARK                         _______ _______ _______ _____ _____    ______ ____
ROOT
ATOM      1  N   LIG    1       -1.926  -0.691  -1.303  0.00  0.00    -0.670 NA
ATOM      2  H   LIG    1       -1.278  -1.310  -1.767  0.00  0.00    +0.350 HD
ENDROOT
BRANCH   1   7
ATOM      3  C   LIG    1       -7.787  -0.956  -1.658  0.00  0.00    +0.230 A 
ATOM      4  N   LIG    1       -6.882  -0.084  -1.290  0.00  0.00    -0.310 NA
ATOM      5  N   LIG    1       -5.638  -0.672  -1.533  0.00  0.00    -0.380 N 
ATOM      6  C   LIG    1       -4.308  -0.112  -1.293  0.00  0.00    +0.330 C 
ATOM      7  C   LIG    1       -3.283  -1.253  -1.306  0.00  0.00    +0.130 C 
ATOM      8  C   LIG    1       -3.481  -2.102  -2.566  0.00  0.00    +0.040 C 
ATOM      9  C   LIG    1       -4.806  -2.868  -2.456  0.00  0.00    +0.170 C 
ATOM     10  C   LIG    1       -5.883  -1.893  -2.047  0.00  0.00    +0.270 A 
ATOM     11  N   LIG    1       -7.174  -2.050  -2.115  0.00  0.00    -0.530 NA
BRANCH   3  13
ATOM     12  C   LIG    1       -9.883  -0.865  -2.979  0.00  0.00    +0.050 C 
ATOM     13  C   LIG    1       -9.278  -0.757  -1.578  0.00  0.00    +0.090 C 
ATOM     14  C   LIG    1       -9.889  -1.832  -0.675  0.00  0.00    +0.050 C 
ENDBRANCH   3  13
ENDBRANCH   1   7
BRANCH   1  15
ATOM     15  C   LIG    1       -1.483  -0.394   0.066  0.00  0.00    +0.240 C 
BRANCH  15  16
ATOM     16  C   LIG    1       -0.089   0.179   0.029  0.00  0.00    -0.090 A 
ATOM     17  C   LIG    1        1.004  -0.664  -0.020  0.00  0.00    -0.010 A 
ATOM     18  C   LIG    1        2.284  -0.138  -0.054  0.00  0.00    +0.000 A 
ATOM     19  C   LIG    1        2.472   1.232  -0.039  0.00  0.00    +0.050 A 
ATOM     20  C   LIG    1        1.383   2.080   0.010  0.00  0.00    -0.030 A 
ATOM     21 CL   LIG    1        0.773  -2.385  -0.040  0.00  0.00    -0.070 Cl
ATOM     22  C   LIG    1        0.097   1.556   0.044  0.00  0.00    +0.130 A 
BRANCH  22  23
ATOM     23  N   LIG    1       -1.006   2.411   0.088  0.00  0.00    -0.470 N 
ATOM     24  C   LIG    1       -0.576   3.830   0.173  0.00  0.00    +0.180 C 
ATOM     25  C   LIG    1       -1.825   4.609  -0.312  0.00  0.00    +0.040 C 
ATOM     26  C   LIG    1       -2.378   3.707  -1.439  0.00  0.00    +0.000 C 
ATOM     27  C   LIG    1       -1.808   2.306  -1.150  0.00  0.00    +0.210 C 
ENDBRANCH  22  23
ENDBRANCH  15  16
ENDBRANCH   1  15
TORSDOF 5
