REMARK  Name = ZINCpe000000WCqJ.0
REMARK                            x       y       z     vdW  Elec       q    Type
REMARK                         _______ _______ _______ _____ _____    ______ ____
ROOT
ATOM      1  N   LIG    1       -1.196  -5.041  -2.141  0.00  0.00    -0.380 N 
ATOM      2  C   LIG    1       -1.150  -4.059  -1.201  0.00  0.00    +0.620 A 
ATOM      3  N   LIG    1       -1.278  -4.593  -0.016  0.00  0.00    -0.510 NA
ATOM      4  C   LIG    1       -1.413  -5.929  -0.120  0.00  0.00    +0.540 A 
ATOM      5  N   LIG    1       -1.568  -6.878   0.791  0.00  0.00    -0.520 NA
ATOM      6  C   LIG    1       -1.682  -8.156   0.449  0.00  0.00    +0.230 A 
ATOM      7  C   LIG    1       -1.641  -8.526  -0.866  0.00  0.00    -0.300 A 
ATOM      8  C   LIG    1       -1.471  -7.530  -1.845  0.00  0.00    +0.540 A 
ATOM      9  O   LIG    1       -1.424  -7.822  -3.029  0.00  0.00    -0.510 OA
ATOM     10  C   LIG    1       -1.857  -9.205   1.516  0.00  0.00    +0.160 C 
ATOM     11  N   LIG    1       -1.366  -6.248  -1.450  0.00  0.00    -0.360 N 
ENDROOT
BRANCH   1  12
ATOM     12  C   LIG    1       -1.091  -4.869  -3.592  0.00  0.00    +0.430 C 
BRANCH  12  20
ATOM     13  C   LIG    1        1.042  -5.899  -4.436  0.00  0.00    +0.360 A 
ATOM     14  N   LIG    1        2.317  -5.822  -4.780  0.00  0.00    -0.550 NA
ATOM     15  C   LIG    1        2.986  -4.686  -4.708  0.00  0.00    +0.190 A 
ATOM     16  C   LIG    1        2.373  -3.531  -4.266  0.00  0.00    -0.080 A 
ATOM     17  C   LIG    1        1.034  -3.569  -3.901  0.00  0.00    +0.020 A 
ATOM     18  C   LIG    1        0.330  -2.326  -3.420  0.00  0.00    +0.130 C 
ATOM     19  C   LIG    1        4.437  -4.650  -5.113  0.00  0.00    +0.140 C 
ATOM     20  C   LIG    1        0.362  -4.776  -3.983  0.00  0.00    -0.220 A 
BRANCH  13  22
ATOM     21  C   LIG    1        1.148  -8.205  -4.999  0.00  0.00    +0.260 C 
ATOM     22  O   LIG    1        0.393  -7.087  -4.526  0.00  0.00    -0.270 OA
ENDBRANCH  13  22
ENDBRANCH  12  20
ENDBRANCH   1  12
BRANCH   7  23
ATOM     23  C   LIG    1       -1.770  -9.975  -1.259  0.00  0.00    +0.120 C 
BRANCH  23  24
ATOM     24  C   LIG    1       -3.229 -10.283  -1.600  0.00  0.00    +0.160 C 
BRANCH  24  25
ATOM     25  O   LIG    1       -3.351 -11.657  -1.973  0.00  0.00    -0.570 OA
ATOM     26  H   LIG    1       -4.252 -11.923  -2.203  0.00  0.00    +0.380 HD
ENDBRANCH  24  25
ENDBRANCH  23  24
ENDBRANCH   7  23
TORSDOF 6
