REMARK  Name = ZINCpe00000gNiog.0
REMARK                            x       y       z     vdW  Elec       q    Type
REMARK                         _______ _______ _______ _____ _____    ______ ____
ROOT
ATOM      1  C   LIG    1       -1.299   3.579  -3.137  0.00  0.00    -0.140 A 
ATOM      2  C   LIG    1       -2.530   2.988  -3.426  0.00  0.00    +0.160 A 
ATOM      3  C   LIG    1       -2.979   1.928  -2.666  0.00  0.00    +0.020 A 
ATOM      4  C   LIG    1       -2.208   1.446  -1.622  0.00  0.00    +0.080 A 
ATOM      5  C   LIG    1       -0.987   2.032  -1.326  0.00  0.00    -0.690 A 
ATOM      6 CL   LIG    1       -2.776   0.107  -0.674  0.00  0.00    -0.020 Cl
ATOM      7  C   LIG    1       -0.528   3.092  -2.078  0.00  0.00    +0.230 A 
ENDROOT
BRANCH   5   8
ATOM      8  S   LIG    1       -0.017   1.417   0.010  0.00  0.00    +2.690 S 
ATOM      9  O   LIG    1        1.167   2.201   0.040  0.00  0.00    -0.940 OA
ATOM     10  O   LIG    1       -0.009   0.002  -0.119  0.00  0.00    -0.930 OA
BRANCH   8  11
ATOM     11  N   LIG    1       -0.838   1.754   1.408  0.00  0.00    -0.990 NA
ATOM     12  C   LIG    1       -0.742   3.079   2.042  0.00  0.00    +0.280 C 
ATOM     13  C   LIG    1       -2.167   3.583   2.317  0.00  0.00    +0.220 C 
ATOM     14  O   LIG    1       -2.886   2.583   3.043  0.00  0.00    -0.370 OA
ATOM     15  C   LIG    1       -3.056   1.353   2.334  0.00  0.00    +0.210 C 
ATOM     16  C   LIG    1       -1.680   0.737   2.057  0.00  0.00    +0.270 C 
ENDBRANCH   8  11
ENDBRANCH   5   8
BRANCH   1  18
ATOM     17  O   LIG    1        0.259   5.227  -3.693  0.00  0.00    -0.470 OA
ATOM     18  C   LIG    1       -0.813   4.714  -3.947  0.00  0.00    +0.510 C 
BRANCH  18  19
ATOM     19  O   LIG    1       -1.558   5.182  -4.967  0.00  0.00    -0.330 OA
BRANCH  19  20
ATOM     20  C   LIG    1       -1.018   6.300  -5.720  0.00  0.00    +0.160 C 
ATOM     21  C   LIG    1       -1.537   6.270  -7.175  0.00  0.00    +0.070 C 
ATOM     22  C   LIG    1       -1.948   7.742  -7.404  0.00  0.00    +0.270 C 
ATOM     23  O   LIG    1       -2.270   8.242  -6.072  0.00  0.00    -0.340 OA
ATOM     24  C   LIG    1       -1.523   7.609  -5.153  0.00  0.00    +0.470 C 
ATOM     25  O   LIG    1       -1.290   8.021  -4.041  0.00  0.00    -0.420 OA
ENDBRANCH  19  20
ENDBRANCH  18  19
ENDBRANCH   1  18
TORSDOF 5
