REMARK  Name = ZINCrg000000tUtf.0
REMARK                            x       y       z     vdW  Elec       q    Type
REMARK                         _______ _______ _______ _____ _____    ______ ____
ROOT
ATOM      1  C   LIG    1       -4.378   3.094   2.844  0.00  0.00    +0.560 C 
ATOM      2  N   LIG    1       -3.404   2.527   2.106  0.00  0.00    -0.720 N 
ATOM      3  H   LIG    1       -2.645   2.110   2.543  0.00  0.00    +0.400 HD
ATOM      4  O   LIG    1       -5.330   3.617   2.297  0.00  0.00    -0.520 OA
ENDROOT
BRANCH   1  13
ATOM      5  O   LIG    1       -7.090   4.774   9.188  0.00  0.00    -0.570 OA
ATOM      6  C   LIG    1       -6.175   4.245   8.588  0.00  0.00    +0.710 C 
ATOM      7  N   LIG    1       -5.173   3.697   9.300  0.00  0.00    -0.730 N 
ATOM      8  H   LIG    1       -5.187   3.728  10.269  0.00  0.00    +0.430 HD
ATOM      9  C   LIG    1       -4.056   3.051   8.590  0.00  0.00    +0.300 C 
ATOM     10  C   LIG    1       -4.116   3.049   7.079  0.00  0.00    -0.120 A 
ATOM     11  C   LIG    1       -3.118   2.468   6.328  0.00  0.00    +0.070 A 
ATOM     12  C   LIG    1       -3.201   2.476   4.949  0.00  0.00    +0.020 A 
ATOM     13  C   LIG    1       -4.290   3.081   4.320  0.00  0.00    -0.100 A 
ATOM     14  C   LIG    1       -5.299   3.668   5.084  0.00  0.00    +0.050 A 
ATOM     15  C   LIG    1       -5.212   3.652   6.467  0.00  0.00    +0.170 A 
ATOM     16  N   LIG    1       -6.211   4.233   7.249  0.00  0.00    -0.660 N 
ATOM     17  H   LIG    1       -6.965   4.648   6.803  0.00  0.00    +0.430 HD
ENDBRANCH   1  13
BRANCH   2  18
ATOM     18  C   LIG    1       -3.491   2.541   0.643  0.00  0.00    +0.250 C 
ATOM     19  C   LIG    1       -2.893   3.849   0.063  0.00  0.00    +0.030 C 
ATOM     20  C   LIG    1       -1.379   3.551   0.027  0.00  0.00    +0.260 C 
ATOM     21  N   LIG    1       -1.222   2.089   0.019  0.00  0.00    -0.600 N 
ATOM     22  C   LIG    1       -2.560   1.470   0.016  0.00  0.00    +0.280 C 
BRANCH  21  23
ATOM     23  C   LIG    1       -0.017   1.407   0.010  0.00  0.00    +0.270 A 
ATOM     24  C   LIG    1        1.179   2.102   0.002  0.00  0.00    -0.240 A 
ATOM     25  C   LIG    1        2.383   1.384  -0.013  0.00  0.00    +0.530 A 
ATOM     26  N   LIG    1        2.354   0.037  -0.021  0.00  0.00    -0.520 N 
ATOM     27  H   LIG    1        3.186  -0.462  -0.031  0.00  0.00    +0.440 HD
ATOM     28  N   LIG    1        1.135  -0.648  -0.013  0.00  0.00    -0.180 NA
ATOM     29  O   LIG    1        3.452   1.976  -0.020  0.00  0.00    -0.530 OA
ATOM     30 CL   LIG    1        1.188   3.838   0.011  0.00  0.00    -0.020 Cl
ATOM     31  C   LIG    1        0.002  -0.004   0.002  0.00  0.00    +0.260 A 
ENDBRANCH  21  23
ENDBRANCH   2  18
TORSDOF 3
