REMARK  Name = ZINCrD00000F5Lsj.0
REMARK                            x       y       z     vdW  Elec       q    Type
REMARK                         _______ _______ _______ _____ _____    ______ ____
ROOT
ATOM      1  N   LIG    1        2.908   0.808  -1.402  0.00  0.00    -0.610 N 
ATOM      2  C   LIG    1        3.668   1.720  -2.040  0.00  0.00    +0.550 C 
ATOM      3  O   LIG    1        4.010   1.529  -3.188  0.00  0.00    -0.520 OA
ENDROOT
BRANCH   2   4
ATOM      4  C   LIG    1        4.092   2.979  -1.327  0.00  0.00    -0.080 C 
ATOM      5  C   LIG    1        4.952   3.976  -2.106  0.00  0.00    +0.090 C 
ATOM      6  C   LIG    1        3.486   4.300  -1.805  0.00  0.00    +0.180 C 
ATOM      7  F   LIG    1        2.581   4.247  -2.870  0.00  0.00    -0.170 F 
ENDBRANCH   2   4
BRANCH   1   8
ATOM      8  C   LIG    1        2.495   1.039  -0.016  0.00  0.00    +0.350 C 
BRANCH   8  13
ATOM      9  C   LIG    1       -2.581   3.706   0.047  0.00  0.00    +0.140 C 
ATOM     10  C   LIG    1       -1.235   3.028   0.030  0.00  0.00    +0.150 A 
ATOM     11  N   LIG    1       -1.168   1.712   0.017  0.00  0.00    -0.470 NA
ATOM     12  C   LIG    1       -0.013   1.076   0.008  0.00  0.00    +0.280 A 
ATOM     13  C   LIG    1        1.179   1.775   0.000  0.00  0.00    -0.160 A 
ATOM     14  C   LIG    1        1.150   3.161   0.008  0.00  0.00    +0.090 A 
ATOM     15  C   LIG    1       -0.083   3.795   0.023  0.00  0.00    -0.090 A 
ATOM     16 CL   LIG    1       -0.181   5.528   0.034  0.00  0.00    -0.050 Cl
ENDBRANCH   8  13
ENDBRANCH   1   8
BRANCH   1  17
ATOM     17  C   LIG    1        2.496  -0.415  -2.095  0.00  0.00    +0.320 C 
BRANCH  17  18
ATOM     18  C   LIG    1        1.161  -0.175  -2.803  0.00  0.00    +0.030 C 
BRANCH  18  19
ATOM     19  C   LIG    1        0.736  -1.433  -3.515  0.00  0.00    +0.520 C 
ATOM     20  N   LIG    1       -0.417  -1.457  -4.212  0.00  0.00    -0.610 N 
ATOM     21  C   LIG    1       -1.275  -0.266  -4.279  0.00  0.00    +0.260 C 
ATOM     22  C   LIG    1       -1.550   0.055  -5.757  0.00  0.00    +0.010 C 
ATOM     23  C   LIG    1       -2.136  -1.182  -6.441  0.00  0.00    +0.020 C 
ATOM     24  C   LIG    1       -1.126  -2.330  -6.377  0.00  0.00    -0.040 C 
ATOM     25  C   LIG    1       -1.700  -3.556  -7.090  0.00  0.00    +0.030 C 
ATOM     26  C   LIG    1       -0.845  -2.676  -4.912  0.00  0.00    +0.280 C 
ATOM     27  O   LIG    1        1.433  -2.424  -3.463  0.00  0.00    -0.540 OA
ENDBRANCH  18  19
ENDBRANCH  17  18
ENDBRANCH   1  17
TORSDOF 6
