REMARK  Name = ZINCrH00000tj12u.0
REMARK                            x       y       z     vdW  Elec       q    Type
REMARK                         _______ _______ _______ _____ _____    ______ ____
ROOT
ATOM      1  C   LIG    1       -1.685  -3.332   0.001  0.00  0.00    +0.140 C 
ENDROOT
BRANCH   1   8
ATOM      2  C   LIG    1        1.238   1.799  -0.000  0.00  0.00    +0.250 A 
ATOM      3  N   LIG    1       -0.017   1.397   0.010  0.00  0.00    -0.310 NA
ATOM      4  N   LIG    1        0.002  -0.004   0.002  0.00  0.00    -0.320 N 
ATOM      5  C   LIG    1        1.317  -0.374  -0.013  0.00  0.00    +0.460 A 
ATOM      6  N   LIG    1        1.653  -1.669  -0.022  0.00  0.00    -0.460 NA
ATOM      7  C   LIG    1        0.731  -2.606  -0.018  0.00  0.00    +0.250 A 
ATOM      8  C   LIG    1       -0.625  -2.260  -0.004  0.00  0.00    -0.190 A 
ATOM      9  C   LIG    1        1.135  -4.057  -0.029  0.00  0.00    +0.170 C 
ATOM     10  C   LIG    1       -0.975  -0.948   0.006  0.00  0.00    +0.210 A 
ATOM     11  C   LIG    1       -2.427  -0.544   0.022  0.00  0.00    +0.160 C 
ATOM     12  N   LIG    1        2.043   0.739  -0.013  0.00  0.00    -0.530 NA
BRANCH   2  14
ATOM     13  C   LIG    1        3.577   3.337  -0.015  0.00  0.00    +0.150 C 
ATOM     14  S   LIG    1        1.768   3.479   0.003  0.00  0.00    +0.030 S 
ENDBRANCH   2  14
ENDBRANCH   1   8
BRANCH   1  15
ATOM     15  C   LIG    1       -1.967  -3.777  -1.435  0.00  0.00    +0.060 C 
BRANCH  15  16
ATOM     16  C   LIG    1       -3.027  -4.848  -1.430  0.00  0.00    +0.520 C 
ATOM     17  N   LIG    1       -3.439  -5.394  -2.591  0.00  0.00    -0.610 N 
ATOM     18  C   LIG    1       -2.857  -4.945  -3.859  0.00  0.00    +0.270 C 
ATOM     19  O   LIG    1       -3.508  -5.220  -0.381  0.00  0.00    -0.530 OA
BRANCH  17  20
ATOM     20  C   LIG    1       -4.469  -6.436  -2.586  0.00  0.00    +0.340 C 
BRANCH  20  21
ATOM     21  C   LIG    1       -5.830  -5.797  -2.694  0.00  0.00    -0.100 A 
ATOM     22  C   LIG    1       -6.519  -5.442  -1.550  0.00  0.00    +0.050 A 
ATOM     23  C   LIG    1       -7.765  -4.851  -1.649  0.00  0.00    +0.020 A 
ATOM     24  C   LIG    1       -8.327  -4.626  -2.891  0.00  0.00    +0.020 A 
ATOM     25  C   LIG    1       -7.640  -4.987  -4.037  0.00  0.00    -0.040 A 
ATOM     26 CL   LIG    1       -8.345  -4.704  -5.598  0.00  0.00    -0.070 Cl
ATOM     27  C   LIG    1       -6.391  -5.573  -3.938  0.00  0.00    +0.030 A 
ENDBRANCH  20  21
ENDBRANCH  17  20
ENDBRANCH  15  16
ENDBRANCH   1  15
TORSDOF 6
