REMARK  Name = ZINCtV000002FLVX.0
REMARK                            x       y       z     vdW  Elec       q    Type
REMARK                         _______ _______ _______ _____ _____    ______ ____
ROOT
ATOM      1  C   LIG    1        6.023   1.631   0.341  0.00  0.00    +0.100 C 
ENDROOT
BRANCH   1   2
ATOM      2  C   LIG    1        7.350   0.926   0.463  0.00  0.00    +0.450 C 
ATOM      3  O   LIG    1        8.377   1.571   0.515  0.00  0.00    -0.450 OA
BRANCH   2   7
ATOM      4  C   LIG    1        5.977  -3.980   0.540  0.00  0.00    +0.150 C 
ATOM      5  C   LIG    1        6.774  -2.701   0.552  0.00  0.00    +0.040 A 
ATOM      6  C   LIG    1        6.260  -1.463   0.470  0.00  0.00    +0.020 A 
ATOM      7  C   LIG    1        7.400  -0.536   0.520  0.00  0.00    -0.240 A 
ATOM      8  C   LIG    1        8.528  -1.327   0.625  0.00  0.00    +0.130 A 
ATOM      9  C   LIG    1        9.950  -0.833   0.702  0.00  0.00    +0.160 C 
ATOM     10  N   LIG    1        8.136  -2.616   0.649  0.00  0.00    -0.360 N 
BRANCH  10  11
ATOM     11  C   LIG    1        8.996  -3.708   0.751  0.00  0.00    +0.220 A 
ATOM     12  N   LIG    1        8.944  -4.766   0.004  0.00  0.00    -0.460 NA
ATOM     13  C   LIG    1        9.841  -5.705   0.235  0.00  0.00    +0.240 A 
ATOM     14  C   LIG    1       10.686  -5.432   1.232  0.00  0.00    -0.060 A 
ATOM     15  S   LIG    1       10.269  -3.849   1.883  0.00  0.00    +0.190 S 
ENDBRANCH  10  11
ENDBRANCH   2   7
ENDBRANCH   1   2
BRANCH   1  16
ATOM     16  S   LIG    1        6.293   3.420   0.296  0.00  0.00    +0.140 S 
BRANCH  16  17
ATOM     17  C   LIG    1        4.627   3.977   0.155  0.00  0.00    +0.040 A 
ATOM     18  N   LIG    1        3.557   3.244   0.103  0.00  0.00    -0.260 NA
ATOM     19  N   LIG    1        2.336   3.871  -0.008  0.00  0.00    -0.300 N 
ATOM     20  C   LIG    1        2.348   5.216  -0.061  0.00  0.00    +0.220 A 
ATOM     21  S   LIG    1        1.006   6.269  -0.205  0.00  0.00    -0.400 S 
ATOM     22  S   LIG    1        4.063   5.655   0.053  0.00  0.00    +0.160 S 
BRANCH  19  23
ATOM     23  C   LIG    1        1.142   3.145  -0.069  0.00  0.00    +0.120 A 
ATOM     24  C   LIG    1        0.073   3.493   0.748  0.00  0.00    +0.090 A 
ATOM     25  C   LIG    1       -1.104   2.775   0.686  0.00  0.00    +0.050 A 
ATOM     26  C   LIG    1       -1.219   1.705  -0.184  0.00  0.00    -0.020 A 
ATOM     27  C   LIG    1       -0.158   1.359  -1.003  0.00  0.00    +0.050 A 
ATOM     28 CL   LIG    1       -2.699   0.800  -0.254  0.00  0.00    -0.050 Cl
ATOM     29  C   LIG    1        1.022   2.074  -0.945  0.00  0.00    +0.060 A 
ENDBRANCH  19  23
ENDBRANCH  16  17
ENDBRANCH   1  16
TORSDOF 6
