REMARK  Name = ZINCtV000002OiD9.0
REMARK                            x       y       z     vdW  Elec       q    Type
REMARK                         _______ _______ _______ _____ _____    ______ ____
ROOT
ATOM      1  O   LIG    1        2.627  -4.084   0.493  0.00  0.00    -0.480 OA
ATOM      2  C   LIG    1        1.609  -4.745   0.574  0.00  0.00    +0.560 C 
ATOM      3  N   LIG    1        0.407  -4.146   0.456  0.00  0.00    -0.670 N 
ATOM      4  H   LIG    1       -0.399  -4.684   0.400  0.00  0.00    +0.410 HD
ENDROOT
BRANCH   2   5
ATOM      5  C   LIG    1        1.690  -6.198   0.802  0.00  0.00    -0.140 A 
ATOM      6  C   LIG    1        0.523  -6.960   0.901  0.00  0.00    +0.070 A 
ATOM      7  C   LIG    1        0.605  -8.319   1.110  0.00  0.00    -0.010 A 
ATOM      8  C   LIG    1        1.840  -8.936   1.232  0.00  0.00    +0.070 A 
ATOM      9  C   LIG    1        3.002  -8.198   1.141  0.00  0.00    -0.020 A 
ATOM     10  C   LIG    1        2.940  -6.826   0.926  0.00  0.00    -0.040 A 
BRANCH  10  11
ATOM     11  S   LIG    1        4.422  -5.880   0.810  0.00  0.00    +0.030 S 
BRANCH  11  12
ATOM     12  C   LIG    1        5.721  -7.127   1.031  0.00  0.00    +0.000 C 
BRANCH  12  13
ATOM     13  C   LIG    1        7.093  -6.454   0.955  0.00  0.00    +0.190 C 
ATOM     14  C   LIG    1        8.205  -7.522   1.027  0.00  0.00    +0.020 C 
ATOM     15  C   LIG    1        9.273  -6.826   1.915  0.00  0.00    +0.010 C 
ATOM     16  C   LIG    1        8.370  -6.013   2.877  0.00  0.00    +0.200 C 
ATOM     17  O   LIG    1        7.264  -5.574   2.072  0.00  0.00    -0.370 OA
ENDBRANCH  12  13
ENDBRANCH  11  12
ENDBRANCH  10  11
ENDBRANCH   2   5
BRANCH   3  18
ATOM     18  C   LIG    1        0.321  -2.749   0.413  0.00  0.00    +0.150 A 
ATOM     19  C   LIG    1        1.402  -2.001  -0.035  0.00  0.00    +0.050 A 
ATOM     20  C   LIG    1        1.316  -0.623  -0.078  0.00  0.00    +0.020 A 
ATOM     21  C   LIG    1        0.151   0.013   0.327  0.00  0.00    +0.060 A 
ATOM     22  C   LIG    1       -0.926  -0.735   0.780  0.00  0.00    +0.040 A 
ATOM     23  C   LIG    1       -0.844  -2.112   0.818  0.00  0.00    -0.010 A 
BRANCH  21  24
ATOM     24  O   LIG    1        0.068   1.369   0.284  0.00  0.00    -0.260 OA
BRANCH  24  25
ATOM     25  C   LIG    1       -0.121   1.959  -0.925  0.00  0.00    +0.120 A 
ATOM     26  C   LIG    1       -0.396   1.183  -2.042  0.00  0.00    -0.060 A 
ATOM     27  C   LIG    1       -0.593   1.785  -3.269  0.00  0.00    +0.050 A 
ATOM     28  C   LIG    1       -0.504   3.160  -3.388  0.00  0.00    -0.030 A 
ATOM     29  C   LIG    1       -0.224   3.936  -2.278  0.00  0.00    +0.050 A 
ATOM     30  C   LIG    1       -0.032   3.338  -1.047  0.00  0.00    -0.020 A 
ENDBRANCH  24  25
ENDBRANCH  21  24
ENDBRANCH   3  18
TORSDOF 7
