REMARK  Name = ZINCqH0000001KeE.0
REMARK                            x       y       z     vdW  Elec       q    Type
REMARK                         _______ _______ _______ _____ _____    ______ ____
ROOT
ATOM      1  C   LIG    1        3.648   8.992   1.143  0.00  0.00    +0.570 C 
ATOM      2  N   LIG    1        2.505   8.285   1.232  0.00  0.00    -0.610 N 
ATOM      3  C   LIG    1        1.281   8.755   0.569  0.00  0.00    +0.290 C 
ATOM      4  C   LIG    1        0.153   8.819   1.603  0.00  0.00    +0.040 C 
ATOM      5  C   LIG    1        0.014   7.456   2.285  0.00  0.00    +0.190 C 
ATOM      6  C   LIG    1        1.317   7.113   3.012  0.00  0.00    +0.010 C 
ATOM      7  C   LIG    1        2.458   7.029   1.993  0.00  0.00    +0.290 C 
ATOM      8  O   LIG    1        4.630   8.642   1.770  0.00  0.00    -0.530 OA
ENDROOT
BRANCH   1  12
ATOM      9  C   LIG    1        3.826  12.444  -1.329  0.00  0.00    -0.040 A 
ATOM     10  C   LIG    1        3.277  11.270  -1.817  0.00  0.00    +0.000 A 
ATOM     11  C   LIG    1        3.222  10.145  -1.023  0.00  0.00    +0.060 A 
ATOM     12  C   LIG    1        3.710  10.191   0.285  0.00  0.00    -0.170 A 
ATOM     13  C   LIG    1        4.265  11.381   0.776  0.00  0.00    +0.160 A 
ATOM     14  C   LIG    1        4.318  12.501  -0.040  0.00  0.00    -0.010 A 
BRANCH   9  16
ATOM     15  C   LIG    1        4.719  13.356  -3.455  0.00  0.00    +0.030 C 
ATOM     16  C   LIG    1        3.886  13.665  -2.209  0.00  0.00    +0.020 C 
ATOM     17  C   LIG    1        2.469  14.062  -2.628  0.00  0.00    +0.030 C 
ENDBRANCH   9  16
BRANCH  13  18
ATOM     18  O   LIG    1        4.748  11.436   2.042  0.00  0.00    -0.490 OA
ATOM     19  H   LIG    1        5.683  11.202   2.117  0.00  0.00    +0.400 HD
ENDBRANCH  13  18
ENDBRANCH   1  12
BRANCH   5  20
ATOM     20  O   LIG    1       -1.059   7.503   3.228  0.00  0.00    -0.290 OA
BRANCH  20  21
ATOM     21  C   LIG    1       -1.731   6.346   3.455  0.00  0.00    +0.300 A 
ATOM     22  N   LIG    1       -1.377   5.246   2.812  0.00  0.00    -0.520 NA
ATOM     23  C   LIG    1       -2.004   4.100   3.002  0.00  0.00    +0.300 A 
ATOM     24  C   LIG    1       -3.059   4.008   3.887  0.00  0.00    -0.030 A 
ATOM     25  C   LIG    1       -3.466   5.140   4.580  0.00  0.00    +0.090 A 
ATOM     26  C   LIG    1       -2.786   6.327   4.362  0.00  0.00    +0.030 A 
ATOM     27  F   LIG    1       -3.144   7.453   5.018  0.00  0.00    -0.120 F 
ENDBRANCH  20  21
ENDBRANCH   5  20
TORSDOF 5
