REMARK  Name = ZINCvU0000000Jo0.0
REMARK                            x       y       z     vdW  Elec       q    Type
REMARK                         _______ _______ _______ _____ _____    ______ ____
ROOT
ATOM      1  C   LIG    1        1.677   7.131   4.109  0.00  0.00    +0.060 A 
ATOM      2  N   LIG    1        1.589   6.676   2.905  0.00  0.00    -0.450 NA
ATOM      3  C   LIG    1        0.412   6.751   2.318  0.00  0.00    +0.080 A 
ATOM      4  C   LIG    1       -0.547   7.304   3.068  0.00  0.00    -0.050 A 
ATOM      5  S   LIG    1        0.161   7.731   4.624  0.00  0.00    +0.160 S 
ENDROOT
BRANCH   1   6
ATOM      6  C   LIG    1        2.933   7.133   4.941  0.00  0.00    +0.190 C 
BRANCH   6   9
ATOM      7  N   LIG    1        4.850   8.642   5.353  0.00  0.00    -0.670 N 
ATOM      8  H   LIG    1        5.245   7.943   5.898  0.00  0.00    +0.410 HD
ATOM      9  C   LIG    1        3.687   8.417   4.709  0.00  0.00    +0.520 C 
ATOM     10  O   LIG    1        3.248   9.249   3.944  0.00  0.00    -0.500 OA
BRANCH   7  15
ATOM     11  C   LIG    1        7.435  13.669   4.872  0.00  0.00    +0.100 C 
ATOM     12  C   LIG    1        6.748  12.333   5.000  0.00  0.00    -0.100 A 
ATOM     13  C   LIG    1        5.367  12.265   5.003  0.00  0.00    +0.030 A 
ATOM     14  C   LIG    1        4.735  11.043   5.120  0.00  0.00    +0.020 A 
ATOM     15  C   LIG    1        5.487   9.881   5.234  0.00  0.00    +0.140 A 
ATOM     16  C   LIG    1        6.874   9.954   5.236  0.00  0.00    -0.010 A 
ATOM     17  C   LIG    1        7.501  11.178   5.112  0.00  0.00    +0.030 A 
ENDBRANCH   7  15
ENDBRANCH   6   9
ENDBRANCH   1   6
BRANCH   3  18
ATOM     18  C   LIG    1        0.167   6.260   0.915  0.00  0.00    +0.180 C 
BRANCH  18  19
ATOM     19  S   LIG    1       -0.334   4.521   0.964  0.00  0.00    +0.040 S 
BRANCH  19  20
ATOM     20  C   LIG    1       -0.547   4.216  -0.759  0.00  0.00    +0.160 A 
ATOM     21  N   LIG    1       -0.368   5.080  -1.731  0.00  0.00    -0.280 NA
ATOM     22  N   LIG    1       -0.611   4.527  -2.865  0.00  0.00    -0.260 NA
ATOM     23  C   LIG    1       -0.957   3.271  -2.688  0.00  0.00    +0.260 A 
ATOM     24  N   LIG    1       -0.931   3.035  -1.331  0.00  0.00    -0.430 N 
BRANCH  23  25
ATOM     25  C   LIG    1       -1.307   2.303  -3.739  0.00  0.00    -0.130 A 
ATOM     26  C   LIG    1       -1.603   2.614  -5.020  0.00  0.00    +0.070 A 
ATOM     27  C   LIG    1       -1.900   1.532  -5.821  0.00  0.00    +0.020 A 
ATOM     28  C   LIG    1       -1.851   0.344  -5.210  0.00  0.00    -0.030 A 
ATOM     29  S   LIG    1       -1.398   0.559  -3.525  0.00  0.00    +0.130 S 
ENDBRANCH  23  25
BRANCH  24  30
ATOM     30  C   LIG    1       -1.245   1.779  -0.645  0.00  0.00    +0.190 C 
ATOM     31  C   LIG    1       -0.117   1.098   0.133  0.00  0.00    +0.070 C 
ATOM     32  C   LIG    1       -1.254   1.792   0.885  0.00  0.00    +0.090 C 
ENDBRANCH  24  30
ENDBRANCH  19  20
ENDBRANCH  18  19
ENDBRANCH   3  18
TORSDOF 8
