REMARK  Name = ZINCrH000004osr4.0
REMARK                            x       y       z     vdW  Elec       q    Type
REMARK                         _______ _______ _______ _____ _____    ______ ____
ROOT
ATOM      1  C   LIG    1        4.198  -1.006   1.635  0.00  0.00    +0.100 C 
ATOM      2  C   LIG    1        3.742  -0.969   0.175  0.00  0.00    +0.020 C 
ENDROOT
BRANCH   2   3
ATOM      3  C   LIG    1        2.425  -0.242   0.078  0.00  0.00    +0.550 C 
ATOM      4  N   LIG    1        2.403   1.102  -0.015  0.00  0.00    -0.660 N 
ATOM      5  H   LIG    1        3.233   1.596  -0.102  0.00  0.00    +0.420 HD
ATOM      6  O   LIG    1        1.386  -0.867   0.085  0.00  0.00    -0.490 OA
BRANCH   4   7
ATOM      7  C   LIG    1        1.180   1.787   0.012  0.00  0.00    +0.140 A 
ATOM      8  C   LIG    1        0.077   1.213   0.627  0.00  0.00    +0.080 A 
ATOM      9  C   LIG    1       -1.131   1.885   0.648  0.00  0.00    +0.050 A 
ATOM     10  C   LIG    1       -1.238   3.136   0.066  0.00  0.00    +0.080 A 
ATOM     11  C   LIG    1       -0.138   3.714  -0.550  0.00  0.00    +0.060 A 
ATOM     12  F   LIG    1       -0.246   4.933  -1.122  0.00  0.00    -0.110 F 
ATOM     13  F   LIG    1       -2.418   3.793   0.092  0.00  0.00    -0.120 F 
ATOM     14  C   LIG    1        1.071   3.041  -0.578  0.00  0.00    +0.070 A 
ATOM     15  F   LIG    1        2.144   3.602  -1.177  0.00  0.00    -0.120 F 
ENDBRANCH   4   7
ENDBRANCH   2   3
BRANCH   2  16
ATOM     16  S   LIG    1        3.543  -2.664  -0.440  0.00  0.00    +0.080 S 
BRANCH  16  17
ATOM     17  C   LIG    1        5.186  -3.298  -0.391  0.00  0.00    +0.200 A 
ATOM     18  N   LIG    1        6.252  -2.647   0.007  0.00  0.00    -0.280 NA
ATOM     19  N   LIG    1        7.353  -3.506  -0.109  0.00  0.00    -0.320 NA
ATOM     20  C   LIG    1        6.924  -4.657  -0.574  0.00  0.00    +0.440 A 
ATOM     21  N   LIG    1        7.330  -5.927  -0.944  0.00  0.00    -0.600 N 
ATOM     22  H   LIG    1        8.238  -6.266  -0.913  0.00  0.00    +0.450 HD
ATOM     23  C   LIG    1        6.206  -6.637  -1.356  0.00  0.00    +0.140 A 
ATOM     24  C   LIG    1        6.029  -7.933  -1.821  0.00  0.00    +0.020 A 
ATOM     25  C   LIG    1        4.768  -8.372  -2.172  0.00  0.00    +0.060 A 
ATOM     26  C   LIG    1        3.679  -7.525  -2.061  0.00  0.00    +0.020 A 
ATOM     27  C   LIG    1        3.845  -6.234  -1.599  0.00  0.00    +0.070 A 
ATOM     28  C   LIG    1        5.108  -5.783  -1.244  0.00  0.00    +0.060 A 
ATOM     29  N   LIG    1        5.573  -4.560  -0.755  0.00  0.00    -0.440 N 
ENDBRANCH  16  17
ENDBRANCH   2  16
TORSDOF 4
