REMARK  Name = ZINCkj000005g5MY.0
REMARK                            x       y       z     vdW  Elec       q    Type
REMARK                         _______ _______ _______ _____ _____    ______ ____
ROOT
ATOM      1  C   LIG    1        0.582  -2.141  -1.037  0.00  0.00    -0.140 A 
ATOM      2  C   LIG    1       -0.447  -2.862  -0.426  0.00  0.00    +0.060 A 
ATOM      3  C   LIG    1       -0.420  -4.239  -0.437  0.00  0.00    +0.010 A 
ATOM      4  C   LIG    1        0.635  -4.911  -1.045  0.00  0.00    +0.150 A 
ATOM      5  C   LIG    1        1.664  -4.196  -1.649  0.00  0.00    +0.000 A 
ATOM      6  C   LIG    1        1.641  -2.819  -1.647  0.00  0.00    +0.110 A 
ENDROOT
BRANCH   1   9
ATOM      7  N   LIG    1       -0.468  -0.012  -0.444  0.00  0.00    -0.730 N 
ATOM      8  H   LIG    1       -1.184  -0.512  -0.023  0.00  0.00    +0.400 HD
ATOM      9  C   LIG    1        0.554  -0.665  -1.033  0.00  0.00    +0.550 C 
ATOM     10  O   LIG    1        1.452  -0.038  -1.561  0.00  0.00    -0.530 OA
BRANCH   7  12
ATOM     11  C   LIG    1       -1.752   1.937   0.287  0.00  0.00    +0.030 C 
ATOM     12  C   LIG    1       -0.495   1.453  -0.440  0.00  0.00    +0.250 C 
ENDBRANCH   7  12
ENDBRANCH   1   9
BRANCH   4  13
ATOM     13  N   LIG    1        0.661  -6.305  -1.049  0.00  0.00    -0.660 N 
ATOM     14  H   LIG    1        1.020  -6.781  -1.814  0.00  0.00    +0.420 HD
ATOM     15  C   LIG    1        0.187  -6.992   0.009  0.00  0.00    +0.520 C 
ATOM     16  O   LIG    1       -0.338  -6.401   0.929  0.00  0.00    -0.510 OA
BRANCH  15  17
ATOM     17  C   LIG    1        0.309  -8.493   0.050  0.00  0.00    -0.100 C 
ATOM     18  C   LIG    1       -0.522  -9.130  -1.087  0.00  0.00    +0.090 C 
ATOM     19  C   LIG    1       -1.129 -10.385  -0.411  0.00  0.00    +0.280 C 
ATOM     20  N   LIG    1       -1.432  -9.916   0.966  0.00  0.00    -0.520 N 
ATOM     21  H   LIG    1       -2.294  -9.392   0.974  0.00  0.00    +0.430 HD
ATOM     22  H   LIG    1       -1.495 -10.703   1.595  0.00  0.00    +0.440 HD
ATOM     23  C   LIG    1        1.777  -8.909  -0.065  0.00  0.00    +0.090 C 
ATOM     24  C   LIG    1       -0.301  -9.044   1.352  0.00  0.00    +0.300 C 
ENDBRANCH  15  17
ENDBRANCH   4  13
TORSDOF 4
