REMARK  Name = ZINCpe000000ZHi8.0
REMARK                            x       y       z     vdW  Elec       q    Type
REMARK                         _______ _______ _______ _____ _____    ______ ____
ROOT
ATOM      1  C   LIG    1        1.248   1.716  -0.001  0.00  0.00    +0.300 C 
ENDROOT
BRANCH   1   2
ATOM      2  N   LIG    1       -0.011   0.966   0.007  0.00  0.00    -0.690 N 
ATOM      3  H   LIG    1        0.002  -0.004   0.002  0.00  0.00    +0.420 HD
BRANCH   2   4
ATOM      4  C   LIG    1       -1.218   1.641   0.017  0.00  0.00    +0.510 A 
ATOM      5  N   LIG    1       -1.384   2.946   0.030  0.00  0.00    -0.370 NA
ATOM      6  N   LIG    1       -2.634   3.241   0.032  0.00  0.00    -0.010 NA
ATOM      7  N   LIG    1       -3.349   2.168   0.030  0.00  0.00    -0.090 NA
ATOM      8  N   LIG    1       -2.454   1.083   0.020  0.00  0.00    -0.370 N 
BRANCH   8   9
ATOM      9  C   LIG    1       -2.772  -0.283   0.013  0.00  0.00    +0.140 A 
ATOM     10  C   LIG    1       -1.978  -1.179  -0.690  0.00  0.00    -0.010 A 
ATOM     11  C   LIG    1       -2.290  -2.524  -0.689  0.00  0.00    +0.050 A 
ATOM     12  C   LIG    1       -3.399  -2.978   0.000  0.00  0.00    +0.030 A 
ATOM     13  C   LIG    1       -4.195  -2.087   0.697  0.00  0.00    +0.050 A 
ATOM     14  C   LIG    1       -3.885  -0.741   0.705  0.00  0.00    +0.040 A 
ENDBRANCH   8   9
ENDBRANCH   2   4
ENDBRANCH   1   2
BRANCH   1  15
ATOM     15  C   LIG    1        2.424   0.737  -0.017  0.00  0.00    +0.010 C 
BRANCH  15  16
ATOM     16  C   LIG    1        3.738   1.520  -0.025  0.00  0.00    +0.370 C 
BRANCH  16  19
ATOM     17  O   LIG    1        5.156   0.288  -2.297  0.00  0.00    -0.550 OA
ATOM     18  C   LIG    1        5.466   0.073  -1.138  0.00  0.00    +0.650 A 
ATOM     19  N   LIG    1        4.864   0.583  -0.041  0.00  0.00    -0.450 N 
ATOM     20  N   LIG    1        5.514   0.045   1.080  0.00  0.00    -0.280 NA
ATOM     21  C   LIG    1        6.458  -0.727   0.664  0.00  0.00    +0.280 A 
ATOM     22  C   LIG    1        7.416  -1.541   1.503  0.00  0.00    +0.170 C 
ATOM     23  C   LIG    1        8.608  -1.931   0.619  0.00  0.00    +0.040 C 
ATOM     24  C   LIG    1        8.084  -2.539  -0.686  0.00  0.00    +0.040 C 
ATOM     25  C   LIG    1        7.444  -1.437  -1.539  0.00  0.00    +0.300 C 
ATOM     26  N   LIG    1        6.470  -0.713  -0.716  0.00  0.00    -0.560 N 
ENDBRANCH  16  19
ENDBRANCH  15  16
ENDBRANCH   1  15
TORSDOF 6
