REMARK  Name = ZINCrD00000hQ6a2.0
REMARK                            x       y       z     vdW  Elec       q    Type
REMARK                         _______ _______ _______ _____ _____    ______ ____
ROOT
ATOM      1  C   LIG    1       -1.598   0.922   2.246  0.00  0.00    +0.260 C 
ATOM      2  C   LIG    1       -1.972   1.783   3.469  0.00  0.00    +0.100 C 
ATOM      3  C   LIG    1       -1.264   3.096   3.219  0.00  0.00    +0.140 C 
ATOM      4  N   LIG    1       -0.614   3.031   2.109  0.00  0.00    -0.200 NA
ATOM      5  N   LIG    1       -0.731   1.808   1.452  0.00  0.00    -0.850 N 
ENDROOT
BRANCH   1   9
ATOM      6  C   LIG    1        0.537  -2.569   3.470  0.00  0.00    -0.070 A 
ATOM      7  C   LIG    1       -0.787  -2.668   3.087  0.00  0.00    +0.010 A 
ATOM      8  C   LIG    1       -1.478  -1.538   2.691  0.00  0.00    +0.030 A 
ATOM      9  C   LIG    1       -0.845  -0.309   2.678  0.00  0.00    -0.100 A 
ATOM     10  C   LIG    1        0.481  -0.212   3.055  0.00  0.00    +0.020 A 
ATOM     11  C   LIG    1        1.171  -1.341   3.456  0.00  0.00    +0.010 A 
BRANCH   6  13
ATOM     12  C   LIG    1        1.956  -4.446   2.686  0.00  0.00    +0.030 C 
ATOM     13  C   LIG    1        1.290  -3.801   3.903  0.00  0.00    +0.050 C 
ENDBRANCH   6  13
ENDBRANCH   1   9
BRANCH   3  14
ATOM     14  C   LIG    1       -1.310   4.271   4.110  0.00  0.00    +0.040 A 
ATOM     15  C   LIG    1       -2.057   4.226   5.290  0.00  0.00    -0.020 A 
ATOM     16  C   LIG    1       -2.093   5.329   6.126  0.00  0.00    +0.170 A 
ATOM     17  C   LIG    1       -1.398   6.482   5.787  0.00  0.00    -0.140 A 
ATOM     18  C   LIG    1       -0.660   6.533   4.614  0.00  0.00    +0.170 A 
ATOM     19  C   LIG    1       -0.614   5.433   3.774  0.00  0.00    +0.000 A 
BRANCH  18  20
ATOM     20  O   LIG    1        0.018   7.665   4.287  0.00  0.00    -0.310 OA
ATOM     21  C   LIG    1       -0.074   8.762   5.198  0.00  0.00    +0.250 C 
ENDBRANCH  18  20
BRANCH  16  22
ATOM     22  O   LIG    1       -2.815   5.285   7.276  0.00  0.00    -0.310 OA
ATOM     23  C   LIG    1       -2.813   6.461   8.089  0.00  0.00    +0.250 C 
ENDBRANCH  16  22
ENDBRANCH   3  14
BRANCH   5  24
ATOM     24  S   LIG    1       -0.017   1.417   0.010  0.00  0.00    +2.620 S 
ATOM     25  O   LIG    1        1.190   2.166   0.002  0.00  0.00    -0.930 OA
ATOM     26  O   LIG    1        0.002  -0.004   0.002  0.00  0.00    -0.920 OA
ATOM     27  C   LIG    1       -1.164   2.045  -1.248  0.00  0.00    -0.280 C 
ENDBRANCH   5  24
TORSDOF 6
