REMARK  Name = ZINCAx0000000e2G.1
REMARK                            x       y       z     vdW  Elec       q    Type
REMARK                         _______ _______ _______ _____ _____    ______ ____
ROOT
ATOM      1  C   LIG    1        8.204   4.306  -0.081  0.00  0.00    -0.140 A 
ATOM      2  C   LIG    1        7.776   5.629  -0.204  0.00  0.00    +0.130 A 
ATOM      3  C   LIG    1        8.703   6.645  -0.297  0.00  0.00    +0.030 A 
ATOM      4  C   LIG    1       10.057   6.355  -0.267  0.00  0.00    +0.080 A 
ATOM      5  C   LIG    1       10.488   5.044  -0.144  0.00  0.00    -0.690 A 
ATOM      6 CL   LIG    1       11.219   7.640  -0.384  0.00  0.00    -0.020 Cl
ATOM      7  C   LIG    1        9.570   4.020  -0.046  0.00  0.00    +0.220 A 
ENDROOT
BRANCH   1   9
ATOM      8  O   LIG    1        7.590   2.061   0.126  0.00  0.00    -0.520 OA
ATOM      9  C   LIG    1        7.215   3.212   0.018  0.00  0.00    +0.560 C 
ATOM     10  N   LIG    1        5.896   3.491  -0.010  0.00  0.00    -0.500 N 
ATOM     11  H   LIG    1        5.597   4.410  -0.096  0.00  0.00    +0.430 HD
BRANCH  10  12
ATOM     12  N   LIG    1        4.959   2.454   0.084  0.00  0.00    -0.490 N 
ATOM     13  H   LIG    1        5.258   1.536   0.170  0.00  0.00    +0.450 HD
BRANCH  12  14
ATOM     14  C   LIG    1        3.596   2.743   0.055  0.00  0.00    +0.510 A 
ATOM     15  N   LIG    1        2.628   1.852   0.135  0.00  0.00    -0.370 NA
ATOM     16  N   LIG    1        1.416   2.554   0.068  0.00  0.00    -0.280 N 
ATOM     17  C   LIG    1        0.115   2.165   0.102  0.00  0.00    +0.300 A 
ATOM     18  C   LIG    1       -0.879   3.078   0.015  0.00  0.00    +0.000 A 
ATOM     19  C   LIG    1       -0.576   4.441  -0.111  0.00  0.00    +0.100 A 
ATOM     20  C   LIG    1        0.726   4.840  -0.145  0.00  0.00    +0.040 A 
ATOM     21  C   LIG    1        1.744   3.875  -0.054  0.00  0.00    +0.310 A 
ATOM     22  N   LIG    1        3.071   3.959  -0.059  0.00  0.00    -0.590 NA
ENDBRANCH  12  14
ENDBRANCH  10  12
ENDBRANCH   1   9
BRANCH   5  23
ATOM     23  S   LIG    1       12.213   4.686  -0.107  0.00  0.00    +2.690 S 
ATOM     24  O   LIG    1       12.327   3.271  -0.034  0.00  0.00    -0.930 OA
ATOM     25  O   LIG    1       12.784   5.562   0.855  0.00  0.00    -0.930 OA
BRANCH  23  26
ATOM     26  N   LIG    1       12.838   5.130  -1.575  0.00  0.00    -1.040 N 
ATOM     27  H   LIG    1       13.457   5.875  -1.633  0.00  0.00    +0.430 HD
BRANCH  26  28
ATOM     28  C   LIG    1       12.473   4.431  -2.732  0.00  0.00    +0.200 A 
ATOM     29  C   LIG    1       11.209   3.873  -2.837  0.00  0.00    -0.040 A 
ATOM     30  C   LIG    1       10.851   3.183  -3.981  0.00  0.00    +0.050 A 
ATOM     31  C   LIG    1       11.751   3.046  -5.021  0.00  0.00    +0.000 A 
ATOM     32  C   LIG    1       13.015   3.600  -4.924  0.00  0.00    +0.020 A 
ATOM     33  C   LIG    1       13.380   4.298  -3.784  0.00  0.00    +0.060 A 
BRANCH  33  34
ATOM     34  N   LIG    1       14.657   4.865  -3.686  0.00  0.00    -0.500 N 
ATOM     35  C   LIG    1       14.849   5.910  -4.702  0.00  0.00    +0.160 C 
ATOM     36  C   LIG    1       16.231   6.542  -4.521  0.00  0.00    +0.220 C 
ATOM     37  O   LIG    1       17.230   5.521  -4.599  0.00  0.00    -0.380 OA
ATOM     38  C   LIG    1       17.074   4.487  -3.624  0.00  0.00    +0.220 C 
ATOM     39  C   LIG    1       15.700   3.834  -3.796  0.00  0.00    +0.160 C 
ENDBRANCH  33  34
ENDBRANCH  26  28
ENDBRANCH  23  26
ENDBRANCH   5  23
TORSDOF 7
