REMARK  Name = ZINCAx0000000fHg.0
REMARK                            x       y       z     vdW  Elec       q    Type
REMARK                         _______ _______ _______ _____ _____    ______ ____
ROOT
ATOM      1  N   LIG    1        2.500   3.692  -0.033  0.00  0.00    -0.520 N 
ATOM      2  C   LIG    1        2.546   5.034   0.084  0.00  0.00    +0.560 C 
ATOM      3  O   LIG    1        1.513   5.676   0.144  0.00  0.00    -0.510 OA
ENDROOT
BRANCH   1   5
ATOM      4  C   LIG    1        0.776   2.195   0.781  0.00  0.00    +0.490 A 
ATOM      5  C   LIG    1        1.260   3.041  -0.197  0.00  0.00    -0.140 A 
ATOM      6  C   LIG    1        0.494   3.242  -1.361  0.00  0.00    +0.570 A 
ATOM      7  N   LIG    1       -0.688   2.610  -1.496  0.00  0.00    -0.660 N 
ATOM      8  H   LIG    1       -1.216   2.748  -2.298  0.00  0.00    +0.430 HD
ATOM      9  C   LIG    1       -1.146   1.794  -0.530  0.00  0.00    +0.710 A 
ATOM     10  O   LIG    1       -2.219   1.239  -0.676  0.00  0.00    -0.530 OA
ATOM     11  O   LIG    1        0.898   3.983  -2.241  0.00  0.00    -0.510 OA
ATOM     12  N   LIG    1       -0.437   1.575   0.592  0.00  0.00    -0.530 N 
BRANCH   4  13
ATOM     13  N   LIG    1        1.498   1.976   1.930  0.00  0.00    -0.830 N 
ATOM     14  H   LIG    1        1.143   1.397   2.623  0.00  0.00    +0.410 HD
ATOM     15  H   LIG    1        2.362   2.401   2.049  0.00  0.00    +0.420 HD
ENDBRANCH   4  13
BRANCH  12  16
ATOM     16  C   LIG    1       -0.963   0.675   1.621  0.00  0.00    +0.370 C 
BRANCH  16  17
ATOM     17  C   LIG    1       -1.800   1.461   2.596  0.00  0.00    -0.130 A 
ATOM     18  C   LIG    1       -1.215   2.019   3.718  0.00  0.00    +0.020 A 
ATOM     19  C   LIG    1       -1.982   2.744   4.610  0.00  0.00    +0.010 A 
ATOM     20  C   LIG    1       -3.337   2.904   4.385  0.00  0.00    +0.030 A 
ATOM     21  C   LIG    1       -3.923   2.343   3.267  0.00  0.00    +0.010 A 
ATOM     22  C   LIG    1       -3.155   1.621   2.372  0.00  0.00    +0.040 A 
ENDBRANCH  16  17
ENDBRANCH  12  16
ENDBRANCH   1   5
BRANCH   2  23
ATOM     23  C   LIG    1        3.837   5.719   0.139  0.00  0.00    -0.080 C 
ATOM     24  C   LIG    1        3.883   7.063   0.256  0.00  0.00    +0.130 C 
BRANCH  24  25
ATOM     25  C   LIG    1        5.181   7.752   0.311  0.00  0.00    -0.070 A 
ATOM     26  C   LIG    1        6.369   7.017   0.242  0.00  0.00    +0.050 A 
ATOM     27  C   LIG    1        7.583   7.665   0.293  0.00  0.00    +0.040 A 
ATOM     28  C   LIG    1        7.634   9.047   0.414  0.00  0.00    +0.050 A 
ATOM     29  O   LIG    1        8.690   9.908   0.484  0.00  0.00    -0.310 OA
ATOM     30  C   LIG    1        8.152  11.136   1.009  0.00  0.00    +0.440 C 
ATOM     31  O   LIG    1        6.773  11.110   0.597  0.00  0.00    -0.310 OA
ATOM     32  C   LIG    1        6.452   9.788   0.483  0.00  0.00    +0.030 A 
ATOM     33  C   LIG    1        5.231   9.146   0.426  0.00  0.00    +0.070 A 
ENDBRANCH  24  25
ENDBRANCH   2  23
BRANCH   1  34
ATOM     34  C   LIG    1        3.738   2.910   0.011  0.00  0.00    +0.390 C 
BRANCH  34  35
ATOM     35  C   LIG    1        4.242   2.687  -1.392  0.00  0.00    -0.040 A 
ATOM     36  C   LIG    1        5.085   3.493  -2.062  0.00  0.00    -0.040 A 
ATOM     37  C   LIG    1        5.287   2.908  -3.333  0.00  0.00    -0.060 A 
ATOM     38  C   LIG    1        4.556   1.780  -3.363  0.00  0.00    +0.170 A 
ATOM     39  O   LIG    1        3.929   1.648  -2.183  0.00  0.00    -0.170 OA
ENDBRANCH  34  35
ENDBRANCH   1  34
TORSDOF 8
