REMARK  Name = ZINCrH000004puFN.1
REMARK                            x       y       z     vdW  Elec       q    Type
REMARK                         _______ _______ _______ _____ _____    ______ ____
ROOT
ATOM      1  C   LIG    1        0.972  -5.983  -2.475  0.00  0.00    +0.060 C 
ATOM      2  C   LIG    1        1.318  -6.097  -0.990  0.00  0.00    +0.150 C 
ENDROOT
BRANCH   2   3
ATOM      3  C   LIG    1        2.651  -6.783  -0.836  0.00  0.00    +0.520 C 
ATOM      4  N   LIG    1        2.824  -8.033  -1.307  0.00  0.00    -0.660 N 
ATOM      5  H   LIG    1        2.074  -8.516  -1.688  0.00  0.00    +0.410 HD
ATOM      6  O   LIG    1        3.568  -6.209  -0.287  0.00  0.00    -0.510 OA
BRANCH   4   7
ATOM      7  C   LIG    1        4.088  -8.636  -1.249  0.00  0.00    +0.130 A 
ATOM      8  C   LIG    1        4.934  -8.374  -0.181  0.00  0.00    +0.060 A 
ATOM      9  C   LIG    1        6.180  -8.970  -0.125  0.00  0.00    +0.010 A 
ATOM     10  C   LIG    1        6.587  -9.825  -1.131  0.00  0.00    +0.040 A 
ATOM     11  C   LIG    1        5.749 -10.090  -2.199  0.00  0.00    -0.030 A 
ATOM     12  C   LIG    1        4.497  -9.503  -2.260  0.00  0.00    +0.080 A 
BRANCH  12  13
ATOM     13  O   LIG    1        3.669  -9.767  -3.306  0.00  0.00    -0.320 OA
BRANCH  13  14
ATOM     14  C   LIG    1        4.154 -10.666  -4.306  0.00  0.00    +0.590 C 
ATOM     15  F   LIG    1        4.431 -11.907  -3.722  0.00  0.00    -0.200 F 
ATOM     16  F   LIG    1        5.323 -10.146  -4.872  0.00  0.00    -0.200 F 
ENDBRANCH  13  14
ENDBRANCH  12  13
ENDBRANCH   4   7
ENDBRANCH   2   3
BRANCH   2  17
ATOM     17  N   LIG    1        1.387  -4.754  -0.398  0.00  0.00    -0.660 NA
ATOM     18  H   LIG    1        2.032  -4.733   0.378  0.00  0.00    +0.360 HD
BRANCH  17  19
ATOM     19  C   LIG    1        0.054  -4.291   0.013  0.00  0.00    +0.210 C 
ATOM     20  C   LIG    1       -0.260  -4.821   1.413  0.00  0.00    +0.010 C 
BRANCH  19  21
ATOM     21  C   LIG    1        0.029  -2.784   0.028  0.00  0.00    -0.030 A 
ATOM     22  C   LIG    1       -1.085  -2.107  -0.432  0.00  0.00    +0.000 A 
ATOM     23  C   LIG    1       -1.109  -0.725  -0.418  0.00  0.00    +0.100 A 
ATOM     24  C   LIG    1       -0.018  -0.020   0.056  0.00  0.00    -0.460 A 
ATOM     25  C   LIG    1        1.098  -0.697   0.511  0.00  0.00    +0.080 A 
ATOM     26  C   LIG    1        1.119  -2.079   0.502  0.00  0.00    +0.010 A 
BRANCH  24  27
ATOM     27  S   LIG    1       -0.049   1.741   0.074  0.00  0.00    +1.330 S 
ATOM     28  O   LIG    1        1.330   2.085   0.056  0.00  0.00    -0.860 OA
ATOM     29  C   LIG    1       -0.745   2.121   1.706  0.00  0.00    -0.200 C 
ENDBRANCH  24  27
ENDBRANCH  19  21
ENDBRANCH  17  19
ENDBRANCH   2  17
TORSDOF 8
