REMARK  Name = ZINCpk00000eaVvc.0
REMARK                            x       y       z     vdW  Elec       q    Type
REMARK                         _______ _______ _______ _____ _____    ______ ____
ROOT
ATOM      1  C   LIG    1        0.002  -0.004   0.002  0.00  0.00    +0.570 C 
ATOM      2  O   LIG    1        1.062  -0.597  -0.011  0.00  0.00    -0.470 OA
ENDROOT
BRANCH   1  10
ATOM      3  C   LIG    1       -2.719  -4.869   0.004  0.00  0.00    +0.180 C 
ATOM      4  C   LIG    1       -3.441  -3.547   0.016  0.00  0.00    +0.200 A 
ATOM      5  C   LIG    1       -4.797  -3.504   0.029  0.00  0.00    -0.030 A 
ATOM      6  C   LIG    1       -5.443  -2.260   0.042  0.00  0.00    +0.240 A 
ATOM      7  N   LIG    1       -4.744  -1.149   0.041  0.00  0.00    -0.450 NA
ATOM      8  C   LIG    1       -3.405  -1.179   0.028  0.00  0.00    +0.450 A 
ATOM      9  N   LIG    1       -2.490  -0.221   0.024  0.00  0.00    -0.480 NA
ATOM     10  C   LIG    1       -1.270  -0.762   0.010  0.00  0.00    +0.250 A 
ATOM     11  N   LIG    1       -1.374  -2.078  -0.001  0.00  0.00    -0.260 NA
ATOM     12  C   LIG    1       -6.949  -2.197   0.056  0.00  0.00    +0.180 C 
ATOM     13  N   LIG    1       -2.743  -2.378   0.016  0.00  0.00    -0.330 N 
ENDBRANCH   1  10
BRANCH   1  14
ATOM     14  O   LIG    1       -0.016   1.343   0.009  0.00  0.00    -0.300 OA
BRANCH  14  15
ATOM     15  C   LIG    1        1.268   2.019   0.001  0.00  0.00    +0.270 C 
BRANCH  15  16
ATOM     16  C   LIG    1        1.051   3.510   0.011  0.00  0.00    +0.520 C 
ATOM     17  N   LIG    1        2.108   4.346   0.005  0.00  0.00    -0.610 N 
ATOM     18  C   LIG    1        3.479   3.818  -0.004  0.00  0.00    +0.270 C 
ATOM     19  C   LIG    1        4.238   4.450  -1.181  0.00  0.00    -0.030 C 
ATOM     20  C   LIG    1        4.153   5.975  -1.076  0.00  0.00    +0.030 C 
ATOM     21  C   LIG    1        2.688   6.412  -1.156  0.00  0.00    -0.020 C 
ATOM     22  C   LIG    1        2.083   5.930  -2.476  0.00  0.00    +0.030 C 
ATOM     23  C   LIG    1        5.705   4.016  -1.134  0.00  0.00    +0.030 C 
ATOM     24  C   LIG    1        1.912   5.802   0.015  0.00  0.00    +0.290 C 
ATOM     25  O   LIG    1       -0.076   3.959   0.024  0.00  0.00    -0.510 OA
ENDBRANCH  15  16
ENDBRANCH  14  15
ENDBRANCH   1  14
TORSDOF 4
