REMARK  Name = ZINCqH0000037Kqa.1
REMARK                            x       y       z     vdW  Elec       q    Type
REMARK                         _______ _______ _______ _____ _____    ______ ____
ROOT
ATOM      1  N   LIG    1       -1.590   4.072   4.729  0.00  0.00    -0.690 N 
ATOM      2  H   LIG    1       -2.489   3.711   4.694  0.00  0.00    +0.400 HD
ATOM      3  C   LIG    1       -0.977   4.464   3.594  0.00  0.00    +0.700 C 
ATOM      4  N   LIG    1       -1.585   4.287   2.404  0.00  0.00    -0.740 N 
ATOM      5  H   LIG    1       -2.464   3.877   2.365  0.00  0.00    +0.400 HD
ATOM      6  O   LIG    1        0.124   4.977   3.643  0.00  0.00    -0.570 OA
ENDROOT
BRANCH   1  11
ATOM      7  C   LIG    1        1.091   4.540   9.707  0.00  0.00    +0.100 C 
ATOM      8  C   LIG    1        0.379   4.416   8.384  0.00  0.00    -0.080 A 
ATOM      9  C   LIG    1       -0.892   4.941   8.233  0.00  0.00    +0.000 A 
ATOM     10  C   LIG    1       -1.547   4.829   7.022  0.00  0.00    -0.090 A 
ATOM     11  C   LIG    1       -0.929   4.188   5.956  0.00  0.00    +0.150 A 
ATOM     12  C   LIG    1        0.345   3.657   6.113  0.00  0.00    -0.070 A 
ATOM     13  C   LIG    1        1.017   2.956   4.961  0.00  0.00    +0.090 C 
ATOM     14  C   LIG    1       -2.931   5.402   6.857  0.00  0.00    +0.090 C 
ATOM     15  C   LIG    1        0.997   3.777   7.325  0.00  0.00    +0.010 A 
ENDBRANCH   1  11
BRANCH   4  16
ATOM     16  C   LIG    1       -0.919   4.712   1.170  0.00  0.00    +0.250 C 
ATOM     17  C   LIG    1        0.015   3.601   0.684  0.00  0.00    +0.020 C 
ATOM     18  C   LIG    1        0.661   4.027  -0.636  0.00  0.00    +0.180 C 
ATOM     19  N   LIG    1       -0.385   4.283  -1.635  0.00  0.00    -0.530 NA
ATOM     20  C   LIG    1       -1.266   5.378  -1.211  0.00  0.00    +0.170 C 
ATOM     21  C   LIG    1       -1.970   4.993   0.092  0.00  0.00    +0.030 C 
BRANCH  19  22
ATOM     22  C   LIG    1        0.202   4.559  -2.953  0.00  0.00    +0.230 C 
BRANCH  22  23
ATOM     23  C   LIG    1       -0.887   4.573  -3.994  0.00  0.00    -0.030 A 
ATOM     24  C   LIG    1       -1.243   3.413  -4.665  0.00  0.00    -0.010 A 
ATOM     25  C   LIG    1       -2.250   3.464  -5.611  0.00  0.00    +0.260 A 
ATOM     26  N   LIG    1       -2.863   4.599  -5.883  0.00  0.00    -0.490 NA
ATOM     27  C   LIG    1       -2.547   5.722  -5.269  0.00  0.00    +0.260 A 
ATOM     28  C   LIG    1       -1.554   5.748  -4.308  0.00  0.00    -0.040 A 
ENDBRANCH  22  23
ENDBRANCH  19  22
ENDBRANCH   4  16
TORSDOF 4
