REMARK  Name = ZINCpk00000xI6qq.0
REMARK                            x       y       z     vdW  Elec       q    Type
REMARK                         _______ _______ _______ _____ _____    ______ ____
ROOT
ATOM      1  C   LIG    1        1.081   1.599  -0.000  0.00  0.00    +0.600 C 
ATOM      2  N   LIG    1       -0.041   0.875   0.186  0.00  0.00    -0.660 N 
ATOM      3  H   LIG    1        0.020  -0.077   0.364  0.00  0.00    +0.420 HD
ATOM      4  O   LIG    1        1.003   2.769  -0.319  0.00  0.00    -0.500 OA
ENDROOT
BRANCH   1   7
ATOM      5  N   LIG    1        3.614  -0.890   0.698  0.00  0.00    -0.330 N 
ATOM      6  N   LIG    1        2.488  -0.296   0.532  0.00  0.00    -0.170 NA
ATOM      7  C   LIG    1        2.406   0.969   0.182  0.00  0.00    +0.010 A 
ATOM      8  C   LIG    1        3.583   1.731  -0.014  0.00  0.00    +0.140 A 
ATOM      9  C   LIG    1        4.787   1.116   0.163  0.00  0.00    -0.010 A 
ATOM     10  C   LIG    1        4.785  -0.247   0.533  0.00  0.00    +0.480 A 
ATOM     11  O   LIG    1        5.839  -0.839   0.703  0.00  0.00    -0.510 OA
BRANCH   5  12
ATOM     12  C   LIG    1        3.624  -2.303   1.082  0.00  0.00    +0.320 C 
BRANCH  12  14
ATOM     13  C   LIG    1        3.626  -3.894   3.009  0.00  0.00    +0.030 C 
ATOM     14  C   LIG    1        3.615  -2.417   2.607  0.00  0.00    +0.000 C 
ENDBRANCH  12  14
ENDBRANCH   5  12
ENDBRANCH   1   7
BRANCH   2  15
ATOM     15  C   LIG    1       -1.293   1.496   0.118  0.00  0.00    +0.170 A 
ATOM     16  C   LIG    1       -1.442   2.808   0.546  0.00  0.00    +0.040 A 
ATOM     17  C   LIG    1       -2.678   3.425   0.474  0.00  0.00    +0.040 A 
ATOM     18  C   LIG    1       -3.771   2.732  -0.014  0.00  0.00    +0.070 A 
ATOM     19  C   LIG    1       -3.628   1.415  -0.438  0.00  0.00    +0.140 A 
ATOM     20  F   LIG    1       -4.978   3.336  -0.078  0.00  0.00    -0.130 F 
ATOM     21  C   LIG    1       -2.388   0.797  -0.372  0.00  0.00    +0.000 A 
BRANCH  19  22
ATOM     22  N   LIG    1       -4.734   0.715  -0.931  0.00  0.00    -1.050 N 
ATOM     23  H   LIG    1       -5.409   1.179  -1.451  0.00  0.00    +0.430 HD
BRANCH  22  24
ATOM     24  S   LIG    1       -4.890  -0.906  -0.628  0.00  0.00    +2.610 S 
ATOM     25  O   LIG    1       -3.687  -1.473  -1.128  0.00  0.00    -0.950 OA
ATOM     26  O   LIG    1       -6.150  -1.247  -1.190  0.00  0.00    -0.940 OA
ATOM     27  C   LIG    1       -4.947  -1.024   1.181  0.00  0.00    -0.270 C 
ENDBRANCH  22  24
ENDBRANCH  19  22
ENDBRANCH   2  15
TORSDOF 6
