REMARK  Name = ZINCrH000004r7SA.0
REMARK                            x       y       z     vdW  Elec       q    Type
REMARK                         _______ _______ _______ _____ _____    ______ ____
ROOT
ATOM      1  C   LIG    1        2.308   8.083   0.025  0.00  0.00    +0.520 C 
ATOM      2  N   LIG    1        2.360   9.430   0.033  0.00  0.00    -0.630 N 
ATOM      3  H   LIG    1        1.540   9.947   0.043  0.00  0.00    +0.430 HD
ATOM      4  O   LIG    1        3.334   7.436   0.012  0.00  0.00    -0.460 OA
ENDROOT
BRANCH   2   5
ATOM      5  C   LIG    1        3.586  10.075   0.025  0.00  0.00    +0.350 A 
ATOM      6  N   LIG    1        4.729   9.483   0.016  0.00  0.00    -0.480 NA
ATOM      7  C   LIG    1        5.837  10.249   0.005  0.00  0.00    +0.160 A 
ATOM      8  C   LIG    1        7.190   9.847  -0.009  0.00  0.00    +0.060 A 
ATOM      9  C   LIG    1        8.193  10.782  -0.014  0.00  0.00    +0.140 A 
ATOM     10  C   LIG    1        7.896  12.137  -0.003  0.00  0.00    -0.660 A 
ATOM     11  C   LIG    1        6.583  12.553   0.011  0.00  0.00    +0.190 A 
ATOM     12  C   LIG    1        5.551  11.618   0.015  0.00  0.00    -0.210 A 
ATOM     13  S   LIG    1        3.801  11.820   0.033  0.00  0.00    +0.090 S 
BRANCH  10  14
ATOM     14  S   LIG    1        9.197  13.325  -0.009  0.00  0.00    +2.500 S 
ATOM     15  O   LIG    1        8.616  14.478  -0.602  0.00  0.00    -0.930 OA
ATOM     16  O   LIG    1       10.284  12.651  -0.627  0.00  0.00    -0.930 OA
ATOM     17  C   LIG    1        9.547  13.621   1.746  0.00  0.00    -0.250 C 
ENDBRANCH  10  14
ENDBRANCH   2   5
BRANCH   1  18
ATOM     18  C   LIG    1        0.975   7.381   0.034  0.00  0.00    +0.110 C 
BRANCH  18  19
ATOM     19  C   LIG    1        1.196   5.867   0.023  0.00  0.00    +0.210 C 
BRANCH  19  20
ATOM     20  O   LIG    1       -0.069   5.201   0.031  0.00  0.00    -0.310 OA
BRANCH  20  26
ATOM     21  C   LIG    1        2.490   1.044  -0.016  0.00  0.00    +0.090 C 
ATOM     22  C   LIG    1        1.176   1.782   0.000  0.00  0.00    -0.050 A 
ATOM     23  C   LIG    1       -0.013   1.076   0.008  0.00  0.00    -0.030 A 
ATOM     24  C   LIG    1       -1.220   1.750   0.017  0.00  0.00    +0.050 A 
ATOM     25  C   LIG    1       -1.242   3.131   0.031  0.00  0.00    -0.120 A 
ATOM     26  C   LIG    1       -0.050   3.842   0.023  0.00  0.00    +0.130 A 
ATOM     27  C   LIG    1       -2.558   3.865   0.047  0.00  0.00    +0.100 C 
ATOM     28  C   LIG    1        1.160   3.164   0.008  0.00  0.00    -0.070 A 
ENDBRANCH  20  26
ENDBRANCH  19  20
ENDBRANCH  18  19
ENDBRANCH   1  18
TORSDOF 6
