REMARK  Name = ZINCqH0000007eMz.0
REMARK                            x       y       z     vdW  Elec       q    Type
REMARK                         _______ _______ _______ _____ _____    ______ ____
ROOT
ATOM      1  C   LIG    1       -0.362   5.121   0.566  0.00  0.00    +0.200 A 
ATOM      2  C   LIG    1       -1.148   5.622   1.596  0.00  0.00    -0.030 A 
ATOM      3  C   LIG    1       -1.671   4.766   2.546  0.00  0.00    +0.090 A 
ATOM      4  C   LIG    1       -1.412   3.405   2.474  0.00  0.00    +0.090 A 
ATOM      5  C   LIG    1       -0.624   2.901   1.441  0.00  0.00    +0.160 A 
ATOM      6  C   LIG    1       -0.096   3.760   0.492  0.00  0.00    -0.060 A 
ENDROOT
BRANCH   4   7
ATOM      7  N   LIG    1       -1.943   2.538   3.439  0.00  0.00    -0.570 N 
ATOM      8  C   LIG    1       -1.263   2.174   4.688  0.00  0.00    +0.270 C 
ATOM      9  C   LIG    1       -2.367   1.587   5.599  0.00  0.00    +0.040 C 
ATOM     10  C   LIG    1       -3.392   1.076   4.561  0.00  0.00    +0.060 C 
ATOM     11  C   LIG    1       -3.136   1.928   3.337  0.00  0.00    +0.520 C 
ATOM     12  O   LIG    1       -3.898   2.045   2.401  0.00  0.00    -0.520 OA
ENDBRANCH   4   7
BRANCH   1  14
ATOM     13  C   LIG    1        0.323   5.573  -1.668  0.00  0.00    +0.560 C 
ATOM     14  N   LIG    1        0.167   5.990  -0.396  0.00  0.00    -0.670 N 
ATOM     15  H   LIG    1        0.421   6.893  -0.147  0.00  0.00    +0.410 HD
ATOM     16  O   LIG    1       -0.083   4.477  -2.002  0.00  0.00    -0.490 OA
BRANCH  13  23
ATOM     17  C   LIG    1        1.152   6.016  -3.978  0.00  0.00    +0.200 A 
ATOM     18  C   LIG    1        1.777   6.845  -4.897  0.00  0.00    -0.060 A 
ATOM     19  C   LIG    1        2.236   8.088  -4.510  0.00  0.00    +0.100 A 
ATOM     20  C   LIG    1        2.075   8.518  -3.202  0.00  0.00    -0.080 A 
ATOM     21  C   LIG    1        1.450   7.708  -2.276  0.00  0.00    +0.100 A 
ATOM     22 CL   LIG    1        2.655  10.084  -2.729  0.00  0.00    -0.060 Cl
ATOM     23  C   LIG    1        0.987   6.446  -2.654  0.00  0.00    -0.170 A 
BRANCH  17  25
ATOM     24  C   LIG    1        0.903   4.424  -5.724  0.00  0.00    +0.250 C 
ATOM     25  O   LIG    1        0.701   4.794  -4.359  0.00  0.00    -0.280 OA
ENDBRANCH  17  25
ENDBRANCH  13  23
ENDBRANCH   1  14
BRANCH   5  26
ATOM     26  O   LIG    1       -0.368   1.567   1.369  0.00  0.00    -0.310 OA
ATOM     27  C   LIG    1        0.447   1.121   0.283  0.00  0.00    +0.250 C 
ENDBRANCH   5  26
TORSDOF 5
