REMARK  Name = ZINCrD00000F5Lsp.0
REMARK                            x       y       z     vdW  Elec       q    Type
REMARK                         _______ _______ _______ _____ _____    ______ ____
ROOT
ATOM      1  C   LIG    1       -1.221   1.750   0.017  0.00  0.00    -0.650 A 
ATOM      2  C   LIG    1       -0.013   1.076   0.008  0.00  0.00    +0.120 A 
ATOM      3  C   LIG    1        1.173   1.780   0.000  0.00  0.00    +0.060 A 
ATOM      4  C   LIG    1        1.153   3.176   0.008  0.00  0.00    -0.100 A 
ATOM      5  C   LIG    1       -0.070   3.850   0.022  0.00  0.00    +0.040 A 
ATOM      6  C   LIG    1       -1.249   3.133   0.030  0.00  0.00    +0.120 A 
ENDROOT
BRANCH   1   7
ATOM      7  S   LIG    1       -2.731   0.842   0.020  0.00  0.00    +2.690 S 
ATOM      8  O   LIG    1       -2.434  -0.433  -0.532  0.00  0.00    -0.950 OA
ATOM      9  O   LIG    1       -3.722   1.710  -0.515  0.00  0.00    -0.950 OA
BRANCH   7  10
ATOM     10  N   LIG    1       -3.144   0.582   1.603  0.00  0.00    -0.990 NA
BRANCH  10  12
ATOM     11  C   LIG    1       -5.444   1.117   2.239  0.00  0.00    +0.010 C 
ATOM     12  C   LIG    1       -3.980   1.554   2.311  0.00  0.00    +0.280 C 
ENDBRANCH  10  12
BRANCH  10  13
ATOM     13  C   LIG    1       -2.673  -0.621   2.294  0.00  0.00    +0.300 C 
ATOM     14  C   LIG    1       -1.390  -0.298   3.062  0.00  0.00    +0.010 C 
ENDBRANCH  10  13
ENDBRANCH   7  10
ENDBRANCH   1   7
BRANCH   4  15
ATOM     15  C   LIG    1        2.421   3.938  -0.001  0.00  0.00    +0.420 C 
ATOM     16  O   LIG    1        3.486   3.348  -0.014  0.00  0.00    -0.450 OA
BRANCH  15  17
ATOM     17  C   LIG    1        2.396   5.355   0.006  0.00  0.00    -0.110 C 
ATOM     18  C   LIG    1        3.556   6.052  -0.001  0.00  0.00    +0.160 C 
BRANCH  18  19
ATOM     19  C   LIG    1        3.530   7.520   0.006  0.00  0.00    -0.070 A 
ATOM     20  C   LIG    1        2.307   8.203   0.016  0.00  0.00    +0.050 A 
ATOM     21  C   LIG    1        2.289   9.580   0.028  0.00  0.00    +0.040 A 
ATOM     22  C   LIG    1        3.475  10.296   0.020  0.00  0.00    +0.060 A 
ATOM     23  C   LIG    1        4.693   9.637   0.005  0.00  0.00    +0.030 A 
ATOM     24  O   LIG    1        5.976  10.107  -0.005  0.00  0.00    -0.310 OA
ATOM     25  C   LIG    1        6.795   8.992   0.394  0.00  0.00    +0.440 C 
ATOM     26  O   LIG    1        6.031   7.843  -0.016  0.00  0.00    -0.300 OA
ATOM     27  C   LIG    1        4.730   8.246  -0.002  0.00  0.00    +0.060 A 
ENDBRANCH  18  19
ENDBRANCH  15  17
ENDBRANCH   4  15
TORSDOF 7
