REMARK  Name = ZINCrD000000Cvz0.0
REMARK                            x       y       z     vdW  Elec       q    Type
REMARK                         _______ _______ _______ _____ _____    ______ ____
ROOT
ATOM      1  C   LIG    1       -0.798   1.617  -1.212  0.00  0.00    +0.010 C 
ATOM      2  C   LIG    1       -2.216   1.792  -0.622  0.00  0.00    +0.100 C 
ATOM      3  C   LIG    1       -1.981   1.975   0.862  0.00  0.00    +0.520 C 
ATOM      4  N   LIG    1       -0.737   1.577   1.186  0.00  0.00    -0.560 N 
ATOM      5  O   LIG    1       -2.795   2.418   1.645  0.00  0.00    -0.500 OA
ATOM      6  C   LIG    1       -0.013   1.086   0.008  0.00  0.00    +0.310 C 
ENDROOT
BRANCH   4   7
ATOM      7  C   LIG    1       -0.201   1.626   2.478  0.00  0.00    +0.160 A 
ATOM      8  C   LIG    1        1.097   1.192   2.711  0.00  0.00    -0.030 A 
ATOM      9  C   LIG    1        1.620   1.242   3.987  0.00  0.00    +0.050 A 
ATOM     10  C   LIG    1        0.856   1.724   5.037  0.00  0.00    -0.120 A 
ATOM     11  C   LIG    1        1.194   1.879   6.505  0.00  0.00    +0.070 C 
ATOM     12  C   LIG    1        0.135   2.853   7.063  0.00  0.00    +0.030 C 
ATOM     13  C   LIG    1       -1.055   2.633   6.106  0.00  0.00    +0.080 C 
ATOM     14  C   LIG    1       -0.438   2.158   4.808  0.00  0.00    -0.070 A 
ATOM     15  C   LIG    1       -0.964   2.114   3.530  0.00  0.00    +0.010 A 
ENDBRANCH   4   7
BRANCH   1  17
ATOM     16  O   LIG    1       -0.231  -0.454  -2.193  0.00  0.00    -0.520 OA
ATOM     17  C   LIG    1       -0.801   0.608  -2.332  0.00  0.00    +0.530 C 
ATOM     18  N   LIG    1       -1.437   0.886  -3.487  0.00  0.00    -0.610 N 
ATOM     19  C   LIG    1       -2.132   2.167  -3.670  0.00  0.00    +0.270 C 
ATOM     20  C   LIG    1       -3.576   1.889  -4.099  0.00  0.00    +0.040 C 
ATOM     21  C   LIG    1       -3.571   0.994  -5.341  0.00  0.00    +0.040 C 
ATOM     22  C   LIG    1       -2.900  -0.340  -5.007  0.00  0.00    -0.030 C 
ATOM     23  C   LIG    1       -1.443  -0.085  -4.590  0.00  0.00    +0.320 C 
BRANCH  22  24
ATOM     24  C   LIG    1       -2.924  -1.246  -6.240  0.00  0.00    +0.460 C 
ATOM     25  F   LIG    1       -4.250  -1.475  -6.625  0.00  0.00    -0.180 F 
ATOM     26  F   LIG    1       -2.311  -2.466  -5.934  0.00  0.00    -0.180 F 
ATOM     27  F   LIG    1       -2.235  -0.627  -7.288  0.00  0.00    -0.180 F 
ENDBRANCH  22  24
ENDBRANCH   1  17
TORSDOF 3
