REMARK  Name = ZINCrH000004pjhi.0
REMARK                            x       y       z     vdW  Elec       q    Type
REMARK                         _______ _______ _______ _____ _____    ______ ____
ROOT
ATOM      1  N   LIG    1       -1.635   1.156   3.315  0.00  0.00    -0.740 N 
ATOM      2  H   LIG    1       -1.816   2.103   3.420  0.00  0.00    +0.400 HD
ATOM      3  C   LIG    1       -1.091   0.697   2.171  0.00  0.00    +0.710 C 
ATOM      4  N   LIG    1       -0.706   1.562   1.212  0.00  0.00    -0.630 N 
ATOM      5  C   LIG    1       -0.009   1.086   0.010  0.00  0.00    +0.300 C 
ATOM      6  C   LIG    1       -0.754   1.593  -1.229  0.00  0.00    +0.040 C 
ATOM      7  C   LIG    1       -0.897   3.114  -1.146  0.00  0.00    +0.090 C 
ATOM      8  C   LIG    1       -1.714   3.485   0.094  0.00  0.00    +0.040 C 
ATOM      9  C   LIG    1       -0.980   3.000   1.348  0.00  0.00    +0.260 C 
ATOM     10  O   LIG    1       -0.947  -0.499   2.004  0.00  0.00    -0.580 OA
ENDROOT
BRANCH   7  11
ATOM     11  C   LIG    1       -1.599   3.620  -2.380  0.00  0.00    +0.060 A 
ATOM     12  N   LIG    1       -2.781   3.271  -2.750  0.00  0.00    -0.460 NA
ATOM     13  C   LIG    1       -3.267   3.808  -3.860  0.00  0.00    +0.070 A 
ATOM     14  C   LIG    1       -2.410   4.659  -4.455  0.00  0.00    -0.220 A 
ATOM     15  C   LIG    1       -2.681   5.414  -5.734  0.00  0.00    +0.120 C 
ATOM     16  C   LIG    1       -3.878   4.767  -6.440  0.00  0.00    +0.030 C 
ATOM     17  C   LIG    1       -5.018   4.594  -5.431  0.00  0.00    +0.030 C 
ATOM     18  C   LIG    1       -4.646   3.502  -4.425  0.00  0.00    +0.120 C 
ATOM     19  S   LIG    1       -0.939   4.735  -3.494  0.00  0.00    +0.110 S 
ENDBRANCH   7  11
BRANCH   1  21
ATOM     20  C   LIG    1       -0.705  -0.003   5.258  0.00  0.00    +0.040 C 
ATOM     21  C   LIG    1       -1.952   0.226   4.401  0.00  0.00    +0.290 C 
BRANCH  21  22
ATOM     22  C   LIG    1       -3.049   0.806   5.256  0.00  0.00    +0.010 A 
ATOM     23  C   LIG    1       -4.193   0.099   5.484  0.00  0.00    -0.070 A 
ATOM     24  C   LIG    1       -5.202   0.662   6.285  0.00  0.00    +0.520 A 
ATOM     25  N   LIG    1       -5.034   1.887   6.817  0.00  0.00    -0.610 N 
ATOM     26  H   LIG    1       -5.734   2.270   7.369  0.00  0.00    +0.420 HD
ATOM     27  C   LIG    1       -3.897   2.593   6.591  0.00  0.00    +0.310 A 
ATOM     28  O   LIG    1       -6.230   0.040   6.497  0.00  0.00    -0.550 OA
ATOM     29  C   LIG    1       -2.903   2.077   5.830  0.00  0.00    -0.080 A 
ENDBRANCH  21  22
ENDBRANCH   1  21
TORSDOF 3
