REMARK  Name = ZINCpk00000ebtP4.0
REMARK                            x       y       z     vdW  Elec       q    Type
REMARK                         _______ _______ _______ _____ _____    ______ ____
ROOT
ATOM      1  N   LIG    1       -4.443  -0.062  -1.956  0.00  0.00    -0.510 NA
ATOM      2  C   LIG    1       -4.084   1.351  -2.136  0.00  0.00    +0.170 C 
ATOM      3  C   LIG    1       -2.605   1.453  -2.523  0.00  0.00    +0.300 C 
ATOM      4  N   LIG    1       -1.808   0.731  -1.518  0.00  0.00    -0.600 N 
ATOM      5  C   LIG    1       -2.191  -0.650  -1.188  0.00  0.00    +0.280 C 
ATOM      6  C   LIG    1       -0.753   1.319  -0.921  0.00  0.00    +0.540 C 
ATOM      7  O   LIG    1       -0.449   2.457  -1.209  0.00  0.00    -0.520 OA
ATOM      8  C   LIG    1       -3.690  -0.667  -0.850  0.00  0.00    +0.180 C 
ENDROOT
BRANCH   6   9
ATOM      9  C   LIG    1        0.050   0.561   0.106  0.00  0.00    +0.040 C 
ATOM     10  C   LIG    1        1.499   1.082   0.172  0.00  0.00    +0.130 C 
ATOM     11  C   LIG    1        2.029   0.992   1.581  0.00  0.00    -0.100 A 
ATOM     12  C   LIG    1        3.369   0.980   1.972  0.00  0.00    +0.040 A 
ATOM     13  C   LIG    1        3.720   0.900   3.302  0.00  0.00    +0.010 A 
ATOM     14  C   LIG    1        2.748   0.831   4.283  0.00  0.00    +0.030 A 
ATOM     15  C   LIG    1        1.417   0.839   3.916  0.00  0.00    +0.050 A 
ATOM     16  C   LIG    1        1.063   0.915   2.577  0.00  0.00    -0.090 A 
ATOM     17  S   LIG    1       -0.534   0.928   1.804  0.00  0.00    -0.090 S 
ENDBRANCH   6   9
BRANCH   1  18
ATOM     18  C   LIG    1       -5.890  -0.216  -1.753  0.00  0.00    +0.260 C 
BRANCH  18  20
ATOM     19  O   LIG    1       -5.474   1.087   0.170  0.00  0.00    -0.530 OA
ATOM     20  C   LIG    1       -6.290   0.451  -0.463  0.00  0.00    +0.490 C 
ATOM     21  N   LIG    1       -7.556   0.342  -0.011  0.00  0.00    -0.620 N 
ATOM     22  C   LIG    1       -8.643  -0.389  -0.678  0.00  0.00    +0.240 C 
ATOM     23  C   LIG    1       -9.909  -0.218   0.188  0.00  0.00    +0.040 C 
ATOM     24  C   LIG    1       -9.605   1.074   0.992  0.00  0.00    +0.040 C 
ATOM     25  C   LIG    1       -8.080   0.941   1.229  0.00  0.00    +0.250 C 
ENDBRANCH  18  20
ENDBRANCH   1  18
TORSDOF 3
