REMARK  Name = ZINCqH0000005j0O.0
REMARK                            x       y       z     vdW  Elec       q    Type
REMARK                         _______ _______ _______ _____ _____    ______ ____
ROOT
ATOM      1  C   LIG    1        4.996   6.565   2.053  0.00  0.00    +0.280 C 
ATOM      2  N   LIG    1        5.941   5.694   1.351  0.00  0.00    -0.600 N 
ATOM      3  C   LIG    1        7.060   5.273   1.974  0.00  0.00    +0.560 C 
ATOM      4  O   LIG    1        7.803   4.485   1.422  0.00  0.00    -0.510 OA
ENDROOT
BRANCH   3   5
ATOM      5  C   LIG    1        7.383   5.769   3.328  0.00  0.00    -0.120 A 
ATOM      6  C   LIG    1        8.697   6.105   3.657  0.00  0.00    +0.160 A 
ATOM      7  C   LIG    1        8.991   6.572   4.921  0.00  0.00    +0.060 A 
ATOM      8  C   LIG    1        7.987   6.697   5.867  0.00  0.00    +0.030 A 
ATOM      9  C   LIG    1        6.682   6.359   5.548  0.00  0.00    -0.050 A 
ATOM     10 CL   LIG    1        8.367   7.279   7.458  0.00  0.00    +0.010 Cl
ATOM     11  C   LIG    1        6.375   5.897   4.286  0.00  0.00    +0.150 A 
BRANCH   9  12
ATOM     12  N   LIG    1        5.615   6.496   6.565  0.00  0.00    +0.030 N 
ATOM     13  O   LIG    1        5.885   6.904   7.680  0.00  0.00    -0.130 OA
ATOM     14  O   LIG    1        4.467   6.200   6.287  0.00  0.00    -0.160 OA
ENDBRANCH   9  12
ENDBRANCH   3   5
BRANCH   2  15
ATOM     15  C   LIG    1        5.671   5.281  -0.028  0.00  0.00    +0.380 C 
BRANCH  15  16
ATOM     16  C   LIG    1        4.882   3.997  -0.023  0.00  0.00    -0.250 A 
ATOM     17  C   LIG    1        3.533   3.892  -0.009  0.00  0.00    +0.250 A 
ATOM     18  N   LIG    1        3.223   2.576  -0.009  0.00  0.00    -0.320 N 
ATOM     19  N   LIG    1        4.422   1.851  -0.018  0.00  0.00    -0.290 NA
ATOM     20  C   LIG    1        5.415   2.703  -0.031  0.00  0.00    +0.270 A 
BRANCH  18  21
ATOM     21  C   LIG    1        1.931   2.033   0.004  0.00  0.00    +0.160 A 
ATOM     22  C   LIG    1        0.824   2.871   0.019  0.00  0.00    -0.010 A 
ATOM     23  C   LIG    1       -0.448   2.333   0.032  0.00  0.00    +0.040 A 
ATOM     24  C   LIG    1       -0.620   0.961   0.030  0.00  0.00    +0.000 A 
ATOM     25  C   LIG    1        0.480   0.124   0.015  0.00  0.00    +0.040 A 
ATOM     26  C   LIG    1        1.755   0.656   0.002  0.00  0.00    +0.020 A 
ENDBRANCH  18  21
ENDBRANCH  15  16
ENDBRANCH   2  15
TORSDOF 5
