REMARK  Name = ZINCrD00000hQ47b.0
REMARK                            x       y       z     vdW  Elec       q    Type
REMARK                         _______ _______ _______ _____ _____    ______ ____
ROOT
ATOM      1  C   LIG    1       -1.317   4.549  -0.625  0.00  0.00    +0.370 A 
ATOM      2  N   LIG    1       -0.141   5.051  -0.825  0.00  0.00    -0.340 NA
ATOM      3  N   LIG    1        0.040   5.961  -1.861  0.00  0.00    -0.300 N 
ATOM      4  C   LIG    1        1.055   6.716  -2.424  0.00  0.00    +0.210 A 
ATOM      5  C   LIG    1        0.514   7.421  -3.449  0.00  0.00    +0.070 A 
ATOM      6  N   LIG    1       -0.796   7.114  -3.520  0.00  0.00    -0.420 NA
ATOM      7  C   LIG    1       -1.080   6.247  -2.578  0.00  0.00    +0.120 A 
ATOM      8  S   LIG    1       -2.370   5.277  -1.851  0.00  0.00    +0.140 S 
ENDROOT
BRANCH   1  12
ATOM      9  C   LIG    1       -0.013   1.086   0.008  0.00  0.00    +0.030 C 
ATOM     10  C   LIG    1       -0.730   1.580   1.268  0.00  0.00    +0.110 C 
ATOM     11  C   LIG    1       -0.695   3.110   1.307  0.00  0.00    +0.300 C 
ATOM     12  N   LIG    1       -1.680   3.634   0.350  0.00  0.00    -0.560 N 
ATOM     13  C   LIG    1       -3.066   3.159   0.471  0.00  0.00    +0.300 C 
ATOM     14  C   LIG    1       -3.079   1.636   0.525  0.00  0.00    +0.090 C 
ATOM     15  C   LIG    1       -3.066   1.054  -0.902  0.00  0.00    -0.010 C 
ATOM     16  C   LIG    1       -4.532   0.645  -1.167  0.00  0.00    +0.210 C 
ATOM     17  O   LIG    1       -5.308   1.228  -0.099  0.00  0.00    -0.360 OA
ATOM     18  C   LIG    1       -4.457   1.176   1.068  0.00  0.00    +0.250 C 
ATOM     19  C   LIG    1        0.042   1.051   2.492  0.00  0.00    +0.080 C 
ATOM     20  O   LIG    1       -2.057   1.092   1.323  0.00  0.00    -0.350 OA
ENDBRANCH   1  12
BRANCH   5  21
ATOM     21  C   LIG    1        1.237   8.365  -4.336  0.00  0.00    -0.010 A 
ATOM     22  C   LIG    1        2.599   8.597  -4.148  0.00  0.00    +0.060 A 
ATOM     23  C   LIG    1        3.268   9.472  -4.978  0.00  0.00    -0.010 A 
ATOM     24  C   LIG    1        2.588  10.127  -5.991  0.00  0.00    +0.100 A 
ATOM     25  C   LIG    1        1.233   9.904  -6.178  0.00  0.00    -0.010 A 
ATOM     26  F   LIG    1        3.247  10.987  -6.799  0.00  0.00    -0.140 F 
ATOM     27  C   LIG    1        0.556   9.027  -5.356  0.00  0.00    +0.080 A 
ENDBRANCH   5  21
TORSDOF 2
