REMARK  Name = ZINCrD00000hQ50g.0
REMARK                            x       y       z     vdW  Elec       q    Type
REMARK                         _______ _______ _______ _____ _____    ______ ____
ROOT
ATOM      1  C   LIG    1       -3.295   3.065  -1.163  0.00  0.00    +0.550 C 
ATOM      2  N   LIG    1       -2.197   2.523  -0.601  0.00  0.00    -0.460 N 
ATOM      3  N   LIG    1       -1.954   2.420   0.767  0.00  0.00    -0.250 NA
ATOM      4  C   LIG    1       -0.828   1.861   1.063  0.00  0.00    +0.150 C 
ATOM      5  C   LIG    1       -0.108   1.480  -0.210  0.00  0.00    +0.100 C 
ATOM      6  C   LIG    1       -1.059   1.942  -1.331  0.00  0.00    +0.250 C 
ATOM      7  O   LIG    1       -3.403   3.102  -2.371  0.00  0.00    -0.500 OA
ENDROOT
BRANCH   4   8
ATOM      8  C   LIG    1       -0.323   1.628   2.428  0.00  0.00    -0.060 A 
ATOM      9  C   LIG    1        0.914   1.011   2.623  0.00  0.00    +0.080 A 
ATOM     10  C   LIG    1        1.381   0.796   3.903  0.00  0.00    -0.010 A 
ATOM     11  C   LIG    1        0.629   1.190   4.997  0.00  0.00    +0.070 A 
ATOM     12  C   LIG    1       -0.597   1.802   4.819  0.00  0.00    -0.010 A 
ATOM     13  C   LIG    1       -1.080   2.031   3.539  0.00  0.00    +0.190 A 
BRANCH  13  14
ATOM     14  N   LIG    1       -2.313   2.654   3.358  0.00  0.00    -1.050 N 
ATOM     15  H   LIG    1       -2.887   2.389   2.622  0.00  0.00    +0.430 HD
BRANCH  14  16
ATOM     16  S   LIG    1       -2.799   3.848   4.397  0.00  0.00    +2.600 S 
ATOM     17  O   LIG    1       -2.741   3.241   5.680  0.00  0.00    -0.950 OA
ATOM     18  O   LIG    1       -4.032   4.303   3.857  0.00  0.00    -0.940 OA
ATOM     19  C   LIG    1       -1.524   5.130   4.242  0.00  0.00    -0.270 C 
ENDBRANCH  14  16
ENDBRANCH  13  14
ENDBRANCH   4   8
BRANCH   6  20
ATOM     20  C   LIG    1       -1.504   0.769  -2.166  0.00  0.00    -0.090 A 
ATOM     21  C   LIG    1       -2.513  -0.060  -1.712  0.00  0.00    +0.010 A 
ATOM     22  C   LIG    1       -2.924  -1.133  -2.480  0.00  0.00    +0.000 A 
ATOM     23  C   LIG    1       -2.320  -1.383  -3.698  0.00  0.00    +0.010 A 
ATOM     24  C   LIG    1       -1.308  -0.557  -4.150  0.00  0.00    +0.010 A 
ATOM     25  C   LIG    1       -0.900   0.519  -3.384  0.00  0.00    +0.020 A 
ENDBRANCH   6  20
BRANCH   1  27
ATOM     26  C   LIG    1       -5.512   4.176  -1.174  0.00  0.00    +0.050 C 
ATOM     27  C   LIG    1       -4.389   3.626  -0.292  0.00  0.00    +0.000 C 
ATOM     28  C   LIG    1       -4.943   2.519   0.607  0.00  0.00    +0.060 C 
ENDBRANCH   1  27
TORSDOF 5
