REMARK  Name = ZINCrH000004v5ef.0
REMARK                            x       y       z     vdW  Elec       q    Type
REMARK                         _______ _______ _______ _____ _____    ______ ____
ROOT
ATOM      1  C   LIG    1       -0.229   1.656   0.309  0.00  0.00    +0.020 C 
ATOM      2  C   LIG    1        1.293   1.927   0.342  0.00  0.00    +0.100 C 
ATOM      3  C   LIG    1        1.876   0.692   0.991  0.00  0.00    +0.520 C 
ATOM      4  N   LIG    1        0.976  -0.306   0.978  0.00  0.00    -0.550 N 
ATOM      5  O   LIG    1        2.994   0.614   1.456  0.00  0.00    -0.500 OA
ATOM      6  C   LIG    1       -0.274   0.112   0.333  0.00  0.00    +0.320 C 
ENDROOT
BRANCH   4   7
ATOM      7  C   LIG    1        1.203  -1.583   1.509  0.00  0.00    +0.170 A 
ATOM      8  C   LIG    1        2.459  -1.919   1.994  0.00  0.00    +0.010 A 
ATOM      9  C   LIG    1        2.682  -3.176   2.523  0.00  0.00    +0.060 A 
ATOM     10  C   LIG    1        1.656  -4.109   2.560  0.00  0.00    +0.030 A 
ATOM     11  O   LIG    1        1.898  -5.346   3.076  0.00  0.00    -0.310 OA
ATOM     12  C   LIG    1        0.753  -6.125   3.441  0.00  0.00    +0.220 C 
ATOM     13  C   LIG    1       -0.265  -6.048   2.295  0.00  0.00    +0.220 C 
ATOM     14  O   LIG    1       -0.623  -4.675   2.105  0.00  0.00    -0.310 OA
ATOM     15  C   LIG    1        0.398  -3.775   2.072  0.00  0.00    +0.080 A 
ATOM     16  C   LIG    1        0.173  -2.512   1.547  0.00  0.00    -0.010 A 
ENDBRANCH   4   7
BRANCH   1  18
ATOM     17  O   LIG    1       -1.392   1.497   2.357  0.00  0.00    -0.500 OA
ATOM     18  C   LIG    1       -0.906   2.234   1.525  0.00  0.00    +0.520 C 
ATOM     19  N   LIG    1       -0.972   3.570   1.689  0.00  0.00    -0.670 N 
ATOM     20  H   LIG    1       -0.654   4.161   0.988  0.00  0.00    +0.420 HD
BRANCH  19  21
ATOM     21  C   LIG    1       -1.498   4.106   2.870  0.00  0.00    +0.160 A 
ATOM     22  C   LIG    1       -1.294   3.455   4.080  0.00  0.00    +0.050 A 
ATOM     23  C   LIG    1       -1.815   3.985   5.245  0.00  0.00    +0.070 A 
ATOM     24  C   LIG    1       -2.539   5.163   5.207  0.00  0.00    -0.040 A 
ATOM     25  C   LIG    1       -2.744   5.814   4.002  0.00  0.00    -0.010 A 
ATOM     26 CL   LIG    1       -3.653   7.293   3.958  0.00  0.00    -0.040 Cl
ATOM     27 CL   LIG    1       -3.191   5.827   6.673  0.00  0.00    -0.040 Cl
ATOM     28  C   LIG    1       -2.220   5.291   2.835  0.00  0.00    +0.030 A 
ENDBRANCH  19  21
ENDBRANCH   1  18
TORSDOF 3
