REMARK  Name = ZINCqH0000002DtW.0
REMARK                            x       y       z     vdW  Elec       q    Type
REMARK                         _______ _______ _______ _____ _____    ______ ____
ROOT
ATOM      1  C   LIG    1        2.048   0.663   0.022  0.00  0.00    +0.140 A 
ATOM      2  N   LIG    1        1.284  -0.404   0.044  0.00  0.00    -0.280 NA
ATOM      3  N   LIG    1        0.046  -0.062   0.003  0.00  0.00    -0.270 NA
ATOM      4  C   LIG    1       -0.057   1.246  -0.047  0.00  0.00    +0.280 A 
ATOM      5  N   LIG    1        1.223   1.752  -0.037  0.00  0.00    -0.430 N 
ENDROOT
BRANCH   4   6
ATOM      6  C   LIG    1       -1.309   2.027  -0.110  0.00  0.00    -0.110 A 
ATOM      7  C   LIG    1       -1.427   3.378  -0.034  0.00  0.00    +0.260 A 
ATOM      8  N   LIG    1       -2.742   3.731  -0.131  0.00  0.00    -0.580 N 
ATOM      9  H   LIG    1       -3.075   4.641  -0.103  0.00  0.00    +0.420 HD
ATOM     10  C   LIG    1       -3.527   2.607  -0.274  0.00  0.00    +0.100 A 
ATOM     11  C   LIG    1       -4.898   2.415  -0.411  0.00  0.00    -0.010 A 
ATOM     12  C   LIG    1       -5.404   1.140  -0.540  0.00  0.00    +0.040 A 
ATOM     13  C   LIG    1       -4.558   0.040  -0.533  0.00  0.00    -0.010 A 
ATOM     14  C   LIG    1       -3.198   0.209  -0.398  0.00  0.00    +0.070 A 
ATOM     15  C   LIG    1       -2.671   1.493  -0.274  0.00  0.00    -0.070 A 
ENDBRANCH   4   6
BRANCH   5  16
ATOM     16  C   LIG    1        1.619   3.162  -0.080  0.00  0.00    +0.190 C 
ATOM     17  C   LIG    1        3.075   3.476  -0.426  0.00  0.00    +0.070 C 
ATOM     18  C   LIG    1        2.571   3.662   1.008  0.00  0.00    +0.060 C 
ENDBRANCH   5  16
BRANCH   1  19
ATOM     19  S   LIG    1        3.810   0.687   0.062  0.00  0.00    +0.080 S 
BRANCH  19  20
ATOM     20  C   LIG    1        4.147  -1.089   0.136  0.00  0.00    -0.010 C 
ATOM     21  C   LIG    1        3.674  -1.753  -1.158  0.00  0.00    +0.090 C 
BRANCH  20  24
ATOM     22  N   LIG    1        6.083  -2.489   0.779  0.00  0.00    -0.720 N 
ATOM     23  H   LIG    1        5.457  -3.191   1.014  0.00  0.00    +0.400 HD
ATOM     24  C   LIG    1        5.628  -1.313   0.303  0.00  0.00    +0.540 C 
ATOM     25  O   LIG    1        6.411  -0.435   0.008  0.00  0.00    -0.530 OA
BRANCH  22  26
ATOM     26  C   LIG    1        7.523  -2.706   0.941  0.00  0.00    +0.260 C 
BRANCH  26  28
ATOM     27  C   LIG    1        9.271  -4.338   1.663  0.00  0.00    +0.030 C 
ATOM     28  C   LIG    1        7.768  -4.112   1.494  0.00  0.00    +0.000 C 
ENDBRANCH  26  28
ENDBRANCH  22  26
ENDBRANCH  20  24
ENDBRANCH  19  20
ENDBRANCH   1  19
TORSDOF 7
