REMARK  Name = ZINCrD000002cjth.0
REMARK                            x       y       z     vdW  Elec       q    Type
REMARK                         _______ _______ _______ _____ _____    ______ ____
ROOT
ATOM      1  N   LIG    1       -2.134   1.747  -1.202  0.00  0.00    -0.720 N 
ATOM      2  H   LIG    1       -2.491   1.246  -0.452  0.00  0.00    +0.400 HD
ATOM      3  C   LIG    1       -2.943   2.111  -2.216  0.00  0.00    +0.570 C 
ATOM      4  O   LIG    1       -2.495   2.739  -3.156  0.00  0.00    -0.520 OA
ENDROOT
BRANCH   3   5
ATOM      5  C   LIG    1       -4.372   1.750  -2.185  0.00  0.00    -0.120 A 
ATOM      6  C   LIG    1       -4.876   0.933  -1.180  0.00  0.00    +0.090 A 
ATOM      7  C   LIG    1       -6.221   0.593  -1.151  0.00  0.00    +0.000 A 
ATOM      8  C   LIG    1       -7.097   1.039  -2.097  0.00  0.00    +0.140 A 
ATOM      9  C   LIG    1       -6.654   1.869  -3.143  0.00  0.00    -0.060 A 
ATOM     10  C   LIG    1       -7.521   2.351  -4.138  0.00  0.00    +0.000 A 
ATOM     11  C   LIG    1       -7.016   3.166  -5.107  0.00  0.00    +0.250 A 
ATOM     12  N   LIG    1       -5.734   3.497  -5.144  0.00  0.00    -0.480 NA
ATOM     13  C   LIG    1       -4.867   3.077  -4.250  0.00  0.00    +0.350 A 
ATOM     14  F   LIG    1       -8.398   0.682  -2.029  0.00  0.00    -0.120 F 
ATOM     15  C   LIG    1       -5.289   2.246  -3.207  0.00  0.00    -0.060 A 
ENDBRANCH   3   5
BRANCH   1  16
ATOM     16  C   LIG    1       -0.714   2.106  -1.233  0.00  0.00    +0.290 C 
BRANCH  16  21
ATOM     17  C   LIG    1        3.278   1.008   1.528  0.00  0.00    +0.530 C 
ATOM     18  N   LIG    1        2.105   0.883   0.876  0.00  0.00    -0.620 N 
ATOM     19  C   LIG    1        1.230  -0.298   0.905  0.00  0.00    +0.240 C 
ATOM     20  C   LIG    1       -0.004   0.025   0.038  0.00  0.00    +0.030 C 
ATOM     21  C   LIG    1       -0.026   1.576   0.027  0.00  0.00    -0.020 C 
ATOM     22  C   LIG    1        1.487   1.908   0.015  0.00  0.00    +0.260 C 
ATOM     23  O   LIG    1        3.920   2.033   1.430  0.00  0.00    -0.530 OA
BRANCH  17  24
ATOM     24  C   LIG    1        3.792  -0.125   2.378  0.00  0.00    +0.050 C 
BRANCH  24  25
ATOM     25  C   LIG    1        5.132   0.273   3.001  0.00  0.00    +0.040 C 
BRANCH  25  27
ATOM     26  C   LIG    1        5.964  -2.083   2.974  0.00  0.00    +0.020 C 
ATOM     27  C   LIG    1        5.654  -0.878   3.864  0.00  0.00    -0.030 C 
ATOM     28  C   LIG    1        6.929  -0.436   4.586  0.00  0.00    +0.030 C 
ENDBRANCH  25  27
ENDBRANCH  24  25
ENDBRANCH  17  24
ENDBRANCH  16  21
ENDBRANCH   1  16
TORSDOF 6
