REMARK  Name = ZINCpk000000pAAy.0
REMARK                            x       y       z     vdW  Elec       q    Type
REMARK                         _______ _______ _______ _____ _____    ______ ____
ROOT
ATOM      1  C   LIG    1       -0.051  -7.437  -2.238  0.00  0.00    +0.240 C 
ATOM      2  C   LIG    1       -0.853  -7.362  -3.556  0.00  0.00    +0.180 C 
ATOM      3  S   LIG    1       -2.448  -6.651  -2.969  0.00  0.00    -0.230 S 
ATOM      4  C   LIG    1       -2.348  -7.469  -1.320  0.00  0.00    +0.390 C 
ATOM      5  N   LIG    1       -0.896  -7.476  -1.054  0.00  0.00    -0.980 NA
ENDROOT
BRANCH   1   8
ATOM      6  N   LIG    1        2.052  -6.244  -2.760  0.00  0.00    -0.720 N 
ATOM      7  H   LIG    1        2.337  -7.028  -3.256  0.00  0.00    +0.400 HD
ATOM      8  C   LIG    1        0.851  -6.233  -2.150  0.00  0.00    +0.510 C 
ATOM      9  O   LIG    1        0.495  -5.253  -1.530  0.00  0.00    -0.510 OA
BRANCH   6  10
ATOM     10  C   LIG    1        2.929  -5.073  -2.675  0.00  0.00    +0.230 C 
ATOM     11  C   LIG    1        2.547  -4.071  -3.766  0.00  0.00    +0.020 C 
BRANCH  10  13
ATOM     12  C   LIG    1        4.802  -6.414  -1.708  0.00  0.00    +0.030 C 
ATOM     13  C   LIG    1        4.382  -5.509  -2.868  0.00  0.00    +0.020 C 
ENDBRANCH  10  13
ENDBRANCH   6  10
ENDBRANCH   1   8
BRANCH   5  14
ATOM     14  S   LIG    1       -0.275  -7.531   0.480  0.00  0.00    +2.700 S 
ATOM     15  O   LIG    1        1.082  -7.122   0.378  0.00  0.00    -0.930 OA
ATOM     16  O   LIG    1       -1.221  -6.884   1.319  0.00  0.00    -0.930 OA
BRANCH  14  17
ATOM     17  C   LIG    1       -0.249  -9.223   0.972  0.00  0.00    -0.660 A 
ATOM     18  C   LIG    1        0.909  -9.966   0.824  0.00  0.00    +0.120 A 
ATOM     19  C   LIG    1        0.937 -11.290   1.207  0.00  0.00    +0.080 A 
ATOM     20  C   LIG    1       -0.208 -11.882   1.746  0.00  0.00    -0.070 A 
ATOM     21  C   LIG    1       -1.375 -11.128   1.887  0.00  0.00    +0.070 A 
ATOM     22  C   LIG    1       -1.387  -9.803   1.505  0.00  0.00    +0.120 A 
BRANCH  20  23
ATOM     23  C   LIG    1       -0.186 -13.300   2.159  0.00  0.00    +0.500 C 
ATOM     24  O   LIG    1        0.829 -13.954   2.030  0.00  0.00    -0.490 OA
BRANCH  23  25
ATOM     25  O   LIG    1       -1.292 -13.867   2.678  0.00  0.00    -0.350 OA
ATOM     26  C   LIG    1       -1.198 -15.265   3.061  0.00  0.00    +0.290 C 
ENDBRANCH  23  25
ENDBRANCH  20  23
ENDBRANCH  14  17
ENDBRANCH   5  14
TORSDOF 7
