REMARK  Name = ZINCqH0000000tsD.0
REMARK                            x       y       z     vdW  Elec       q    Type
REMARK                         _______ _______ _______ _____ _____    ______ ____
ROOT
ATOM      1  C   LIG    1       -1.790   2.290  -8.601  0.00  0.00    +0.090 A 
ATOM      2  C   LIG    1       -2.533   2.584  -7.466  0.00  0.00    +0.100 A 
ATOM      3  C   LIG    1       -2.050   2.248  -6.217  0.00  0.00    -0.040 A 
ATOM      4  C   LIG    1       -0.820   1.614  -6.096  0.00  0.00    +0.260 A 
ATOM      5  C   LIG    1       -0.074   1.325  -7.231  0.00  0.00    -0.240 A 
ATOM      6  C   LIG    1       -0.560   1.656  -8.480  0.00  0.00    +0.090 A 
ENDROOT
BRANCH   1   9
ATOM      7  C   LIG    1       -3.653   4.049 -11.361  0.00  0.00    +0.110 C 
ATOM      8  C   LIG    1       -3.027   3.744 -10.024  0.00  0.00    +0.510 C 
ATOM      9  N   LIG    1       -2.280   2.632  -9.868  0.00  0.00    -0.670 N 
ATOM     10  H   LIG    1       -2.082   2.070 -10.633  0.00  0.00    +0.410 HD
ATOM     11  O   LIG    1       -3.195   4.498  -9.089  0.00  0.00    -0.530 OA
ENDBRANCH   1   9
BRANCH   5  12
ATOM     12  C   LIG    1        1.264   0.643  -7.100  0.00  0.00    +0.510 C 
ATOM     13  F   LIG    1        1.095  -0.600  -6.480  0.00  0.00    -0.180 F 
ATOM     14  F   LIG    1        2.118   1.438  -6.327  0.00  0.00    -0.180 F 
ATOM     15  F   LIG    1        1.820   0.459  -8.370  0.00  0.00    -0.180 F 
ENDBRANCH   5  12
BRANCH   4  16
ATOM     16  N   LIG    1       -0.331   1.273  -4.831  0.00  0.00    -0.730 N 
ATOM     17  H   LIG    1        0.528   0.830  -4.747  0.00  0.00    +0.410 HD
BRANCH  16  18
ATOM     18  C   LIG    1       -1.115   1.584  -3.634  0.00  0.00    +0.300 C 
BRANCH  18  19
ATOM     19  C   LIG    1       -0.370   1.116  -2.410  0.00  0.00    +0.510 C 
ATOM     20  N   LIG    1       -0.904   1.298  -1.186  0.00  0.00    -0.720 N 
ATOM     21  H   LIG    1       -1.768   1.730  -1.092  0.00  0.00    +0.400 HD
ATOM     22  O   LIG    1        0.709   0.576  -2.526  0.00  0.00    -0.530 OA
BRANCH  20  23
ATOM     23  C   LIG    1       -0.180   0.843   0.004  0.00  0.00    +0.260 C 
BRANCH  23  24
ATOM     24  C   LIG    1       -1.000   1.168   1.255  0.00  0.00    -0.020 C 
ATOM     25  C   LIG    1       -1.117   2.686   1.408  0.00  0.00    +0.010 C 
ATOM     26  C   LIG    1       -1.936   3.010   2.658  0.00  0.00    +0.000 C 
ATOM     27  C   LIG    1       -1.241   2.426   3.890  0.00  0.00    +0.000 C 
ATOM     28  C   LIG    1       -1.124   0.908   3.737  0.00  0.00    +0.000 C 
ATOM     29  C   LIG    1       -0.305   0.583   2.486  0.00  0.00    +0.030 C 
ENDBRANCH  23  24
ENDBRANCH  20  23
ENDBRANCH  18  19
ENDBRANCH  16  18
ENDBRANCH   4  16
TORSDOF 7
