REMARK  Name = ZINCrD0000071e21.0
REMARK                            x       y       z     vdW  Elec       q    Type
REMARK                         _______ _______ _______ _____ _____    ______ ____
ROOT
ATOM      1  N   LIG    1       -1.547  -2.604  -0.072  0.00  0.00    -0.720 N 
ATOM      2  H   LIG    1       -2.499  -2.431  -0.011  0.00  0.00    +0.400 HD
ATOM      3  C   LIG    1       -0.678  -1.576  -0.140  0.00  0.00    +0.560 C 
ATOM      4  O   LIG    1        0.516  -1.792  -0.215  0.00  0.00    -0.510 OA
ENDROOT
BRANCH   1   9
ATOM      5  C   LIG    1       -1.714  -7.851  -1.303  0.00  0.00    +0.520 C 
ATOM      6  N   LIG    1       -1.202  -6.724  -0.769  0.00  0.00    -0.620 N 
ATOM      7  C   LIG    1       -1.532  -6.333   0.609  0.00  0.00    +0.280 C 
ATOM      8  C   LIG    1       -2.068  -4.898   0.598  0.00  0.00    +0.010 C 
ATOM      9  C   LIG    1       -1.052  -3.983  -0.090  0.00  0.00    +0.240 C 
ATOM     10  C   LIG    1       -0.855  -4.435  -1.538  0.00  0.00    +0.010 C 
ATOM     11  C   LIG    1       -0.305  -5.865  -1.552  0.00  0.00    +0.280 C 
ATOM     12  O   LIG    1       -2.378  -8.600  -0.618  0.00  0.00    -0.540 OA
BRANCH   5  14
ATOM     13  C   LIG    1       -0.116  -8.900  -2.883  0.00  0.00    +0.050 C 
ATOM     14  C   LIG    1       -1.460  -8.181  -2.752  0.00  0.00    -0.030 C 
ATOM     15  C   LIG    1       -2.577  -9.088  -3.272  0.00  0.00    +0.050 C 
ENDBRANCH   5  14
ENDBRANCH   1   9
BRANCH   3  16
ATOM     16  C   LIG    1       -1.176  -0.188  -0.122  0.00  0.00    -0.140 A 
ATOM     17  C   LIG    1       -2.547   0.066  -0.035  0.00  0.00    +0.070 A 
ATOM     18  C   LIG    1       -3.006   1.365  -0.018  0.00  0.00    -0.010 A 
ATOM     19  C   LIG    1       -2.114   2.424  -0.087  0.00  0.00    +0.060 A 
ATOM     20  C   LIG    1       -0.757   2.190  -0.173  0.00  0.00    -0.020 A 
ATOM     21  C   LIG    1       -0.275   0.887  -0.192  0.00  0.00    -0.050 A 
BRANCH  21  22
ATOM     22  S   LIG    1        1.458   0.585  -0.302  0.00  0.00    +0.030 S 
BRANCH  22  23
ATOM     23  C   LIG    1        2.160   2.256  -0.365  0.00  0.00    +0.000 C 
BRANCH  23  24
ATOM     24  C   LIG    1        3.684   2.166  -0.464  0.00  0.00    +0.190 C 
ATOM     25  C   LIG    1        4.298   3.581  -0.402  0.00  0.00    +0.020 C 
ATOM     26  C   LIG    1        5.449   3.487  -1.441  0.00  0.00    +0.010 C 
ATOM     27  C   LIG    1        4.823   2.530  -2.487  0.00  0.00    +0.200 C 
ATOM     28  O   LIG    1        4.056   1.587  -1.721  0.00  0.00    -0.370 OA
ENDBRANCH  23  24
ENDBRANCH  22  23
ENDBRANCH  21  22
ENDBRANCH   3  16
TORSDOF 6
