REMARK  Name = ZINCpe00000MJIgz.1
REMARK                            x       y       z     vdW  Elec       q    Type
REMARK                         _______ _______ _______ _____ _____    ______ ____
ROOT
ATOM      1  C   LIG    1       -5.994  -1.412   0.858  0.00  0.00    +0.170 C 
ATOM      2  C   LIG    1       -5.211  -2.541   0.138  0.00  0.00    +0.060 C 
ATOM      3  C   LIG    1       -3.769  -2.293   0.647  0.00  0.00    +0.300 C 
ATOM      4  N   LIG    1       -3.643  -0.827   0.722  0.00  0.00    -0.600 N 
ATOM      5  C   LIG    1       -2.488  -0.134   0.666  0.00  0.00    +0.610 C 
ATOM      6  O   LIG    1       -2.503   1.079   0.739  0.00  0.00    -0.540 OA
ATOM      7  C   LIG    1       -4.984  -0.245   0.875  0.00  0.00    +0.250 C 
ENDROOT
BRANCH   5   8
ATOM      8  C   LIG    1       -1.204  -0.849   0.517  0.00  0.00    -0.050 A 
ATOM      9  N   LIG    1       -1.188  -2.171   0.373  0.00  0.00    -0.370 NA
ATOM     10  C   LIG    1       -0.041  -2.807   0.246  0.00  0.00    +0.150 A 
ATOM     11  C   LIG    1        1.155  -2.103   0.254  0.00  0.00    +0.320 A 
ATOM     12  N   LIG    1        1.155  -0.789   0.390  0.00  0.00    -0.510 NA
ATOM     13  C   LIG    1        0.006  -0.136   0.520  0.00  0.00    +0.420 A 
BRANCH  13  14
ATOM     14  N   LIG    1        0.001   1.240   0.662  0.00  0.00    -0.810 N 
ATOM     15  H   LIG    1       -0.833   1.731   0.600  0.00  0.00    +0.430 HD
ATOM     16  H   LIG    1        0.833   1.713   0.821  0.00  0.00    +0.400 HD
ENDBRANCH  13  14
ENDBRANCH   5   8
BRANCH   1  17
ATOM     17  O   LIG    1       -7.166  -1.059   0.120  0.00  0.00    -0.290 OA
BRANCH  17  20
ATOM     18  C   LIG    1      -10.327   0.567   0.895  0.00  0.00    +0.170 A 
ATOM     19  C   LIG    1       -9.343  -0.068   0.166  0.00  0.00    -0.040 A 
ATOM     20  C   LIG    1       -8.159  -0.433   0.803  0.00  0.00    +0.170 A 
ATOM     21  C   LIG    1       -8.021  -0.145   2.158  0.00  0.00    -0.120 A 
ATOM     22  C   LIG    1       -9.051   0.498   2.815  0.00  0.00    +0.300 A 
ATOM     23  N   LIG    1      -10.158   0.828   2.177  0.00  0.00    -0.500 NA
BRANCH  18  24
ATOM     24  C   LIG    1      -11.612   0.968   0.217  0.00  0.00    +0.250 C 
BRANCH  24  26
ATOM     25  C   LIG    1      -12.992  -0.183   1.841  0.00  0.00    +0.180 C 
ATOM     26  N   LIG    1      -12.622  -0.080   0.423  0.00  0.00    -0.540 NA
ATOM     27  C   LIG    1      -13.805   0.158  -0.414  0.00  0.00    +0.190 C 
ENDBRANCH  24  26
ENDBRANCH  18  24
ENDBRANCH  17  20
ENDBRANCH   1  17
TORSDOF 6
