REMARK  Name = ZINCqH0000034gRW.0
REMARK                            x       y       z     vdW  Elec       q    Type
REMARK                         _______ _______ _______ _____ _____    ______ ____
ROOT
ATOM      1  N   LIG    1       -5.241  -0.406  -2.303  0.00  0.00    -0.670 N 
ATOM      2  H   LIG    1       -5.655  -1.061  -2.887  0.00  0.00    +0.410 HD
ATOM      3  C   LIG    1       -4.252   0.382  -2.769  0.00  0.00    +0.560 C 
ATOM      4  O   LIG    1       -3.671   1.138  -2.015  0.00  0.00    -0.510 OA
ENDROOT
BRANCH   1  10
ATOM      5  C   LIG    1       -4.879  -0.759   0.058  0.00  0.00    -0.060 A 
ATOM      6  C   LIG    1       -5.304  -0.629   1.366  0.00  0.00    +0.010 A 
ATOM      7  C   LIG    1       -6.520  -0.032   1.643  0.00  0.00    +0.020 A 
ATOM      8  C   LIG    1       -7.312   0.441   0.613  0.00  0.00    +0.010 A 
ATOM      9  C   LIG    1       -6.891   0.319  -0.696  0.00  0.00    -0.070 A 
ATOM     10  C   LIG    1       -5.670  -0.280  -0.978  0.00  0.00    +0.130 A 
BRANCH   5  12
ATOM     11  C   LIG    1       -2.794  -1.650   1.062  0.00  0.00    +0.030 C 
ATOM     12  C   LIG    1       -3.556  -1.415  -0.244  0.00  0.00    +0.060 C 
ENDBRANCH   5  12
BRANCH   9  13
ATOM     13  C   LIG    1       -7.755   0.835  -1.818  0.00  0.00    +0.060 C 
ATOM     14  C   LIG    1       -8.610  -0.307  -2.371  0.00  0.00    +0.030 C 
ENDBRANCH   9  13
ENDBRANCH   1  10
BRANCH   3  15
ATOM     15  C   LIG    1       -3.873   0.327  -4.197  0.00  0.00    -0.120 A 
ATOM     16  C   LIG    1       -4.541  -0.537  -5.066  0.00  0.00    +0.060 A 
ATOM     17  C   LIG    1       -4.182  -0.591  -6.397  0.00  0.00    +0.030 A 
ATOM     18  C   LIG    1       -3.164   0.213  -6.876  0.00  0.00    +0.060 A 
ATOM     19  C   LIG    1       -2.497   1.081  -6.020  0.00  0.00    +0.100 A 
ATOM     20  C   LIG    1       -2.850   1.142  -4.682  0.00  0.00    +0.100 A 
BRANCH  19  21
ATOM     21  N   LIG    1       -1.465   1.894  -6.511  0.00  0.00    -0.530 N 
ATOM     22  C   LIG    1       -1.571   3.226  -6.597  0.00  0.00    +0.520 C 
ATOM     23  C   LIG    1       -0.286   3.792  -7.161  0.00  0.00    +0.110 C 
ATOM     24  C   LIG    1        0.586   2.542  -7.398  0.00  0.00    +0.110 C 
ATOM     25  O   LIG    1       -2.542   3.875  -6.271  0.00  0.00    -0.470 OA
ATOM     26  C   LIG    1       -0.295   1.402  -6.938  0.00  0.00    +0.530 C 
ATOM     27  O   LIG    1        0.009   0.229  -6.953  0.00  0.00    -0.470 OA
ENDBRANCH  19  21
ENDBRANCH   3  15
TORSDOF 5
