REMARK  Name = ZINCkj000005j7wD.0
REMARK                            x       y       z     vdW  Elec       q    Type
REMARK                         _______ _______ _______ _____ _____    ______ ____
ROOT
ATOM      1  C   LIG    1       -5.000   0.126   1.459  0.00  0.00    +0.620 C 
ATOM      2  N   LIG    1       -4.204   0.806   0.609  0.00  0.00    -0.610 N 
ATOM      3  C   LIG    1       -4.426   2.159   0.045  0.00  0.00    +0.270 C 
ATOM      4  C   LIG    1       -3.027   2.817   0.044  0.00  0.00    -0.020 C 
ATOM      5  C   LIG    1       -2.046   1.638   0.029  0.00  0.00    -0.080 C 
ATOM      6  C   LIG    1       -0.959   1.695  -1.043  0.00  0.00    +0.030 C 
ATOM      7  C   LIG    1       -0.013   1.086   0.008  0.00  0.00    +0.030 C 
ATOM      8  C   LIG    1       -0.938   1.683   1.083  0.00  0.00    +0.040 C 
ATOM      9  C   LIG    1       -2.910   0.369   0.029  0.00  0.00    +0.300 C 
ATOM     10  O   LIG    1       -4.678  -0.985   1.835  0.00  0.00    -0.510 OA
ENDROOT
BRANCH   1  13
ATOM     11  C   LIG    1       -7.792   2.329   2.059  0.00  0.00    +0.000 A 
ATOM     12  N   LIG    1       -6.671   1.943   1.560  0.00  0.00    -0.450 NA
ATOM     13  C   LIG    1       -6.258   0.728   1.932  0.00  0.00    -0.000 A 
ATOM     14  C   LIG    1       -7.105   0.101   2.779  0.00  0.00    -0.040 A 
ATOM     15  S   LIG    1       -8.437   1.127   3.086  0.00  0.00    +0.310 S 
BRANCH  11  17
ATOM     16  C   LIG    1       -9.624   3.456   0.825  0.00  0.00    +0.060 C 
ATOM     17  C   LIG    1       -8.444   3.658   1.778  0.00  0.00    +0.230 C 
BRANCH  17  18
ATOM     18  N   LIG    1       -8.926   4.243   3.036  0.00  0.00    -0.850 NA
ATOM     19  H   LIG    1       -9.367   5.136   2.874  0.00  0.00    +0.360 HD
ATOM     20  H   LIG    1       -8.176   4.327   3.706  0.00  0.00    +0.350 HD
ENDBRANCH  17  18
ENDBRANCH  11  17
ENDBRANCH   1  13
BRANCH   4  21
ATOM     21  C   LIG    1       -2.844   3.679  -1.207  0.00  0.00    +0.280 C 
BRANCH  21  22
ATOM     22  N   LIG    1       -3.706   4.865  -1.114  0.00  0.00    -0.640 N 
ATOM     23  H   LIG    1       -3.585   5.434  -1.939  0.00  0.00    +0.440 HD
ATOM     24  H   LIG    1       -3.455   5.401  -0.297  0.00  0.00    +0.440 HD
ATOM     25  H   LIG    1       -4.670   4.575  -1.044  0.00  0.00    +0.430 HD
ENDBRANCH  21  22
ENDBRANCH   4  21
TORSDOF 5
