REMARK  Name = ZINCtV000002DXdu.0
REMARK                            x       y       z     vdW  Elec       q    Type
REMARK                         _______ _______ _______ _____ _____    ______ ____
ROOT
ATOM      1  C   LIG    1        0.573   7.394  -0.051  0.00  0.00    +0.150 A 
ATOM      2  N   LIG    1       -0.725   7.386  -0.236  0.00  0.00    -0.470 NA
ATOM      3  C   LIG    1       -1.183   6.128  -0.056  0.00  0.00    +0.060 A 
ATOM      4  C   LIG    1       -0.097   5.342   0.265  0.00  0.00    +0.010 A 
ATOM      5  O   LIG    1        0.986   6.154   0.258  0.00  0.00    -0.170 OA
ENDROOT
BRANCH   4   6
ATOM      6  C   LIG    1       -0.112   3.896   0.553  0.00  0.00    -0.020 A 
ATOM      7  C   LIG    1        0.814   3.048  -0.061  0.00  0.00    +0.040 A 
ATOM      8  C   LIG    1        0.794   1.697   0.214  0.00  0.00    +0.010 A 
ATOM      9  C   LIG    1       -0.138   1.180   1.096  0.00  0.00    +0.030 A 
ATOM     10  C   LIG    1       -1.061   2.013   1.704  0.00  0.00    +0.010 A 
ATOM     11  C   LIG    1       -1.051   3.367   1.443  0.00  0.00    +0.050 A 
ENDBRANCH   4   6
BRANCH   3  12
ATOM     12  C   LIG    1       -2.590   5.679  -0.177  0.00  0.00    -0.020 A 
ATOM     13  C   LIG    1       -2.888   4.478  -0.820  0.00  0.00    +0.030 A 
ATOM     14  C   LIG    1       -4.200   4.062  -0.924  0.00  0.00    +0.010 A 
ATOM     15  C   LIG    1       -5.218   4.839  -0.402  0.00  0.00    +0.020 A 
ATOM     16  C   LIG    1       -4.929   6.034   0.233  0.00  0.00    +0.010 A 
ATOM     17  C   LIG    1       -3.621   6.458   0.348  0.00  0.00    +0.040 A 
ENDBRANCH   3  12
BRANCH   1  18
ATOM     18  S   LIG    1        1.612   8.810  -0.185  0.00  0.00    +0.130 S 
BRANCH  18  19
ATOM     19  C   LIG    1        0.380  10.065  -0.615  0.00  0.00    +0.100 C 
BRANCH  19  22
ATOM     20  N   LIG    1        0.335  12.488  -1.108  0.00  0.00    -0.720 N 
ATOM     21  H   LIG    1       -0.624  12.413  -1.232  0.00  0.00    +0.400 HD
ATOM     22  C   LIG    1        1.060  11.399  -0.784  0.00  0.00    +0.540 C 
ATOM     23  O   LIG    1        2.259  11.492  -0.630  0.00  0.00    -0.520 OA
BRANCH  20  25
ATOM     24  C   LIG    1        1.539  13.903  -2.699  0.00  0.00    +0.040 C 
ATOM     25  C   LIG    1        0.996  13.785  -1.273  0.00  0.00    +0.330 C 
BRANCH  25  26
ATOM     26  C   LIG    1        0.004  14.890  -1.020  0.00  0.00    -0.200 A 
ATOM     27  C   LIG    1        0.263  16.021  -0.361  0.00  0.00    +0.020 A 
ATOM     28  C   LIG    1       -0.808  16.892  -0.253  0.00  0.00    +0.010 A 
ATOM     29  C   LIG    1       -1.936  16.468  -0.824  0.00  0.00    -0.030 A 
ATOM     30  S   LIG    1       -1.672  14.891  -1.555  0.00  0.00    +0.100 S 
ENDBRANCH  25  26
ENDBRANCH  20  25
ENDBRANCH  19  22
ENDBRANCH  18  19
ENDBRANCH   1  18
TORSDOF 7
