REMARK  Name = ZINCvU00000007TV.0
REMARK                            x       y       z     vdW  Elec       q    Type
REMARK                         _______ _______ _______ _____ _____    ______ ____
ROOT
ATOM      1  C   LIG    1       -3.178   4.265  -1.033  0.00  0.00    +0.150 A 
ATOM      2  N   LIG    1       -4.250   4.867  -0.570  0.00  0.00    -0.280 NA
ATOM      3  N   LIG    1       -4.236   4.870   0.715  0.00  0.00    -0.260 NA
ATOM      4  C   LIG    1       -3.157   4.265   1.153  0.00  0.00    +0.250 A 
ATOM      5  N   LIG    1       -2.446   3.855   0.047  0.00  0.00    -0.420 N 
ENDROOT
BRANCH   5   6
ATOM      6  C   LIG    1       -1.223   3.166   0.031  0.00  0.00    +0.050 A 
ATOM      7  C   LIG    1       -1.208   1.779   0.028  0.00  0.00    +0.120 A 
ATOM      8  C   LIG    1       -0.003   1.102   0.019  0.00  0.00    +0.010 A 
ATOM      9  C   LIG    1        1.189   1.806   0.002  0.00  0.00    +0.160 A 
ATOM     10  C   LIG    1        1.177   3.191  -0.000  0.00  0.00    -0.010 A 
ATOM     11  F   LIG    1        2.365   1.142  -0.012  0.00  0.00    -0.120 F 
ATOM     12  C   LIG    1       -0.026   3.873   0.015  0.00  0.00    +0.160 A 
ATOM     13  F   LIG    1       -0.038   5.224   0.013  0.00  0.00    -0.110 F 
ENDBRANCH   5   6
BRANCH   4  14
ATOM     14  C   LIG    1       -2.776   4.062   2.567  0.00  0.00    -0.030 A 
ATOM     15  C   LIG    1       -1.782   3.140   2.900  0.00  0.00    +0.010 A 
ATOM     16  C   LIG    1       -1.427   2.961   4.221  0.00  0.00    +0.010 A 
ATOM     17  C   LIG    1       -2.062   3.683   5.216  0.00  0.00    +0.030 A 
ATOM     18  C   LIG    1       -3.052   4.595   4.893  0.00  0.00    +0.010 A 
ATOM     19  C   LIG    1       -3.412   4.788   3.575  0.00  0.00    +0.070 A 
ENDBRANCH   4  14
BRANCH   1  20
ATOM     20  S   LIG    1       -2.762   4.027  -2.729  0.00  0.00    +0.100 S 
BRANCH  20  21
ATOM     21  C   LIG    1       -4.183   4.826  -3.516  0.00  0.00    +0.110 C 
BRANCH  21  24
ATOM     22  N   LIG    1       -4.987   5.275  -5.812  0.00  0.00    -0.660 N 
ATOM     23  H   LIG    1       -5.798   5.639  -5.425  0.00  0.00    +0.420 HD
ATOM     24  C   LIG    1       -4.040   4.743  -5.014  0.00  0.00    +0.530 C 
ATOM     25  O   LIG    1       -3.072   4.197  -5.501  0.00  0.00    -0.500 OA
BRANCH  22  32
ATOM     26  C   LIG    1       -7.292   5.381  -7.477  0.00  0.00    +0.080 C 
ATOM     27  C   LIG    1       -5.897   5.352  -8.048  0.00  0.00    -0.110 A 
ATOM     28  C   LIG    1       -5.710   5.377  -9.416  0.00  0.00    +0.030 A 
ATOM     29  C   LIG    1       -4.430   5.351  -9.940  0.00  0.00    -0.010 A 
ATOM     30  C   LIG    1       -3.335   5.299  -9.097  0.00  0.00    +0.030 A 
ATOM     31  C   LIG    1       -3.516   5.280  -7.728  0.00  0.00    +0.020 A 
ATOM     32  C   LIG    1       -4.800   5.300  -7.198  0.00  0.00    +0.140 A 
ENDBRANCH  22  32
ENDBRANCH  21  24
ENDBRANCH  20  21
ENDBRANCH   1  20
TORSDOF 6
