REMARK  Name = ZINCpk000000ojc7.0
REMARK                            x       y       z     vdW  Elec       q    Type
REMARK                         _______ _______ _______ _____ _____    ______ ____
ROOT
ATOM      1  C   LIG    1        2.849   2.128   1.988  0.00  0.00    +0.570 C 
ATOM      2  N   LIG    1        1.690   1.503   1.705  0.00  0.00    -0.610 N 
ATOM      3  C   LIG    1        0.504   2.264   1.286  0.00  0.00    +0.290 C 
ATOM      4  C   LIG    1       -0.681   1.842   2.161  0.00  0.00    +0.170 C 
ATOM      5  N   LIG    1       -0.829   0.382   2.107  0.00  0.00    -0.520 NA
ATOM      6  C   LIG    1        0.350  -0.295   2.663  0.00  0.00    +0.180 C 
ATOM      7  C   LIG    1        1.577   0.040   1.807  0.00  0.00    +0.300 C 
ATOM      8  O   LIG    1        3.792   1.495   2.424  0.00  0.00    -0.540 OA
ENDROOT
BRANCH   1  12
ATOM      9  C   LIG    1        3.213   6.312   1.359  0.00  0.00    +0.240 A 
ATOM     10  C   LIG    1        3.898   5.705   2.408  0.00  0.00    -0.080 A 
ATOM     11  C   LIG    1        3.783   4.350   2.615  0.00  0.00    +0.120 A 
ATOM     12  C   LIG    1        2.976   3.582   1.770  0.00  0.00    -0.200 A 
ATOM     13  C   LIG    1        2.293   4.193   0.714  0.00  0.00    +0.090 A 
ATOM     14  C   LIG    1        2.409   5.550   0.516  0.00  0.00    -0.080 A 
BRANCH   9  15
ATOM     15  N   LIG    1        3.332   7.682   1.154  0.00  0.00    -0.620 N 
ATOM     16  C   LIG    1        4.177   8.486   2.041  0.00  0.00    +0.280 C 
BRANCH  15  17
ATOM     17  C   LIG    1        2.611   8.323   0.051  0.00  0.00    +0.280 C 
BRANCH  17  19
ATOM     18  C   LIG    1        0.479   9.442  -0.616  0.00  0.00    +0.030 C 
ATOM     19  C   LIG    1        1.232   8.774   0.536  0.00  0.00    -0.010 C 
ENDBRANCH  17  19
ENDBRANCH  15  17
ENDBRANCH   9  15
ENDBRANCH   1  12
BRANCH   5  20
ATOM     20  C   LIG    1       -2.055  -0.048   2.793  0.00  0.00    +0.210 C 
BRANCH  20  21
ATOM     21  C   LIG    1       -2.303  -1.508   2.511  0.00  0.00    +0.510 C 
ATOM     22  N   LIG    1       -3.379  -2.123   3.040  0.00  0.00    -0.730 N 
ATOM     23  H   LIG    1       -3.994  -1.627   3.603  0.00  0.00    +0.400 HD
ATOM     24  O   LIG    1       -1.535  -2.128   1.807  0.00  0.00    -0.520 OA
BRANCH  22  25
ATOM     25  C   LIG    1       -3.620  -3.542   2.765  0.00  0.00    +0.250 C 
ATOM     26  C   LIG    1       -4.897  -3.990   3.480  0.00  0.00    +0.030 C 
ENDBRANCH  22  25
ENDBRANCH  20  21
ENDBRANCH   5  20
TORSDOF 7
