REMARK  Name = ZINCqH0000050ejB.0
REMARK                            x       y       z     vdW  Elec       q    Type
REMARK                         _______ _______ _______ _____ _____    ______ ____
ROOT
ATOM      1  N   LIG    1       -2.034   1.930  -0.813  0.00  0.00    -0.550 N 
ATOM      2  C   LIG    1       -2.221   1.732   0.630  0.00  0.00    +0.310 C 
ATOM      3  C   LIG    1       -0.798   1.528   1.207  0.00  0.00    +0.020 C 
ATOM      4  C   LIG    1       -0.037   0.988  -0.026  0.00  0.00    +0.100 C 
ATOM      5  C   LIG    1       -0.819   1.515  -1.209  0.00  0.00    +0.520 C 
ATOM      6  O   LIG    1       -0.407   1.559  -2.349  0.00  0.00    -0.500 OA
ENDROOT
BRANCH   1  10
ATOM      7  C   LIG    1       -3.300   3.559  -5.276  0.00  0.00    +0.100 C 
ATOM      8  C   LIG    1       -3.639   3.279  -3.834  0.00  0.00    -0.090 A 
ATOM      9  C   LIG    1       -2.684   2.743  -2.993  0.00  0.00    +0.030 A 
ATOM     10  C   LIG    1       -2.999   2.480  -1.666  0.00  0.00    +0.160 A 
ATOM     11  C   LIG    1       -4.269   2.767  -1.186  0.00  0.00    +0.010 A 
ATOM     12  C   LIG    1       -5.219   3.310  -2.029  0.00  0.00    +0.020 A 
ATOM     13  C   LIG    1       -4.905   3.566  -3.353  0.00  0.00    +0.070 A 
ATOM     14  F   LIG    1       -5.836   4.096  -4.176  0.00  0.00    -0.140 F 
ENDBRANCH   1  10
BRANCH   3  15
ATOM     15  C   LIG    1       -0.212   2.836   1.672  0.00  0.00    +0.520 C 
ATOM     16  N   LIG    1        1.069   2.890   2.088  0.00  0.00    -0.610 N 
ATOM     17  C   LIG    1        1.891   1.677   2.089  0.00  0.00    +0.300 C 
ATOM     18  O   LIG    1       -0.892   3.840   1.672  0.00  0.00    -0.520 OA
BRANCH  16  19
ATOM     19  C   LIG    1        1.639   4.161   2.541  0.00  0.00    +0.360 C 
BRANCH  19  20
ATOM     20  C   LIG    1        1.523   4.259   4.040  0.00  0.00    -0.090 A 
ATOM     21  C   LIG    1        0.850   3.280   4.746  0.00  0.00    +0.030 A 
ATOM     22  C   LIG    1        0.748   3.367   6.122  0.00  0.00    +0.020 A 
ATOM     23  C   LIG    1        1.309   4.438   6.792  0.00  0.00    +0.020 A 
ATOM     24  C   LIG    1        1.977   5.421   6.086  0.00  0.00    +0.030 A 
ATOM     25  C   LIG    1        2.085   5.332   4.709  0.00  0.00    -0.030 A 
ATOM     26 CL   LIG    1        2.924   6.565   3.822  0.00  0.00    -0.060 Cl
ENDBRANCH  19  20
ENDBRANCH  16  19
ENDBRANCH   3  15
TORSDOF 4
