REMARK  Name = ZINCbw0000000Hgd.0
REMARK                            x       y       z     vdW  Elec       q    Type
REMARK                         _______ _______ _______ _____ _____    ______ ____
ROOT
ATOM      1  C   LIG    1       -0.148   1.182   2.381  0.00  0.00    +0.060 A 
ATOM      2  C   LIG    1        0.993   0.398   2.422  0.00  0.00    +0.030 A 
ATOM      3  C   LIG    1        1.535   0.028   3.640  0.00  0.00    -0.110 A 
ATOM      4  C   LIG    1        0.939   0.439   4.820  0.00  0.00    +0.010 A 
ATOM      5  C   LIG    1       -0.201   1.222   4.786  0.00  0.00    -0.010 A 
ATOM      6 CL   LIG    1        1.625  -0.027   6.345  0.00  0.00    -0.040 Cl
ATOM      7 BR   LIG    1        3.093  -1.042   3.693  0.00  0.00    -0.030 Br
ATOM      8  C   LIG    1       -0.746   1.601   3.568  0.00  0.00    +0.230 A 
ENDROOT
BRANCH   8   9
ATOM      9  N   LIG    1       -1.896   2.398   3.531  0.00  0.00    -0.860 N 
ATOM     10  H   LIG    1       -2.311   2.689   4.358  0.00  0.00    +0.400 HD
ATOM     11  H   LIG    1       -2.278   2.659   2.679  0.00  0.00    +0.410 HD
ENDBRANCH   8   9
BRANCH   1  13
ATOM     12  C   LIG    1       -0.013   1.086   0.008  0.00  0.00    +0.250 C 
ATOM     13  O   LIG    1       -0.682   1.547   1.184  0.00  0.00    -0.320 OA
ENDBRANCH   1  13
TORSDOF 2
