REMARK  Name = ZINCrD00000hQ5rF.0
REMARK                            x       y       z     vdW  Elec       q    Type
REMARK                         _______ _______ _______ _____ _____    ______ ____
ROOT
ATOM      1  O   LIG    1       -7.368   0.233  -1.149  0.00  0.00    -0.530 OA
ATOM      2  C   LIG    1       -7.316   1.264  -0.514  0.00  0.00    +0.540 C 
ATOM      3  N   LIG    1       -6.181   1.992  -0.502  0.00  0.00    -0.620 N 
ATOM      4  C   LIG    1       -6.012   3.306   0.135  0.00  0.00    +0.240 C 
ATOM      5  C   LIG    1       -4.562   3.761  -0.133  0.00  0.00    +0.030 C 
ATOM      6  C   LIG    1       -4.164   2.937  -1.385  0.00  0.00    +0.250 C 
ATOM      7  C   LIG    1       -4.904   1.601  -1.127  0.00  0.00    +0.260 C 
ENDROOT
BRANCH   2   8
ATOM      8  C   LIG    1       -8.520   1.734   0.262  0.00  0.00    -0.010 C 
ATOM      9  C   LIG    1       -8.543   1.049   1.630  0.00  0.00    +0.020 C 
ATOM     10  C   LIG    1       -9.765   1.525   2.418  0.00  0.00    +0.010 C 
ATOM     11  C   LIG    1      -11.039   1.170   1.647  0.00  0.00    +0.010 C 
ATOM     12  C   LIG    1      -11.015   1.855   0.280  0.00  0.00    -0.010 C 
ATOM     13  C   LIG    1      -12.288   1.500  -0.491  0.00  0.00    +0.010 C 
ATOM     14  C   LIG    1      -12.265   2.185  -1.859  0.00  0.00    +0.000 C 
ATOM     15  C   LIG    1      -11.043   1.709  -2.646  0.00  0.00    +0.000 C 
ATOM     16  C   LIG    1       -9.769   2.064  -1.876  0.00  0.00    +0.000 C 
ATOM     17  C   LIG    1       -9.793   1.379  -0.508  0.00  0.00    +0.020 C 
ENDBRANCH   2   8
BRANCH   6  18
ATOM     18  N   LIG    1       -2.715   2.733  -1.441  0.00  0.00    -0.690 N 
ATOM     19  H   LIG    1       -2.314   1.977  -0.984  0.00  0.00    +0.420 HD
BRANCH  18  20
ATOM     20  C   LIG    1       -1.913   3.623  -2.149  0.00  0.00    +0.420 A 
ATOM     21  N   LIG    1       -2.462   4.646  -2.760  0.00  0.00    -0.350 NA
ATOM     22  N   LIG    1       -1.676   5.550  -3.481  0.00  0.00    -0.250 N 
ATOM     23  C   LIG    1       -1.974   6.669  -4.199  0.00  0.00    +0.170 A 
ATOM     24  C   LIG    1       -0.807   7.153  -4.689  0.00  0.00    +0.200 A 
ATOM     25  N   LIG    1        0.184   6.358  -4.287  0.00  0.00    -0.460 NA
ATOM     26  C   LIG    1       -0.319   5.376  -3.551  0.00  0.00    +0.140 A 
ATOM     27  C   LIG    1        0.270   4.280  -2.890  0.00  0.00    +0.180 A 
ATOM     28  C   LIG    1       -0.521   3.419  -2.197  0.00  0.00    -0.050 A 
ENDBRANCH  18  20
ENDBRANCH   6  18
TORSDOF 3
