REMARK  Name = ZINCrH000004q7DA.0
REMARK                            x       y       z     vdW  Elec       q    Type
REMARK                         _______ _______ _______ _____ _____    ______ ____
ROOT
ATOM      1  C   LIG    1        4.159  -2.511   0.033  0.00  0.00    +0.600 C 
ATOM      2  N   LIG    1        3.193  -1.590  -0.154  0.00  0.00    -0.610 N 
ATOM      3  C   LIG    1        2.134  -1.393   0.848  0.00  0.00    +0.290 C 
ATOM      4  C   LIG    1        0.777  -1.451   0.139  0.00  0.00    +0.180 C 
ATOM      5  N   LIG    1        0.767  -0.490  -0.972  0.00  0.00    -0.500 N 
ATOM      6  C   LIG    1        1.772  -0.837  -1.986  0.00  0.00    +0.190 C 
ATOM      7  C   LIG    1        3.170  -0.755  -1.364  0.00  0.00    +0.230 C 
ATOM      8  C   LIG    1        4.208  -1.269  -2.363  0.00  0.00    +0.060 C 
ATOM      9  O   LIG    1        4.969  -2.729  -0.847  0.00  0.00    -0.530 OA
ENDROOT
BRANCH   5  10
ATOM     10  C   LIG    1       -0.507  -0.394  -1.541  0.00  0.00    +0.050 A 
ATOM     11  C   LIG    1       -1.073  -1.496  -2.167  0.00  0.00    +0.010 A 
ATOM     12  C   LIG    1       -2.330  -1.397  -2.734  0.00  0.00    +0.010 A 
ATOM     13  C   LIG    1       -3.028  -0.206  -2.668  0.00  0.00    +0.040 A 
ATOM     14  C   LIG    1       -2.468   0.895  -2.045  0.00  0.00    -0.010 A 
ATOM     15  C   LIG    1       -1.209   0.805  -1.481  0.00  0.00    +0.130 A 
ATOM     16  F   LIG    1       -0.662   1.880  -0.872  0.00  0.00    -0.130 F 
ENDBRANCH   5  10
BRANCH   1  19
ATOM     17  C   LIG    1        4.886  -5.558   0.347  0.00  0.00    +0.150 C 
ATOM     18  C   LIG    1        4.550  -4.591   1.453  0.00  0.00    +0.150 A 
ATOM     19  C   LIG    1        4.232  -3.256   1.303  0.00  0.00    -0.300 A 
ATOM     20  C   LIG    1        3.985  -2.738   2.594  0.00  0.00    +0.270 A 
ATOM     21  N   LIG    1        4.151  -3.704   3.455  0.00  0.00    -0.290 NA
ATOM     22  N   LIG    1        4.507  -4.869   2.766  0.00  0.00    -0.350 N 
BRANCH  22  23
ATOM     23  C   LIG    1        4.780  -6.173   3.374  0.00  0.00    +0.260 C 
ATOM     24  C   LIG    1        3.562  -6.638   4.199  0.00  0.00    +0.020 C 
ATOM     25  C   LIG    1        4.183  -7.343   5.430  0.00  0.00    +0.020 C 
ATOM     26  C   LIG    1        5.416  -6.460   5.744  0.00  0.00    +0.020 C 
ATOM     27  C   LIG    1        5.959  -6.060   4.357  0.00  0.00    +0.030 C 
ENDBRANCH  22  23
ENDBRANCH   1  19
TORSDOF 3
