REMARK  Name = ZINCrg00000IZCpB.0
REMARK                            x       y       z     vdW  Elec       q    Type
REMARK                         _______ _______ _______ _____ _____    ______ ____
ROOT
ATOM      1  S   LIG    1       -0.347   1.284  -2.747  0.00  0.00    +2.700 S 
ATOM      2  O   LIG    1        1.040   0.972  -2.745  0.00  0.00    -0.940 OA
ATOM      3  O   LIG    1       -0.905   2.336  -3.522  0.00  0.00    -0.940 OA
ENDROOT
BRANCH   1   4
ATOM      4  C   LIG    1       -1.188  -0.188  -3.227  0.00  0.00    -0.700 A 
ATOM      5  C   LIG    1       -0.582  -1.419  -3.047  0.00  0.00    +0.150 A 
ATOM      6  C   LIG    1       -1.241  -2.575  -3.418  0.00  0.00    -0.040 A 
ATOM      7  C   LIG    1       -2.508  -2.500  -3.981  0.00  0.00    +0.230 A 
ATOM      8  C   LIG    1       -3.111  -1.263  -4.165  0.00  0.00    -0.020 A 
ATOM      9  C   LIG    1       -2.450  -0.111  -3.787  0.00  0.00    +0.150 A 
BRANCH   7  10
ATOM     10  N   LIG    1       -3.176  -3.669  -4.362  0.00  0.00    -0.560 N 
ATOM     11  C   LIG    1       -2.581  -5.010  -4.329  0.00  0.00    +0.270 C 
ATOM     12  C   LIG    1       -3.776  -5.990  -4.400  0.00  0.00    +0.060 C 
ATOM     13  C   LIG    1       -4.842  -5.133  -5.120  0.00  0.00    +0.070 C 
ATOM     14  C   LIG    1       -4.442  -3.707  -4.812  0.00  0.00    +0.520 C 
ATOM     15  O   LIG    1       -5.160  -2.739  -4.949  0.00  0.00    -0.500 OA
ENDBRANCH   7  10
ENDBRANCH   1   4
BRANCH   1  20
ATOM     16  C   LIG    1       -0.042   1.101   0.012  0.00  0.00    +0.380 C 
ATOM     17  C   LIG    1       -0.796   1.619   1.255  0.00  0.00    +0.100 C 
ATOM     18  C   LIG    1       -2.219   1.901   0.706  0.00  0.00    +0.190 C 
ATOM     19  C   LIG    1       -1.906   2.409  -0.724  0.00  0.00    +0.270 C 
ATOM     20  N   LIG    1       -0.758   1.593  -1.173  0.00  0.00    -1.000 NA
BRANCH  16  25
ATOM     21  C   LIG    1        4.936   1.522   0.361  0.00  0.00    +0.210 C 
ATOM     22  C   LIG    1        3.472   1.820   0.157  0.00  0.00    +0.170 A 
ATOM     23  N   LIG    1        2.959   2.970  -0.164  0.00  0.00    -0.380 NA
ATOM     24  O   LIG    1        1.752   2.881  -0.252  0.00  0.00    +0.080 OA
ATOM     25  C   LIG    1        1.370   1.628   0.013  0.00  0.00    +0.160 A 
ATOM     26  N   LIG    1        2.458   0.946   0.280  0.00  0.00    -0.460 NA
ENDBRANCH  16  25
BRANCH  18  27
ATOM     27  O   LIG    1       -2.999   0.704   0.665  0.00  0.00    -0.550 OA
ATOM     28  H   LIG    1       -3.897   0.831   0.328  0.00  0.00    +0.390 HD
ENDBRANCH  18  27
ENDBRANCH   1  20
TORSDOF 5
