REMARK  Name = ZINCnE000001NO2V.0
REMARK                            x       y       z     vdW  Elec       q    Type
REMARK                         _______ _______ _______ _____ _____    ______ ____
ROOT
ATOM      1  C   LIG    1        8.068  -2.315  -0.030  0.00  0.00    +0.170 C 
ENDROOT
BRANCH   1   2
ATOM      2  C   LIG    1        9.495  -1.835   0.029  0.00  0.00    -0.110 A 
ATOM      3  C   LIG    1        9.790  -0.511  -0.232  0.00  0.00    +0.090 A 
ATOM      4  C   LIG    1       11.100  -0.071  -0.178  0.00  0.00    -0.020 A 
ATOM      5  C   LIG    1       12.115  -0.955   0.136  0.00  0.00    +0.010 A 
ATOM      6  C   LIG    1       11.822  -2.280   0.397  0.00  0.00    -0.030 A 
ATOM      7  C   LIG    1       10.511  -2.721   0.349  0.00  0.00    +0.080 A 
ATOM      8  F   LIG    1       10.222  -4.014   0.611  0.00  0.00    -0.140 F 
ENDBRANCH   1   2
BRANCH   1  10
ATOM      9  C   LIG    1        6.340  -3.390  -1.480  0.00  0.00    +0.050 C 
ATOM     10  C   LIG    1        7.819  -3.016  -1.367  0.00  0.00    +0.180 C 
BRANCH  10  11
ATOM     11  O   LIG    1        8.617  -4.199  -1.440  0.00  0.00    -0.570 OA
ATOM     12  H   LIG    1        9.568  -4.037  -1.375  0.00  0.00    +0.360 HD
ENDBRANCH  10  11
ENDBRANCH   1  10
BRANCH   1  13
ATOM     13  N   LIG    1        7.162  -1.170   0.097  0.00  0.00    -0.650 NA
BRANCH  13  14
ATOM     14  C   LIG    1        6.649  -0.833   1.327  0.00  0.00    +0.410 A 
ATOM     15  N   LIG    1        5.915   0.227   1.608  0.00  0.00    -0.590 NA
ATOM     16  C   LIG    1        5.649   0.140   2.929  0.00  0.00    +0.200 A 
ATOM     17  N   LIG    1        6.217  -0.952   3.370  0.00  0.00    -0.450 NA
ATOM     18  O   LIG    1        6.794  -1.521   2.468  0.00  0.00    -0.060 OA
BRANCH  16  19
ATOM     19  C   LIG    1        4.853   1.103   3.731  0.00  0.00    +0.020 A 
ATOM     20  C   LIG    1        4.654   0.882   5.093  0.00  0.00    +0.030 A 
ATOM     21  C   LIG    1        3.913   1.781   5.834  0.00  0.00    -0.010 A 
ATOM     22  C   LIG    1        3.370   2.900   5.227  0.00  0.00    +0.000 A 
ATOM     23  C   LIG    1        3.565   3.123   3.877  0.00  0.00    -0.010 A 
ATOM     24  C   LIG    1        4.303   2.231   3.126  0.00  0.00    +0.050 A 
ENDBRANCH  16  19
ENDBRANCH  13  14
ENDBRANCH   1  13
TORSDOF 6
