REMARK  Name = ZINCrD00000F5Lqx.0
REMARK                            x       y       z     vdW  Elec       q    Type
REMARK                         _______ _______ _______ _____ _____    ______ ____
ROOT
ATOM      1  N   LIG    1       -2.347   0.048   0.609  0.00  0.00    -0.720 N 
ATOM      2  H   LIG    1       -2.312   1.014   0.528  0.00  0.00    +0.400 HD
ATOM      3  C   LIG    1       -3.365  -0.537   1.270  0.00  0.00    +0.550 C 
ATOM      4  O   LIG    1       -3.409  -1.749   1.371  0.00  0.00    -0.540 OA
ENDROOT
BRANCH   1   5
ATOM      5  C   LIG    1       -1.293  -0.775   0.010  0.00  0.00    +0.300 C 
ATOM      6  C   LIG    1       -1.712  -1.194  -1.400  0.00  0.00    +0.040 C 
BRANCH   5  10
ATOM      7  C   LIG    1        2.334   1.482  -0.193  0.00  0.00    +0.170 A 
ATOM      8  C   LIG    1        1.107   2.130  -0.214  0.00  0.00    -0.110 A 
ATOM      9  C   LIG    1       -0.063   1.398  -0.149  0.00  0.00    +0.090 A 
ATOM     10  C   LIG    1       -0.015   0.020  -0.061  0.00  0.00    -0.160 A 
ATOM     11  C   LIG    1        1.210  -0.632  -0.040  0.00  0.00    +0.180 A 
ATOM     12  C   LIG    1        2.385   0.100  -0.106  0.00  0.00    -0.100 A 
BRANCH   7  14
ATOM     13  C   LIG    1        3.357   3.623  -0.346  0.00  0.00    +0.250 C 
ATOM     14  O   LIG    1        3.485   2.203  -0.258  0.00  0.00    -0.320 OA
ENDBRANCH   7  14
BRANCH  11  15
ATOM     15  O   LIG    1        1.257  -1.988   0.045  0.00  0.00    -0.310 OA
ATOM     16  C   LIG    1        2.551  -2.592   0.062  0.00  0.00    +0.240 C 
ENDBRANCH  11  15
ENDBRANCH   5  10
ENDBRANCH   1   5
BRANCH   3  17
ATOM     17  C   LIG    1       -4.417   0.285   1.868  0.00  0.00    -0.090 C 
ATOM     18  C   LIG    1       -5.437  -0.301   2.530  0.00  0.00    +0.130 C 
BRANCH  18  19
ATOM     19  C   LIG    1       -6.494   0.524   3.131  0.00  0.00    -0.070 A 
ATOM     20  C   LIG    1       -6.447   1.918   3.017  0.00  0.00    +0.050 A 
ATOM     21  C   LIG    1       -7.439   2.688   3.582  0.00  0.00    +0.020 A 
ATOM     22  C   LIG    1       -8.490   2.087   4.264  0.00  0.00    +0.060 A 
ATOM     23  O   LIG    1       -9.456   2.869   4.817  0.00  0.00    -0.310 OA
ATOM     24  C   LIG    1      -10.685   2.223   5.169  0.00  0.00    +0.230 C 
ATOM     25  C   LIG    1      -10.349   0.924   5.914  0.00  0.00    +0.230 C 
ATOM     26  O   LIG    1       -9.570   0.096   5.043  0.00  0.00    -0.310 OA
ATOM     27  C   LIG    1       -8.545   0.699   4.380  0.00  0.00    +0.050 A 
ATOM     28  C   LIG    1       -7.556  -0.081   3.813  0.00  0.00    +0.050 A 
ENDBRANCH  18  19
ENDBRANCH   3  17
TORSDOF 6
