REMARK  Name = ZINCpk00000y6wXe.0
REMARK                            x       y       z     vdW  Elec       q    Type
REMARK                         _______ _______ _______ _____ _____    ______ ____
ROOT
ATOM      1  C   LIG    1       -4.561   2.659   4.027  0.00  0.00    +0.310 C 
ENDROOT
BRANCH   1   2
ATOM      2  C   LIG    1       -4.215   1.512   3.076  0.00  0.00    +0.160 C 
ATOM      3  C   LIG    1       -5.505   0.848   2.527  0.00  0.00    +0.070 C 
ATOM      4  C   LIG    1       -5.028   0.215   1.199  0.00  0.00    +0.160 C 
ATOM      5  C   LIG    1       -3.756   0.994   0.815  0.00  0.00    +0.190 C 
ATOM      6  N   LIG    1       -3.549   2.027   1.852  0.00  0.00    -0.450 N 
BRANCH   6   7
ATOM      7  C   LIG    1       -2.199   2.244   2.075  0.00  0.00    +0.340 A 
ATOM      8  C   LIG    1       -1.423   2.918   1.131  0.00  0.00    -0.070 A 
ATOM      9  C   LIG    1       -0.083   3.113   1.401  0.00  0.00    +0.330 A 
ATOM     10  N   LIG    1        0.421   2.649   2.536  0.00  0.00    -0.530 NA
ATOM     11  C   LIG    1       -0.337   2.012   3.406  0.00  0.00    +0.520 A 
ATOM     12  N   LIG    1       -1.621   1.808   3.191  0.00  0.00    -0.550 NA
ENDBRANCH   6   7
BRANCH   4  13
ATOM     13  O   LIG    1       -6.027   0.369   0.190  0.00  0.00    -0.370 OA
ATOM     14  C   LIG    1       -6.014  -0.660  -0.802  0.00  0.00    +0.200 C 
ENDBRANCH   4  13
ENDBRANCH   1   2
BRANCH   1  15
ATOM     15  N   LIG    1       -5.108   2.114   5.272  0.00  0.00    -0.680 N 
ATOM     16  H   LIG    1       -5.131   1.154   5.412  0.00  0.00    +0.410 HD
BRANCH  15  20
ATOM     17  C   LIG    1       -6.500   4.654   8.073  0.00  0.00    -0.040 A 
ATOM     18  N   LIG    1       -5.998   5.102   6.936  0.00  0.00    -0.150 NA
ATOM     19  N   LIG    1       -5.552   4.280   6.051  0.00  0.00    -0.330 NA
ATOM     20  C   LIG    1       -5.592   2.968   6.248  0.00  0.00    +0.500 A 
ATOM     21  N   LIG    1       -6.087   2.466   7.373  0.00  0.00    -0.520 NA
ATOM     22  C   LIG    1       -6.548   3.287   8.304  0.00  0.00    +0.210 A 
BRANCH  17  24
ATOM     23  C   LIG    1       -8.492   5.919   8.837  0.00  0.00    +0.040 C 
ATOM     24  C   LIG    1       -7.017   5.619   9.110  0.00  0.00    +0.120 C 
ENDBRANCH  17  24
BRANCH  22  25
ATOM     25  C   LIG    1       -7.116   2.745   9.590  0.00  0.00    +0.110 C 
ATOM     26  C   LIG    1       -5.989   2.567  10.610  0.00  0.00    +0.040 C 
ENDBRANCH  22  25
ENDBRANCH  15  20
ENDBRANCH   1  15
TORSDOF 7
