REMARK  Name = ZINCrg000000oLx5.0
REMARK                            x       y       z     vdW  Elec       q    Type
REMARK                         _______ _______ _______ _____ _____    ______ ____
ROOT
ATOM      1  N   LIG    1       -2.306  -2.276   2.539  0.00  0.00    -0.720 N 
ATOM      2  H   LIG    1       -1.807  -2.245   1.708  0.00  0.00    +0.410 HD
ATOM      3  C   LIG    1       -3.627  -2.007   2.542  0.00  0.00    +0.500 C 
ATOM      4  O   LIG    1       -4.251  -2.046   3.582  0.00  0.00    -0.520 OA
ENDROOT
BRANCH   3   5
ATOM      5  C   LIG    1       -4.329  -1.660   1.255  0.00  0.00    +0.220 C 
ATOM      6  C   LIG    1       -4.231  -2.843   0.269  0.00  0.00    +0.060 C 
ATOM      7  C   LIG    1       -5.625  -2.842  -0.414  0.00  0.00    +0.040 C 
ATOM      8  C   LIG    1       -6.544  -2.413   0.756  0.00  0.00    +0.260 C 
ATOM      9  N   LIG    1       -5.756  -1.419   1.512  0.00  0.00    -0.600 N 
ATOM     10  C   LIG    1       -6.258  -0.453   2.307  0.00  0.00    +0.590 C 
ATOM     11  O   LIG    1       -7.461  -0.329   2.427  0.00  0.00    -0.530 OA
BRANCH  10  12
ATOM     12  C   LIG    1       -5.345   0.456   3.033  0.00  0.00    -0.110 A 
ATOM     13  C   LIG    1       -4.262   1.037   2.372  0.00  0.00    +0.020 A 
ATOM     14  C   LIG    1       -3.417   1.888   3.054  0.00  0.00    +0.010 A 
ATOM     15  C   LIG    1       -3.635   2.158   4.393  0.00  0.00    +0.030 A 
ATOM     16  C   LIG    1       -4.704   1.580   5.056  0.00  0.00    +0.010 A 
ATOM     17  C   LIG    1       -5.559   0.732   4.384  0.00  0.00    +0.070 A 
ENDBRANCH  10  12
ENDBRANCH   3   5
BRANCH   1  18
ATOM     18  C   LIG    1       -1.624  -2.613   3.791  0.00  0.00    +0.290 C 
BRANCH  18  22
ATOM     19  C   LIG    1        1.833  -1.603   3.614  0.00  0.00    +0.180 C 
ATOM     20  C   LIG    1        2.046  -2.862   4.481  0.00  0.00    +0.040 C 
ATOM     21  C   LIG    1        0.588  -3.283   4.814  0.00  0.00    +0.030 C 
ATOM     22  C   LIG    1       -0.142  -2.870   3.511  0.00  0.00    +0.150 C 
ATOM     23  O   LIG    1        0.503  -1.659   3.087  0.00  0.00    -0.340 OA
BRANCH  19  26
ATOM     24  C   LIG    1        5.116  -1.444   1.651  0.00  0.00    +0.290 C 
ATOM     25  N   LIG    1        4.147  -1.461   2.749  0.00  0.00    -0.620 N 
ATOM     26  C   LIG    1        2.831  -1.585   2.485  0.00  0.00    +0.500 C 
ATOM     27  O   LIG    1        2.450  -1.682   1.337  0.00  0.00    -0.520 OA
ATOM     28  C   LIG    1        4.607  -1.343   4.135  0.00  0.00    +0.280 C 
ENDBRANCH  19  26
ENDBRANCH  18  22
ENDBRANCH   1  18
TORSDOF 5
