REMARK  Name = ZINCpe000000TDm1.0
REMARK                            x       y       z     vdW  Elec       q    Type
REMARK                         _______ _______ _______ _____ _____    ______ ____
ROOT
ATOM      1  N   LIG    1        5.151   3.188  -1.691  0.00  0.00    -0.720 N 
ATOM      2  H   LIG    1        5.733   3.450  -0.961  0.00  0.00    +0.410 HD
ATOM      3  C   LIG    1        4.023   2.495  -1.438  0.00  0.00    +0.510 C 
ATOM      4  O   LIG    1        3.295   2.169  -2.352  0.00  0.00    -0.490 OA
ENDROOT
BRANCH   1   5
ATOM      5  C   LIG    1        5.497   3.548  -3.068  0.00  0.00    +0.190 C 
ATOM      6  C   LIG    1        5.738   2.274  -3.917  0.00  0.00    +0.050 C 
ATOM      7  C   LIG    1        7.192   1.885  -3.537  0.00  0.00    +0.020 C 
ATOM      8  C   LIG    1        7.924   3.237  -3.407  0.00  0.00    +0.020 C 
ATOM      9  C   LIG    1        6.847   4.294  -3.109  0.00  0.00    +0.060 C 
BRANCH   5  10
ATOM     10  C   LIG    1        4.409   4.392  -3.681  0.00  0.00    +0.460 C 
ATOM     11  O   LIG    1        4.692   5.263  -4.469  0.00  0.00    -0.510 OA
BRANCH  10  12
ATOM     12  O   LIG    1        3.126   4.175  -3.352  0.00  0.00    -0.310 OA
BRANCH  12  14
ATOM     13  C   LIG    1        0.738   4.633  -3.487  0.00  0.00    +0.050 C 
ATOM     14  C   LIG    1        2.132   5.026  -3.981  0.00  0.00    +0.180 C 
ENDBRANCH  12  14
ENDBRANCH  10  12
ENDBRANCH   5  10
ENDBRANCH   1   5
BRANCH   3  15
ATOM     15  C   LIG    1        3.667   2.126  -0.022  0.00  0.00    +0.160 C 
BRANCH  15  16
ATOM     16  C   LIG    1        2.369   1.359  -0.013  0.00  0.00    -0.260 A 
ATOM     17  C   LIG    1        2.380   0.007  -0.021  0.00  0.00    +0.230 A 
ATOM     18  N   LIG    1        1.206  -0.683  -0.013  0.00  0.00    -0.600 N 
ATOM     19  H   LIG    1        1.214  -1.653  -0.018  0.00  0.00    +0.430 HD
ATOM     20  C   LIG    1        0.002  -0.004   0.002  0.00  0.00    +0.300 A 
ATOM     21  C   LIG    1       -1.293  -0.429   0.013  0.00  0.00    -0.120 A 
ATOM     22  C   LIG    1       -2.114   0.700   0.027  0.00  0.00    +0.290 A 
ATOM     23  N   LIG    1       -1.356   1.768   0.030  0.00  0.00    -0.260 NA
ATOM     24  N   LIG    1       -0.016   1.361   0.009  0.00  0.00    -0.360 N 
ATOM     25  C   LIG    1        3.691  -0.736  -0.037  0.00  0.00    +0.150 C 
ATOM     26  C   LIG    1        1.141   2.051   0.002  0.00  0.00    +0.580 A 
ATOM     27  O   LIG    1        1.126   3.269   0.008  0.00  0.00    -0.480 OA
ENDBRANCH  15  16
ENDBRANCH   3  15
TORSDOF 6
