REMARK  Name = ZINCtV00000tRRwT.0
REMARK                            x       y       z     vdW  Elec       q    Type
REMARK                         _______ _______ _______ _____ _____    ______ ____
ROOT
ATOM      1  C   LIG    1       -2.824   1.347  -0.115  0.00  0.00    -0.190 A 
ATOM      2  C   LIG    1       -3.802   2.335  -0.311  0.00  0.00    +0.190 A 
ATOM      3  O   LIG    1       -5.144   2.247  -0.408  0.00  0.00    -0.190 OA
ATOM      4  C   LIG    1       -5.909   3.340  -0.600  0.00  0.00    +0.150 A 
ATOM      5  C   LIG    1       -7.291   3.223  -0.697  0.00  0.00    +0.000 A 
ATOM      6  C   LIG    1       -8.064   4.348  -0.893  0.00  0.00    +0.090 A 
ATOM      7  C   LIG    1       -7.477   5.602  -0.996  0.00  0.00    +0.000 A 
ATOM      8  C   LIG    1       -6.123   5.744  -0.903  0.00  0.00    +0.090 A 
ATOM      9  C   LIG    1       -5.317   4.614  -0.704  0.00  0.00    -0.150 A 
ATOM     10  C   LIG    1       -3.909   4.737  -0.606  0.00  0.00    +0.170 A 
ATOM     11  C   LIG    1       -3.157   3.592  -0.409  0.00  0.00    -0.120 A 
ATOM     12  C   LIG    1       -1.703   3.378  -0.267  0.00  0.00    -0.080 A 
ATOM     13  C   LIG    1       -0.611   4.241  -0.282  0.00  0.00    +0.040 A 
ATOM     14  C   LIG    1        0.664   3.738  -0.120  0.00  0.00    +0.000 A 
ATOM     15  C   LIG    1        0.865   2.378   0.059  0.00  0.00    +0.030 A 
ATOM     16  C   LIG    1       -0.205   1.508   0.077  0.00  0.00    +0.020 A 
ATOM     17  C   LIG    1       -1.499   1.997  -0.091  0.00  0.00    -0.010 A 
ENDROOT
BRANCH   1  28
ATOM     18  O   LIG    1       -4.081  -2.819   0.534  0.00  0.00    -0.430 OA
ATOM     19  C   LIG    1       -4.387  -1.859   1.216  0.00  0.00    +0.450 C 
ATOM     20  C   LIG    1       -3.928  -0.478   1.023  0.00  0.00    -0.320 C 
ATOM     21  C   LIG    1       -4.547   0.332   2.080  0.00  0.00    +0.440 C 
ATOM     22  C   LIG    1       -5.389  -0.570   2.905  0.00  0.00    -0.130 A 
ATOM     23  C   LIG    1       -6.185  -0.325   4.017  0.00  0.00    +0.080 A 
ATOM     24  C   LIG    1       -6.878  -1.366   4.617  0.00  0.00    +0.040 A 
ATOM     25  C   LIG    1       -6.781  -2.648   4.114  0.00  0.00    +0.040 A 
ATOM     26  C   LIG    1       -5.992  -2.907   3.005  0.00  0.00    +0.080 A 
ATOM     27  O   LIG    1       -4.399   1.527   2.247  0.00  0.00    -0.420 OA
ATOM     28  C   LIG    1       -3.064  -0.024   0.030  0.00  0.00    +0.290 C 
ATOM     29  C   LIG    1       -5.291  -1.874   2.393  0.00  0.00    -0.140 A 
ENDBRANCH   1  28
TORSDOF 1
