REMARK  Name = ZINCpe000027pH6H.0
REMARK                            x       y       z     vdW  Elec       q    Type
REMARK                         _______ _______ _______ _____ _____    ______ ____
ROOT
ATOM      1  C   LIG    1       -3.466   3.768  -1.565  0.00  0.00    +0.510 C 
ATOM      2  N   LIG    1       -3.492   5.093  -1.807  0.00  0.00    -0.710 N 
ATOM      3  H   LIG    1       -3.643   5.716  -1.079  0.00  0.00    +0.400 HD
ATOM      4  O   LIG    1       -3.277   2.989  -2.475  0.00  0.00    -0.530 OA
ENDROOT
BRANCH   1   5
ATOM      5  C   LIG    1       -3.671   3.254  -0.163  0.00  0.00    +0.100 C 
BRANCH   5  11
ATOM      6  C   LIG    1       -2.363   1.114  -0.073  0.00  0.00    +0.160 A 
ATOM      7  C   LIG    1       -2.298  -0.273  -0.080  0.00  0.00    +0.010 A 
ATOM      8  C   LIG    1       -3.459  -1.018  -0.165  0.00  0.00    +0.030 A 
ATOM      9  C   LIG    1       -4.684  -0.383  -0.255  0.00  0.00    -0.020 A 
ATOM     10  C   LIG    1       -4.752   0.999  -0.255  0.00  0.00    +0.030 A 
ATOM     11  C   LIG    1       -3.596   1.748  -0.164  0.00  0.00    -0.100 A 
BRANCH   6  13
ATOM     12  C   LIG    1       -0.089   1.340   0.586  0.00  0.00    +0.540 C 
ATOM     13  N   LIG    1       -1.191   1.870   0.018  0.00  0.00    -0.660 N 
ATOM     14  H   LIG    1       -1.170   2.776  -0.328  0.00  0.00    +0.410 HD
ATOM     15  O   LIG    1       -0.143   0.243   1.108  0.00  0.00    -0.520 OA
BRANCH  12  17
ATOM     16  C   LIG    1        2.267   1.559   1.124  0.00  0.00    +0.160 C 
ATOM     17  C   LIG    1        1.178   2.085   0.568  0.00  0.00    -0.090 C 
ENDBRANCH  12  17
ENDBRANCH   6  13
ENDBRANCH   5  11
ENDBRANCH   1   5
BRANCH   2  18
ATOM     18  CA  LIG    1       -3.292   5.593  -3.169  0.00  0.00    +0.250 C 
BRANCH  18  19
ATOM     19  C   LIG    1       -2.754   7.024  -3.114  0.00  0.00    +0.130 C 
BRANCH  19  20
ATOM     20  C   LIG    1       -1.384   7.022  -2.486  0.00  0.00    -0.240 A 
ATOM     21  C   LIG    1       -1.113   7.158  -1.167  0.00  0.00    +0.230 A 
ATOM     22  N   LIG    1        0.226   7.100  -1.014  0.00  0.00    -0.380 N 
ATOM     23  N   LIG    1        0.798   6.931  -2.282  0.00  0.00    -0.290 NA
ATOM     24  C   LIG    1        0.955   7.202   0.253  0.00  0.00    +0.360 C 
ATOM     25  C   LIG    1       -0.168   6.885  -3.163  0.00  0.00    +0.230 A 
ENDBRANCH  19  20
ENDBRANCH  18  19
BRANCH  18  26
ATOM     26  C   LIG    1       -4.626   5.579  -3.918  0.00  0.00    +0.170 C 
BRANCH  26  27
ATOM     27  O   LIG    1       -5.527   6.503  -3.305  0.00  0.00    -0.570 OA
ATOM     28  H   LIG    1       -6.395   6.546  -3.729  0.00  0.00    +0.380 HD
ENDBRANCH  26  27
ENDBRANCH  18  26
ENDBRANCH   2  18
TORSDOF 9
