REMARK  Name = ZINCrD0000070Z9m.0
REMARK                            x       y       z     vdW  Elec       q    Type
REMARK                         _______ _______ _______ _____ _____    ______ ____
ROOT
ATOM      1  N   LIG    1        0.076   1.119  -0.183  0.00  0.00    -1.050 N 
ATOM      2  H   LIG    1        0.154   0.330   0.377  0.00  0.00    +0.430 HD
ENDROOT
BRANCH   1   3
ATOM      3  C   LIG    1       -1.141   1.786  -0.278  0.00  0.00    +0.160 A 
ATOM      4  C   LIG    1       -1.184   3.172  -0.156  0.00  0.00    +0.000 A 
ATOM      5  C   LIG    1       -2.385   3.836  -0.255  0.00  0.00    +0.070 A 
ATOM      6  C   LIG    1       -3.564   3.116  -0.467  0.00  0.00    -0.140 A 
ATOM      7  C   LIG    1       -3.518   1.724  -0.583  0.00  0.00    +0.100 A 
ATOM      8  C   LIG    1       -2.313   1.066  -0.488  0.00  0.00    +0.010 A 
BRANCH   6   9
ATOM      9  C   LIG    1       -4.855   3.824  -0.568  0.00  0.00    +0.560 C 
ATOM     10  N   LIG    1       -5.064   4.948   0.146  0.00  0.00    -0.600 N 
ATOM     11  C   LIG    1       -6.356   5.644   0.083  0.00  0.00    +0.270 C 
ATOM     12  C   LIG    1       -6.882   5.828   1.515  0.00  0.00    +0.020 C 
ATOM     13  C   LIG    1       -5.822   6.545   2.354  0.00  0.00    +0.020 C 
ATOM     14  C   LIG    1       -4.553   5.692   2.413  0.00  0.00    +0.010 C 
ATOM     15  C   LIG    1       -4.002   5.504   0.995  0.00  0.00    +0.270 C 
ATOM     16  O   LIG    1       -5.730   3.393  -1.294  0.00  0.00    -0.530 OA
ENDBRANCH   6   9
ENDBRANCH   1   3
BRANCH   1  17
ATOM     17  S   LIG    1        1.389   1.667  -1.030  0.00  0.00    +2.690 S 
ATOM     18  O   LIG    1        2.449   0.761  -0.756  0.00  0.00    -0.940 OA
ATOM     19  O   LIG    1        1.475   3.063  -0.778  0.00  0.00    -0.940 OA
BRANCH  17  23
ATOM     20  C   LIG    1        0.427   1.218  -5.436  0.00  0.00    -0.110 A 
ATOM     21  C   LIG    1        0.203   2.437  -4.788  0.00  0.00    +0.070 A 
ATOM     22  C   LIG    1        0.497   2.565  -3.447  0.00  0.00    +0.120 A 
ATOM     23  C   LIG    1        1.014   1.492  -2.743  0.00  0.00    -0.650 A 
ATOM     24  C   LIG    1        1.244   0.284  -3.378  0.00  0.00    +0.120 A 
ATOM     25  C   LIG    1        0.950   0.138  -4.717  0.00  0.00    +0.060 A 
BRANCH  20  27
ATOM     26  C   LIG    1        0.359  -0.243  -7.561  0.00  0.00    +0.090 C 
ATOM     27  C   LIG    1        0.116   1.072  -6.867  0.00  0.00    +0.390 C 
ATOM     28  O   LIG    1       -0.337   2.011  -7.487  0.00  0.00    -0.440 OA
ENDBRANCH  20  27
ENDBRANCH  17  23
ENDBRANCH   1  17
TORSDOF 5
