REMARK  Name = ZINCtV000002s7kG.0
REMARK                            x       y       z     vdW  Elec       q    Type
REMARK                         _______ _______ _______ _____ _____    ______ ____
ROOT
ATOM      1  C   LIG    1        1.244  -0.379   0.081  0.00  0.00    +0.150 A 
ATOM      2  N   LIG    1        2.020   0.682   0.065  0.00  0.00    -0.290 NA
ATOM      3  N   LIG    1        1.309   1.747  -0.040  0.00  0.00    -0.240 NA
ATOM      4  C   LIG    1        0.036   1.433  -0.098  0.00  0.00    +0.210 A 
ATOM      5  N   LIG    1       -0.045   0.062  -0.022  0.00  0.00    -0.450 N 
ENDROOT
BRANCH   4   6
ATOM      6  C   LIG    1       -1.096   2.375  -0.226  0.00  0.00    -0.000 A 
ATOM      7  C   LIG    1       -2.085   2.155  -1.186  0.00  0.00    +0.060 A 
ATOM      8  C   LIG    1       -3.139   3.037  -1.301  0.00  0.00    +0.050 A 
ATOM      9  C   LIG    1       -3.219   4.139  -0.467  0.00  0.00    -0.010 A 
ATOM     10  C   LIG    1       -2.241   4.363   0.488  0.00  0.00    +0.050 A 
ATOM     11 CL   LIG    1       -4.549   5.244  -0.618  0.00  0.00    -0.050 Cl
ATOM     12  C   LIG    1       -1.184   3.485   0.617  0.00  0.00    +0.010 A 
ATOM     13 CL   LIG    1        0.037   3.764   1.819  0.00  0.00    -0.030 Cl
ENDBRANCH   4   6
BRANCH   5  14
ATOM     14  C   LIG    1       -1.261  -0.756  -0.048  0.00  0.00    +0.240 C 
ATOM     15  C   LIG    1       -1.362  -1.560   1.250  0.00  0.00    +0.010 C 
ATOM     16  C   LIG    1       -2.632  -2.413   1.223  0.00  0.00    +0.040 C 
ATOM     17  C   LIG    1       -2.576  -3.372   0.032  0.00  0.00    +0.010 C 
ATOM     18  C   LIG    1       -2.475  -2.568  -1.266  0.00  0.00    +0.040 C 
ATOM     19  C   LIG    1       -1.206  -1.714  -1.239  0.00  0.00    +0.020 C 
ENDBRANCH   5  14
BRANCH   1  20
ATOM     20  S   LIG    1        1.768  -2.056   0.210  0.00  0.00    +0.090 S 
BRANCH  20  21
ATOM     21  C   LIG    1        3.560  -1.819   0.303  0.00  0.00    +0.100 C 
BRANCH  21  24
ATOM     22  N   LIG    1        5.581  -3.230   0.507  0.00  0.00    -0.720 N 
ATOM     23  H   LIG    1        6.112  -2.417   0.491  0.00  0.00    +0.400 HD
ATOM     24  C   LIG    1        4.238  -3.159   0.422  0.00  0.00    +0.540 C 
ATOM     25  O   LIG    1        3.575  -4.175   0.442  0.00  0.00    -0.520 OA
BRANCH  22  26
ATOM     26  C   LIG    1        6.241  -4.533   0.622  0.00  0.00    +0.240 C 
ATOM     27  C   LIG    1        6.273  -4.960   2.091  0.00  0.00    +0.020 C 
BRANCH  26  29
ATOM     28  C   LIG    1        8.361  -5.790   0.211  0.00  0.00    +0.030 C 
ATOM     29  C   LIG    1        7.672  -4.429   0.090  0.00  0.00    -0.020 C 
ATOM     30  C   LIG    1        7.640  -4.002  -1.379  0.00  0.00    +0.030 C 
ENDBRANCH  26  29
ENDBRANCH  22  26
ENDBRANCH  21  24
ENDBRANCH  20  21
ENDBRANCH   1  20
TORSDOF 7
