REMARK  Name = ZINCpk00000KfLbv.0
REMARK                            x       y       z     vdW  Elec       q    Type
REMARK                         _______ _______ _______ _____ _____    ______ ____
ROOT
ATOM      1  C   LIG    1       -0.638   1.906   1.607  0.00  0.00    +0.210 C 
ATOM      2  C   LIG    1       -0.685   3.448   1.585  0.00  0.00    +0.050 C 
ATOM      3  C   LIG    1       -2.124   3.760   2.076  0.00  0.00    +0.040 C 
ATOM      4  C   LIG    1       -2.926   2.591   1.450  0.00  0.00    +0.260 C 
ATOM      5  N   LIG    1       -2.027   1.426   1.539  0.00  0.00    -0.620 N 
ATOM      6  C   LIG    1       -2.413   0.135   1.556  0.00  0.00    +0.540 C 
ATOM      7  O   LIG    1       -1.581  -0.747   1.541  0.00  0.00    -0.530 OA
ENDROOT
BRANCH   1   8
ATOM      8  C   LIG    1        0.150   1.392   0.401  0.00  0.00    +0.320 C 
BRANCH   8  15
ATOM      9  C   LIG    1        2.291  -0.203   1.976  0.00  0.00    +0.130 C 
ATOM     10  C   LIG    1        2.500   1.085   1.223  0.00  0.00    +0.090 A 
ATOM     11  C   LIG    1        3.666   1.763   1.109  0.00  0.00    -0.120 A 
ATOM     12  C   LIG    1        3.428   2.901   0.331  0.00  0.00    +0.070 A 
ATOM     13  N   LIG    1        2.166   2.903  -0.015  0.00  0.00    -0.300 NA
ATOM     14  C   LIG    1        4.450   3.941  -0.049  0.00  0.00    +0.160 C 
ATOM     15  N   LIG    1        1.558   1.770   0.541  0.00  0.00    -0.370 N 
ENDBRANCH   8  15
ENDBRANCH   1   8
BRANCH   6  16
ATOM     16  C   LIG    1       -3.879  -0.212   1.593  0.00  0.00    +0.150 C 
BRANCH  16  17
ATOM     17  C   LIG    1       -4.039  -1.704   1.729  0.00  0.00    -0.250 A 
ATOM     18  C   LIG    1       -4.194  -2.278   2.954  0.00  0.00    +0.200 A 
ATOM     19  N   LIG    1       -4.335  -3.602   3.056  0.00  0.00    -0.540 NA
ATOM     20  C   LIG    1       -4.327  -4.373   2.002  0.00  0.00    +0.400 A 
ATOM     21  N   LIG    1       -4.177  -3.868   0.761  0.00  0.00    -0.630 N 
ATOM     22  H   LIG    1       -4.174  -4.459  -0.007  0.00  0.00    +0.420 HD
ATOM     23  C   LIG    1       -4.490  -5.861   2.176  0.00  0.00    +0.190 C 
ATOM     24  C   LIG    1       -4.208  -1.420   4.193  0.00  0.00    +0.150 C 
ATOM     25  C   LIG    1       -4.036  -2.536   0.590  0.00  0.00    +0.540 A 
ATOM     26  O   LIG    1       -3.904  -2.062  -0.527  0.00  0.00    -0.530 OA
ENDBRANCH  16  17
ENDBRANCH   6  16
TORSDOF 4
