REMARK  Name = ZINCpe00000MJIht.0
REMARK                            x       y       z     vdW  Elec       q    Type
REMARK                         _______ _______ _______ _____ _____    ______ ____
ROOT
ATOM      1  N   LIG    1       -0.821  -1.837   1.927  0.00  0.00    -0.740 N 
ATOM      2  H   LIG    1       -1.410  -1.546   1.213  0.00  0.00    +0.390 HD
ATOM      3  C   LIG    1        0.449  -1.389   1.978  0.00  0.00    +0.710 C 
ATOM      4  N   LIG    1        0.872  -0.461   1.097  0.00  0.00    -0.630 N 
ATOM      5  C   LIG    1        0.001  -0.001   0.004  0.00  0.00    +0.240 C 
ATOM      6  C   LIG    1       -0.020   1.532   0.015  0.00  0.00    +0.220 C 
ATOM      7  O   LIG    1        1.324   2.021   0.004  0.00  0.00    -0.370 OA
ATOM      8  C   LIG    1        2.091   1.648   1.152  0.00  0.00    +0.220 C 
ATOM      9  C   LIG    1        2.220   0.122   1.200  0.00  0.00    +0.300 C 
ATOM     10  O   LIG    1        1.213  -1.823   2.819  0.00  0.00    -0.580 OA
ENDROOT
BRANCH   8  11
ATOM     11  C   LIG    1        3.462   2.267   1.064  0.00  0.00    +0.220 A 
ATOM     12  C   LIG    1        3.773   3.140   0.034  0.00  0.00    -0.110 A 
ATOM     13  C   LIG    1        5.045   3.691  -0.007  0.00  0.00    +0.360 A 
ATOM     14  N   LIG    1        5.921   3.360   0.926  0.00  0.00    -0.570 NA
ATOM     15  C   LIG    1        5.594   2.518   1.895  0.00  0.00    +0.570 A 
ATOM     16  N   LIG    1        4.386   1.978   1.966  0.00  0.00    -0.560 NA
BRANCH  15  17
ATOM     17  N   LIG    1        6.536   2.193   2.856  0.00  0.00    -0.590 N 
ATOM     18  C   LIG    1        7.877   2.780   2.794  0.00  0.00    +0.300 C 
ATOM     19  C   LIG    1        6.192   1.263   3.934  0.00  0.00    +0.300 C 
ENDBRANCH  15  17
ENDBRANCH   8  11
BRANCH   1  20
ATOM     20  C   LIG    1       -1.314  -2.761   2.952  0.00  0.00    +0.370 C 
BRANCH  20  27
ATOM     21  C   LIG    1       -2.340  -4.873   0.824  0.00  0.00    +0.160 C 
ATOM     22  C   LIG    1       -3.207  -4.037   1.729  0.00  0.00    +0.090 A 
ATOM     23  N   LIG    1       -4.514  -4.060   1.775  0.00  0.00    -0.290 NA
ATOM     24  N   LIG    1       -4.935  -3.135   2.739  0.00  0.00    -0.470 N 
ATOM     25  H   LIG    1       -5.854  -2.941   2.980  0.00  0.00    +0.440 HD
ATOM     26  C   LIG    1       -3.836  -2.562   3.272  0.00  0.00    +0.270 A 
ATOM     27  C   LIG    1       -2.753  -3.105   2.668  0.00  0.00    -0.260 A 
ENDBRANCH  20  27
ENDBRANCH   1  20
TORSDOF 4
