REMARK  Name = ZINCpe000000YC5z.0
REMARK                            x       y       z     vdW  Elec       q    Type
REMARK                         _______ _______ _______ _____ _____    ______ ____
ROOT
ATOM      1  C   LIG    1       -0.019   1.537   0.011  0.00  0.00    +0.210 C 
ATOM      2  C   LIG    1        0.002  -0.004   0.002  0.00  0.00    +0.130 C 
ATOM      3  C   LIG    1        1.474  -0.349  -0.014  0.00  0.00    +0.020 C 
ATOM      4  N   LIG    1        2.172   0.741  -0.015  0.00  0.00    -0.160 NA
ATOM      5  N   LIG    1        1.406   1.904  -0.001  0.00  0.00    -0.440 N 
ENDROOT
BRANCH   5   6
ATOM      6  C   LIG    1        1.908   3.207   0.000  0.00  0.00    +0.220 A 
ATOM      7  C   LIG    1        1.037   4.289   0.008  0.00  0.00    -0.050 A 
ATOM      8  C   LIG    1        1.538   5.576   0.016  0.00  0.00    +0.050 A 
ATOM      9  C   LIG    1        2.904   5.788   0.004  0.00  0.00    -0.030 A 
ATOM     10  C   LIG    1        3.774   4.713  -0.010  0.00  0.00    +0.050 A 
ATOM     11  C   LIG    1        3.281   3.424  -0.011  0.00  0.00    -0.020 A 
ENDBRANCH   5   6
BRANCH   1  15
ATOM     12  N   LIG    1       -2.058   2.094  -1.274  0.00  0.00    -0.850 N 
ATOM     13  H   LIG    1       -2.504   2.433  -2.066  0.00  0.00    +0.410 HD
ATOM     14  H   LIG    1       -2.581   1.775  -0.521  0.00  0.00    +0.400 HD
ATOM     15  C   LIG    1       -0.712   2.064  -1.219  0.00  0.00    +0.510 C 
ATOM     16  O   LIG    1       -0.058   2.462  -2.160  0.00  0.00    -0.510 OA
ENDBRANCH   1  15
BRANCH   3  17
ATOM     17  C   LIG    1        2.024  -1.705  -0.026  0.00  0.00    +0.600 C 
ATOM     18  N   LIG    1        3.359  -1.891  -0.040  0.00  0.00    -0.710 N 
ATOM     19  H   LIG    1        3.955  -1.126  -0.042  0.00  0.00    +0.410 HD
ATOM     20  O   LIG    1        1.276  -2.665  -0.024  0.00  0.00    -0.520 OA
BRANCH  18  21
ATOM     21  C   LIG    1        3.909  -3.248  -0.052  0.00  0.00    +0.280 C 
BRANCH  21  22
ATOM     22  C   LIG    1        5.438  -3.179  -0.066  0.00  0.00    +0.080 C 
BRANCH  22  23
ATOM     23  C   LIG    1        6.004  -4.575  -0.079  0.00  0.00    -0.140 A 
ATOM     24  C   LIG    1        6.285  -5.229   1.111  0.00  0.00    +0.070 A 
ATOM     25  C   LIG    1        6.799  -6.516   1.051  0.00  0.00    -0.030 A 
ATOM     26  C   LIG    1        7.025  -7.094  -0.183  0.00  0.00    +0.260 A 
ATOM     27  N   LIG    1        6.751  -6.439  -1.295  0.00  0.00    -0.480 NA
ATOM     28  C   LIG    1        6.255  -5.218  -1.276  0.00  0.00    +0.270 A 
ENDBRANCH  22  23
ENDBRANCH  21  22
ENDBRANCH  18  21
ENDBRANCH   3  17
TORSDOF 6
