REMARK  Name = ZINCnE000001GqRt.1
REMARK                            x       y       z     vdW  Elec       q    Type
REMARK                         _______ _______ _______ _____ _____    ______ ____
ROOT
ATOM      1  N   LIG    1        1.293   3.291   0.007  0.00  0.00    -0.650 NA
ATOM      2  C   LIG    1        2.530   3.825  -0.002  0.00  0.00    +0.460 C 
ATOM      3  O   LIG    1        3.503   3.101  -0.015  0.00  0.00    -0.570 OA
ENDROOT
BRANCH   1   7
ATOM      4  C   LIG    1        1.260  -0.544  -0.013  0.00  0.00    -0.420 A 
ATOM      5  C   LIG    1        0.002  -0.004   0.002  0.00  0.00    +0.210 A 
ATOM      6  N   LIG    1       -0.016   1.304   0.009  0.00  0.00    -0.560 NA
ATOM      7  C   LIG    1        1.133   1.917   0.002  0.00  0.00    +0.350 A 
ATOM      8  C   LIG    1       -1.250  -0.842   0.010  0.00  0.00    +0.140 C 
ATOM      9  S   LIG    1        2.415   0.787  -0.017  0.00  0.00    +0.110 S 
BRANCH   4  10
ATOM     10  C   LIG    1        1.586  -1.968  -0.024  0.00  0.00    +0.560 C 
ATOM     11  O   LIG    1        0.695  -2.796  -0.020  0.00  0.00    -0.540 OA
BRANCH  10  12
ATOM     12  O   LIG    1        2.875  -2.365  -0.038  0.00  0.00    -0.350 OA
BRANCH  12  14
ATOM     13  C   LIG    1        4.630  -4.027  -0.064  0.00  0.00    +0.060 C 
ATOM     14  C   LIG    1        3.121  -3.772  -0.048  0.00  0.00    +0.180 C 
ENDBRANCH  12  14
ENDBRANCH  10  12
ENDBRANCH   4  10
ENDBRANCH   1   7
BRANCH   2  15
ATOM     15  C   LIG    1        2.705   5.322   0.004  0.00  0.00    +0.250 C 
BRANCH  15  16
ATOM     16  O   LIG    1        4.098   5.639  -0.007  0.00  0.00    -0.290 OA
BRANCH  16  17
ATOM     17  C   LIG    1        4.431   6.957  -0.004  0.00  0.00    +0.160 A 
ATOM     18  C   LIG    1        3.437   7.925   0.004  0.00  0.00    -0.070 A 
ATOM     19  C   LIG    1        3.777   9.263   0.012  0.00  0.00    +0.080 A 
ATOM     20  C   LIG    1        5.109   9.639   0.002  0.00  0.00    -0.140 A 
ATOM     21  C   LIG    1        6.102   8.676  -0.011  0.00  0.00    +0.090 A 
ATOM     22 BR   LIG    1        5.572  11.473   0.006  0.00  0.00    -0.060 Br
ATOM     23  C   LIG    1        5.765   7.336  -0.015  0.00  0.00    -0.010 A 
ENDBRANCH  16  17
ENDBRANCH  15  16
ENDBRANCH   2  15
TORSDOF 7
