REMARK  Name = ZINCpe000000WrRi.0
REMARK                            x       y       z     vdW  Elec       q    Type
REMARK                         _______ _______ _______ _____ _____    ______ ____
ROOT
ATOM      1  N   LIG    1        4.733  -4.096   2.608  0.00  0.00    -0.670 N 
ATOM      2  H   LIG    1        4.184  -4.606   3.224  0.00  0.00    +0.420 HD
ATOM      3  C   LIG    1        4.172  -3.513   1.530  0.00  0.00    +0.520 C 
ATOM      4  O   LIG    1        4.841  -2.806   0.806  0.00  0.00    -0.510 OA
ENDROOT
BRANCH   1   8
ATOM      5  C   LIG    1        8.828  -3.706   3.298  0.00  0.00    +0.090 A 
ATOM      6  C   LIG    1        8.178  -4.885   3.628  0.00  0.00    -0.020 A 
ATOM      7  C   LIG    1        6.821  -5.013   3.404  0.00  0.00    +0.030 A 
ATOM      8  C   LIG    1        6.108  -3.964   2.839  0.00  0.00    +0.130 A 
ATOM      9  C   LIG    1        6.758  -2.782   2.509  0.00  0.00    +0.040 A 
ATOM     10  C   LIG    1        8.115  -2.653   2.738  0.00  0.00    +0.090 A 
ATOM     11  F   LIG    1        8.748  -1.503   2.417  0.00  0.00    -0.130 F 
BRANCH   5  13
ATOM     12  C   LIG    1       10.833  -4.701   4.102  0.00  0.00    +0.250 C 
ATOM     13  O   LIG    1       10.163  -3.579   3.523  0.00  0.00    -0.310 OA
ENDBRANCH   5  13
ENDBRANCH   1   8
BRANCH   3  14
ATOM     14  C   LIG    1        2.714  -3.740   1.223  0.00  0.00    +0.020 C 
ATOM     15  C   LIG    1        1.819  -3.219   2.372  0.00  0.00    +0.080 C 
ATOM     16  C   LIG    1        1.468  -1.807   1.956  0.00  0.00    +0.510 C 
ATOM     17  N   LIG    1        1.726  -1.632   0.648  0.00  0.00    -0.610 N 
ATOM     18  O   LIG    1        1.018  -0.957   2.695  0.00  0.00    -0.510 OA
ATOM     19  C   LIG    1        2.248  -2.861   0.039  0.00  0.00    +0.300 C 
BRANCH  17  20
ATOM     20  C   LIG    1        1.508  -0.378  -0.077  0.00  0.00    +0.290 C 
ATOM     21  C   LIG    1        2.343   0.743   0.566  0.00  0.00    +0.060 C 
ATOM     22  C   LIG    1        1.821   2.079  -0.023  0.00  0.00    -0.300 C 
ATOM     23  S   LIG    1        0.004   1.840  -0.001  0.00  0.00    +2.400 S 
ATOM     24  O   LIG    1       -0.517   2.306   1.237  0.00  0.00    -0.920 OA
ATOM     25  O   LIG    1       -0.548   2.308  -1.224  0.00  0.00    -0.930 OA
ATOM     26  C   LIG    1        0.018   0.011  -0.003  0.00  0.00    -0.330 C 
ENDBRANCH  17  20
ENDBRANCH   3  14
TORSDOF 4
