REMARK  Name = ZINCb70000002FbN.0
REMARK                            x       y       z     vdW  Elec       q    Type
REMARK                         _______ _______ _______ _____ _____    ______ ____
ROOT
ATOM      1  N   LIG    1       -4.934   3.790   0.692  0.00  0.00    -0.610 N 
ATOM      2  H   LIG    1       -5.738   3.253   0.607  0.00  0.00    +0.440 HD
ENDROOT
BRANCH   1   3
ATOM      3  C   LIG    1       -3.816   3.275   1.363  0.00  0.00    +0.010 A 
ATOM      4  C   LIG    1       -3.458   1.944   1.196  0.00  0.00    +0.090 A 
ATOM      5  C   LIG    1       -2.356   1.438   1.856  0.00  0.00    -0.040 A 
ATOM      6  C   LIG    1       -1.606   2.259   2.687  0.00  0.00    +0.240 A 
ATOM      7  C   LIG    1       -1.968   3.589   2.858  0.00  0.00    -0.040 A 
ATOM      8  C   LIG    1       -3.066   4.097   2.194  0.00  0.00    +0.060 A 
BRANCH   6   9
ATOM      9  N   LIG    1       -0.490   1.746   3.357  0.00  0.00    -0.860 N 
ATOM     10  H   LIG    1        0.036   2.321   3.934  0.00  0.00    +0.410 HD
ATOM     11  H   LIG    1       -0.240   0.816   3.240  0.00  0.00    +0.410 HD
ENDBRANCH   6   9
ENDBRANCH   1   3
BRANCH   1  12
ATOM     12  C   LIG    1       -4.893   5.050   0.158  0.00  0.00    +0.750 C 
BRANCH  12  13
ATOM     13  N   LIG    1       -3.751   5.735   0.157  0.00  0.00    -0.820 NA
ATOM     14  H   LIG    1       -3.760   6.693   0.308  0.00  0.00    +0.440 HD
ATOM     15  H   LIG    1       -2.910   5.276   0.004  0.00  0.00    +0.440 HD
ENDBRANCH  12  13
BRANCH  12  16
ATOM     16  N   LIG    1       -5.995   5.590  -0.360  0.00  0.00    -0.780 NA
ATOM     17  H   LIG    1       -6.826   5.091  -0.359  0.00  0.00    +0.440 HD
ATOM     18  H   LIG    1       -5.965   6.483  -0.739  0.00  0.00    +0.440 HD
ENDBRANCH  12  16
ENDBRANCH   1  12
TORSDOF 5
