REMARK  Name = ZINCpe00000VVGHK.0
REMARK                            x       y       z     vdW  Elec       q    Type
REMARK                         _______ _______ _______ _____ _____    ______ ____
ROOT
ATOM      1  C   LIG    1       -6.134   5.521   4.161  0.00  0.00    +0.160 C 
ATOM      2  C   LIG    1       -4.830   4.734   4.311  0.00  0.00    +0.180 C 
ATOM      3  N   LIG    1       -4.354   4.326   2.982  0.00  0.00    -0.510 NA
ATOM      4  C   LIG    1       -4.139   5.499   2.122  0.00  0.00    +0.160 C 
ATOM      5  C   LIG    1       -5.451   6.278   1.994  0.00  0.00    +0.230 C 
ATOM      6  O   LIG    1       -5.914   6.640   3.297  0.00  0.00    -0.380 OA
ENDROOT
BRANCH   3   7
ATOM      7  C   LIG    1       -3.132   3.518   3.085  0.00  0.00    +0.180 C 
ATOM      8  C   LIG    1       -2.142   4.209   4.024  0.00  0.00    +0.030 C 
BRANCH   7   9
ATOM      9  C   LIG    1       -3.475   2.155   3.631  0.00  0.00    +0.520 C 
ATOM     10  N   LIG    1       -2.586   1.147   3.535  0.00  0.00    -0.730 N 
ATOM     11  H   LIG    1       -1.725   1.299   3.115  0.00  0.00    +0.400 HD
ATOM     12  O   LIG    1       -4.551   1.966   4.157  0.00  0.00    -0.520 OA
BRANCH  10  13
ATOM     13  C   LIG    1       -2.919  -0.177   4.066  0.00  0.00    +0.400 C 
BRANCH  13  14
ATOM     14  C   LIG    1       -1.764  -1.116   3.834  0.00  0.00    -0.040 A 
ATOM     15  C   LIG    1       -0.739  -1.326   4.678  0.00  0.00    -0.030 A 
ATOM     16  C   LIG    1        0.105  -2.283   4.069  0.00  0.00    -0.070 A 
ATOM     17  C   LIG    1       -0.455  -2.600   2.888  0.00  0.00    +0.180 A 
ATOM     18  O   LIG    1       -1.587  -1.891   2.751  0.00  0.00    -0.170 OA
ENDBRANCH  13  14
ENDBRANCH  10  13
ENDBRANCH   7   9
ENDBRANCH   3   7
BRANCH   1  19
ATOM     19  C   LIG    1       -6.593   6.018   5.534  0.00  0.00    +0.350 C 
BRANCH  19  23
ATOM     20  C   LIG    1      -11.546   6.795   5.376  0.00  0.00    +0.190 C 
ATOM     21  C   LIG    1      -10.052   6.991   5.341  0.00  0.00    +0.220 A 
ATOM     22  N   LIG    1       -9.159   6.054   5.521  0.00  0.00    -0.320 NA
ATOM     23  N   LIG    1       -7.900   6.667   5.407  0.00  0.00    -0.380 N 
ATOM     24  C   LIG    1       -8.133   7.968   5.164  0.00  0.00    +0.290 A 
ATOM     25  C   LIG    1       -7.085   9.034   4.970  0.00  0.00    +0.200 C 
ATOM     26  N   LIG    1       -9.428   8.148   5.122  0.00  0.00    -0.550 NA
ENDBRANCH  19  23
ENDBRANCH   1  19
TORSDOF 6
