REMARK  Name = ZINCvU0000000EW0.0
REMARK                            x       y       z     vdW  Elec       q    Type
REMARK                         _______ _______ _______ _____ _____    ______ ____
ROOT
ATOM      1  N   LIG    1        7.111   4.553   2.245  0.00  0.00    -0.480 N 
ATOM      2  C   LIG    1        8.307   4.090   2.756  0.00  0.00    +0.050 A 
ATOM      3  C   LIG    1        9.274   4.628   3.593  0.00  0.00    +0.010 A 
ATOM      4  C   LIG    1       10.386   3.882   3.921  0.00  0.00    +0.030 A 
ATOM      5  C   LIG    1       10.544   2.598   3.420  0.00  0.00    +0.000 A 
ATOM      6  C   LIG    1        9.602   2.051   2.594  0.00  0.00    +0.070 A 
ATOM      7  C   LIG    1        8.467   2.789   2.249  0.00  0.00    +0.050 A 
ATOM      8  N   LIG    1        7.381   2.529   1.476  0.00  0.00    -0.480 NA
ATOM      9  C   LIG    1        6.591   3.564   1.470  0.00  0.00    +0.290 A 
ENDROOT
BRANCH   9  10
ATOM     10  C   LIG    1        5.288   3.650   0.719  0.00  0.00    +0.090 C 
ATOM     11  C   LIG    1        5.482   3.286  -0.772  0.00  0.00    +0.090 C 
ATOM     12  C   LIG    1        4.227   2.523  -1.135  0.00  0.00    +0.530 C 
ATOM     13  N   LIG    1        3.584   2.133  -0.021  0.00  0.00    -0.570 N 
ATOM     14  O   LIG    1        3.855   2.297  -2.267  0.00  0.00    -0.510 OA
ATOM     15  C   LIG    1        4.307   2.552   1.186  0.00  0.00    +0.290 C 
BRANCH  13  16
ATOM     16  C   LIG    1        2.381   1.415  -0.013  0.00  0.00    +0.110 A 
ATOM     17  C   LIG    1        1.169   2.089   0.002  0.00  0.00    +0.060 A 
ATOM     18  C   LIG    1       -0.017   1.378   0.010  0.00  0.00    -0.020 A 
ATOM     19  C   LIG    1        0.002  -0.004   0.002  0.00  0.00    +0.060 A 
ATOM     20  C   LIG    1        1.207  -0.683  -0.013  0.00  0.00    -0.070 A 
ATOM     21  C   LIG    1        2.399   0.022  -0.020  0.00  0.00    +0.140 A 
BRANCH  21  22
ATOM     22  O   LIG    1        3.584  -0.644  -0.034  0.00  0.00    -0.310 OA
ATOM     23  C   LIG    1        3.526  -2.072  -0.040  0.00  0.00    +0.250 C 
ENDBRANCH  21  22
ENDBRANCH  13  16
ENDBRANCH   9  10
BRANCH   1  24
ATOM     24  C   LIG    1        6.513   5.868   2.491  0.00  0.00    +0.290 C 
BRANCH  24  25
ATOM     25  C   LIG    1        5.609   5.794   3.723  0.00  0.00    +0.000 C 
BRANCH  25  26
ATOM     26  C   LIG    1        4.984   7.167   3.981  0.00  0.00    +0.020 C 
BRANCH  26  27
ATOM     27  C   LIG    1        4.080   7.093   5.213  0.00  0.00    +0.000 C 
BRANCH  27  28
ATOM     28  C   LIG    1        3.455   8.465   5.470  0.00  0.00    +0.000 C 
BRANCH  28  29
ATOM     29  C   LIG    1        2.551   8.391   6.702  0.00  0.00    +0.000 C 
BRANCH  29  31
ATOM     30  C   LIG    1        1.022   9.690   8.191  0.00  0.00    +0.000 C 
ATOM     31  C   LIG    1        1.926   9.764   6.959  0.00  0.00    -0.010 C 
ENDBRANCH  29  31
ENDBRANCH  28  29
ENDBRANCH  27  28
ENDBRANCH  26  27
ENDBRANCH  25  26
ENDBRANCH  24  25
ENDBRANCH   1  24
TORSDOF 10
