REMARK  Name = ZINCpk00000y6tLD.0
REMARK                            x       y       z     vdW  Elec       q    Type
REMARK                         _______ _______ _______ _____ _____    ______ ____
ROOT
ATOM      1  C   LIG    1       -0.590  -1.894   4.424  0.00  0.00    +0.580 C 
ATOM      2  N   LIG    1       -1.236  -0.867   3.837  0.00  0.00    -0.600 N 
ATOM      3  C   LIG    1       -2.280  -0.144   4.567  0.00  0.00    +0.280 C 
ATOM      4  O   LIG    1        0.212  -2.551   3.788  0.00  0.00    -0.510 OA
ENDROOT
BRANCH   1  13
ATOM      5  C   LIG    1       -3.413  -4.045   7.942  0.00  0.00    +0.130 C 
ATOM      6  C   LIG    1       -2.198  -3.247   7.546  0.00  0.00    -0.110 A 
ATOM      7  C   LIG    1       -1.340  -2.825   8.501  0.00  0.00    +0.240 A 
ATOM      8  N   LIG    1       -0.228  -2.102   8.195  0.00  0.00    -0.370 N 
ATOM      9  C   LIG    1        0.773  -1.569   8.964  0.00  0.00    +0.100 A 
ATOM     10  C   LIG    1        1.628  -0.944   8.127  0.00  0.00    +0.210 A 
ATOM     11  N   LIG    1        1.176  -1.080   6.876  0.00  0.00    -0.480 NA
ATOM     12  C   LIG    1        0.056  -1.777   6.893  0.00  0.00    +0.240 A 
ATOM     13  C   LIG    1       -0.856  -2.220   5.835  0.00  0.00    -0.080 A 
ATOM     14  C   LIG    1       -1.980  -2.952   6.197  0.00  0.00    +0.090 A 
ENDBRANCH   1  13
BRANCH   2  15
ATOM     15  C   LIG    1       -0.893  -0.472   2.468  0.00  0.00    +0.310 C 
BRANCH  15  16
ATOM     16  C   LIG    1       -1.764  -1.250   1.480  0.00  0.00    +0.160 C 
ATOM     17  O   LIG    1       -3.137  -0.843   1.608  0.00  0.00    -0.360 OA
ATOM     18  C   LIG    1       -3.722  -0.912   0.290  0.00  0.00    +0.220 C 
ATOM     19  C   LIG    1       -2.602  -0.367  -0.632  0.00  0.00    +0.020 C 
ATOM     20  C   LIG    1       -1.326  -0.936   0.036  0.00  0.00    +0.100 C 
BRANCH  20  21
ATOM     21  C   LIG    1       -0.225   0.092   0.030  0.00  0.00    +0.180 A 
ATOM     22  N   LIG    1        1.057  -0.148  -0.013  0.00  0.00    -0.280 NA
ATOM     23  N   LIG    1        1.706   0.962  -0.003  0.00  0.00    -0.290 NA
ATOM     24  C   LIG    1        0.868   1.961   0.048  0.00  0.00    +0.380 A 
ATOM     25  N   LIG    1       -0.382   1.437   0.070  0.00  0.00    -0.580 N 
ATOM     26  H   LIG    1       -1.219   1.926   0.103  0.00  0.00    +0.430 HD
ENDBRANCH  20  21
ENDBRANCH  15  16
ENDBRANCH   2  15
TORSDOF 4
