REMARK  Name = ZINCpk00000y6tLD.1
REMARK                            x       y       z     vdW  Elec       q    Type
REMARK                         _______ _______ _______ _____ _____    ______ ____
ROOT
ATOM      1  C   LIG    1       -1.794   0.709  -1.807  0.00  0.00    +0.580 C 
ATOM      2  N   LIG    1       -1.585   1.669  -0.883  0.00  0.00    -0.600 N 
ATOM      3  C   LIG    1       -2.122   3.015  -1.091  0.00  0.00    +0.280 C 
ATOM      4  O   LIG    1       -1.435  -0.432  -1.590  0.00  0.00    -0.500 OA
ENDROOT
BRANCH   1  13
ATOM      5  C   LIG    1       -5.319  -0.159  -5.241  0.00  0.00    +0.120 C 
ATOM      6  C   LIG    1       -4.146   0.645  -4.744  0.00  0.00    -0.120 A 
ATOM      7  C   LIG    1       -3.698   1.689  -5.477  0.00  0.00    +0.240 A 
ATOM      8  N   LIG    1       -2.642   2.447  -5.072  0.00  0.00    -0.370 N 
ATOM      9  C   LIG    1       -2.012   3.531  -5.624  0.00  0.00    +0.100 A 
ATOM     10  C   LIG    1       -1.015   3.882  -4.785  0.00  0.00    +0.210 A 
ATOM     11  N   LIG    1       -1.021   3.045  -3.742  0.00  0.00    -0.480 NA
ATOM     12  C   LIG    1       -1.996   2.169  -3.894  0.00  0.00    +0.240 A 
ATOM     13  C   LIG    1       -2.459   1.044  -3.077  0.00  0.00    -0.090 A 
ATOM     14  C   LIG    1       -3.537   0.297  -3.536  0.00  0.00    +0.110 A 
ENDBRANCH   1  13
BRANCH   2  15
ATOM     15  C   LIG    1       -0.819   1.364   0.328  0.00  0.00    +0.310 C 
BRANCH  15  16
ATOM     16  C   LIG    1       -1.770   0.876   1.423  0.00  0.00    +0.150 C 
ATOM     17  O   LIG    1       -2.292  -0.428   1.091  0.00  0.00    -0.340 OA
ATOM     18  C   LIG    1       -2.741  -0.989   2.344  0.00  0.00    +0.190 C 
ATOM     19  C   LIG    1       -1.657  -0.587   3.367  0.00  0.00    +0.030 C 
ATOM     20  C   LIG    1       -1.003   0.669   2.748  0.00  0.00    +0.090 C 
BRANCH  20  21
ATOM     21  C   LIG    1        0.460   0.427   2.479  0.00  0.00    +0.230 A 
ATOM     22  N   LIG    1        0.950  -0.559   1.775  0.00  0.00    -0.290 NA
ATOM     23  N   LIG    1        2.346  -0.404   1.776  0.00  0.00    -0.480 N 
ATOM     24  H   LIG    1        2.995  -0.977   1.337  0.00  0.00    +0.440 HD
ATOM     25  C   LIG    1        2.605   0.693   2.509  0.00  0.00    +0.480 A 
ATOM     26  N   LIG    1        1.464   1.181   2.924  0.00  0.00    -0.540 NA
ENDBRANCH  20  21
ENDBRANCH  15  16
ENDBRANCH   2  15
TORSDOF 4
