REMARK  Name = ZINCpk00000xI6Uu.0
REMARK                            x       y       z     vdW  Elec       q    Type
REMARK                         _______ _______ _______ _____ _____    ______ ____
ROOT
ATOM      1  N   LIG    1       -0.992   3.273  -0.388  0.00  0.00    -1.120 NA
ATOM      2  S   LIG    1       -1.016   4.762  -0.283  0.00  0.00    +2.590 S 
ATOM      3  C   LIG    1       -0.235   5.516  -1.685  0.00  0.00    -0.590 A 
ATOM      4  C   LIG    1        1.025   5.497  -2.207  0.00  0.00    +0.180 A 
ATOM      5  C   LIG    1        1.304   6.224  -3.356  0.00  0.00    +0.060 A 
ATOM      6  C   LIG    1        0.299   6.961  -3.956  0.00  0.00    +0.070 A 
ATOM      7  C   LIG    1       -0.974   6.983  -3.432  0.00  0.00    +0.120 A 
ATOM      8  C   LIG    1       -1.276   6.253  -2.270  0.00  0.00    -0.130 A 
ATOM      9  C   LIG    1       -2.544   6.125  -1.538  0.00  0.00    +0.530 C 
ATOM     10  O   LIG    1       -3.542   6.705  -1.919  0.00  0.00    -0.440 OA
ATOM     11  O   LIG    1       -0.420   5.197   0.932  0.00  0.00    -0.910 OA
ATOM     12  N   LIG    1       -2.575   5.355  -0.438  0.00  0.00    -0.870 N 
ATOM     13  C   LIG    1       -3.722   5.090   0.434  0.00  0.00    +0.390 C 
ENDROOT
BRANCH   1  14
ATOM     14  C   LIG    1        0.142   2.614  -0.200  0.00  0.00    +0.570 C 
ATOM     15  O   LIG    1        1.180   3.225  -0.040  0.00  0.00    -0.560 OA
BRANCH  14  21
ATOM     16  C   LIG    1       -1.743  -1.641   0.970  0.00  0.00    +0.550 C 
ATOM     17  N   LIG    1       -0.644  -0.862   1.015  0.00  0.00    -0.610 N 
ATOM     18  C   LIG    1        0.692  -1.460   1.143  0.00  0.00    +0.280 C 
ATOM     19  C   LIG    1        1.580  -0.930   0.013  0.00  0.00    +0.020 C 
ATOM     20  C   LIG    1        1.571   0.600   0.036  0.00  0.00    +0.050 C 
ATOM     21  C   LIG    1        0.144   1.107  -0.192  0.00  0.00    +0.020 C 
ATOM     22  C   LIG    1       -0.759   0.600   0.937  0.00  0.00    +0.290 C 
ATOM     23  O   LIG    1       -1.643  -2.843   1.127  0.00  0.00    -0.540 OA
BRANCH  16  25
ATOM     24  C   LIG    1       -4.158  -1.790   0.789  0.00  0.00    +0.140 C 
ATOM     25  C   LIG    1       -3.063  -1.038   0.729  0.00  0.00    -0.090 C 
ENDBRANCH  16  25
ENDBRANCH  14  21
ENDBRANCH   1  14
TORSDOF 3
