REMARK  Name = ZINCrH00000No4B2.0
REMARK                            x       y       z     vdW  Elec       q    Type
REMARK                         _______ _______ _______ _____ _____    ______ ____
ROOT
ATOM      1  C   LIG    1        3.619   1.599  -0.024  0.00  0.00    +0.550 C 
ATOM      2  O   LIG    1        3.762   2.807  -0.019  0.00  0.00    -0.490 OA
ENDROOT
BRANCH   1   3
ATOM      3  C   LIG    1        4.791   0.723  -0.040  0.00  0.00    -0.270 A 
ATOM      4  C   LIG    1        6.089   1.148  -0.050  0.00  0.00    +0.130 A 
ATOM      5  C   LIG    1        7.031   0.154  -0.066  0.00  0.00    -0.120 A 
ATOM      6  C   LIG    1        6.489  -1.119  -0.057  0.00  0.00    -0.130 A 
ATOM      7  C   LIG    1        7.351  -2.320  -0.050  0.00  0.00    -0.030 A 
ATOM      8  C   LIG    1        6.852  -3.588  -0.314  0.00  0.00    +0.030 A 
ATOM      9  C   LIG    1        7.710  -4.671  -0.315  0.00  0.00    +0.010 A 
ATOM     10  C   LIG    1        9.055  -4.487  -0.047  0.00  0.00    +0.020 A 
ATOM     11  C   LIG    1        9.550  -3.228   0.241  0.00  0.00    +0.010 A 
ATOM     12  C   LIG    1        8.704  -2.137   0.262  0.00  0.00    -0.060 A 
ATOM     13  C   LIG    1        9.222  -0.782   0.655  0.00  0.00    +0.080 C 
ATOM     14  C   LIG    1        8.539   0.347  -0.110  0.00  0.00    +0.120 C 
ATOM     15  S   LIG    1        4.742  -1.035  -0.041  0.00  0.00    +0.250 S 
ENDBRANCH   1   3
BRANCH   1  16
ATOM     16  O   LIG    1        2.379   1.066  -0.015  0.00  0.00    -0.330 OA
BRANCH  16  17
ATOM     17  C   LIG    1        1.280   1.980   0.001  0.00  0.00    +0.260 C 
BRANCH  17  20
ATOM     18  N   LIG    1       -1.191   1.867   0.018  0.00  0.00    -0.720 N 
ATOM     19  H   LIG    1       -1.204   2.837   0.023  0.00  0.00    +0.410 HD
ATOM     20  C   LIG    1       -0.014   1.209   0.009  0.00  0.00    +0.520 C 
ATOM     21  O   LIG    1        0.002  -0.004   0.002  0.00  0.00    -0.500 OA
BRANCH  18  22
ATOM     22  C   LIG    1       -2.449   1.117   0.020  0.00  0.00    +0.290 C 
ATOM     23  C   LIG    1       -2.512   0.230   1.264  0.00  0.00    +0.080 C 
BRANCH  22  25
ATOM     24  C   LIG    1       -3.634   2.897  -1.272  0.00  0.00    +0.030 C 
ATOM     25  C   LIG    1       -3.626   2.095   0.031  0.00  0.00    +0.010 C 
ATOM     26  C   LIG    1       -4.936   1.316   0.158  0.00  0.00    +0.050 C 
ENDBRANCH  22  25
BRANCH  22  27
ATOM     27  C   LIG    1       -2.521   0.276  -1.186  0.00  0.00    +0.200 C 
ATOM     28  N   LIG    1       -2.577  -0.373  -2.117  0.00  0.00    -0.410 NA
ENDBRANCH  22  27
ENDBRANCH  18  22
ENDBRANCH  17  20
ENDBRANCH  16  17
ENDBRANCH   1  16
TORSDOF 7
