REMARK  Name = ZINCpe00000zgokQ.0
REMARK                            x       y       z     vdW  Elec       q    Type
REMARK                         _______ _______ _______ _____ _____    ______ ____
ROOT
ATOM      1  N   LIG    1        1.720   3.110   0.002  0.00  0.00    -0.520 N 
ATOM      2  C   LIG    1        0.692   4.138  -0.095  0.00  0.00    +0.310 C 
ATOM      3  C   LIG    1        1.303   5.465  -0.546  0.00  0.00    +0.000 C 
ATOM      4  C   LIG    1        2.509   5.779   0.346  0.00  0.00    +0.050 C 
ATOM      5  C   LIG    1        3.605   4.750   0.059  0.00  0.00    +0.090 C 
ATOM      6  C   LIG    1        3.026   3.365   0.098  0.00  0.00    +0.510 C 
ATOM      7  O   LIG    1        3.786   2.427   0.220  0.00  0.00    -0.540 OA
ENDROOT
BRANCH   1  11
ATOM      8  C   LIG    1       -1.097  -0.933   0.037  0.00  0.00    +0.370 C 
ATOM      9  N   LIG    1        0.064  -0.039   0.015  0.00  0.00    -0.370 N 
ATOM     10  C   LIG    1        0.027   1.319   0.030  0.00  0.00    +0.210 A 
ATOM     11  C   LIG    1        1.310   1.763  -0.001  0.00  0.00    -0.010 A 
ATOM     12  C   LIG    1        2.152   0.643  -0.035  0.00  0.00    +0.270 A 
ATOM     13  N   LIG    1        1.407  -0.433  -0.026  0.00  0.00    -0.290 NA
ENDBRANCH   1  11
BRANCH   3  14
ATOM     14  C   LIG    1        0.278   6.563  -0.417  0.00  0.00    +0.520 C 
ATOM     15  N   LIG    1        0.598   7.827  -0.761  0.00  0.00    -0.650 N 
ATOM     16  H   LIG    1        1.487   8.029  -1.091  0.00  0.00    +0.420 HD
ATOM     17  O   LIG    1       -0.833   6.310  -0.004  0.00  0.00    -0.450 OA
BRANCH  15  18
ATOM     18  C   LIG    1       -0.346   8.839  -0.641  0.00  0.00    +0.420 A 
ATOM     19  N   LIG    1       -1.554   8.562  -0.192  0.00  0.00    -0.460 NA
ATOM     20  C   LIG    1       -2.477   9.526  -0.071  0.00  0.00    +0.280 A 
ATOM     21  C   LIG    1       -3.796   9.513   0.366  0.00  0.00    -0.110 A 
ATOM     22  C   LIG    1       -4.279  10.811   0.280  0.00  0.00    +0.300 A 
ATOM     23  N   LIG    1       -3.329  11.592  -0.180  0.00  0.00    -0.320 NA
ATOM     24  N   LIG    1       -2.183  10.821  -0.412  0.00  0.00    -0.330 N 
ATOM     25  C   LIG    1       -0.938  11.137  -0.881  0.00  0.00    +0.380 A 
ATOM     26  C   LIG    1       -0.009  10.161  -0.996  0.00  0.00    -0.070 A 
ENDBRANCH  15  18
ENDBRANCH   3  14
TORSDOF 3
