REMARK  Name = ZINCrD00000F5Lrd.0
REMARK                            x       y       z     vdW  Elec       q    Type
REMARK                         _______ _______ _______ _____ _____    ______ ____
ROOT
ATOM      1  C   LIG    1        2.259   5.776   0.011  0.00  0.00    -0.010 A 
ATOM      2  C   LIG    1        1.040   6.463   0.021  0.00  0.00    +0.010 A 
ATOM      3  C   LIG    1        1.030   7.841   0.034  0.00  0.00    +0.120 A 
ATOM      4  C   LIG    1        2.221   8.546   0.026  0.00  0.00    -0.670 A 
ATOM      5  C   LIG    1        3.431   7.874   0.011  0.00  0.00    +0.130 A 
ATOM      6  C   LIG    1        3.458   6.495   0.004  0.00  0.00    +0.020 A 
ENDROOT
BRANCH   4   7
ATOM      7  S   LIG    1        2.197  10.308   0.035  0.00  0.00    +2.700 S 
ATOM      8  O   LIG    1        3.446  10.723   0.570  0.00  0.00    -0.940 OA
ATOM      9  O   LIG    1        0.947  10.689   0.593  0.00  0.00    -0.940 OA
BRANCH   7  10
ATOM     10  N   LIG    1        2.176  10.806  -1.544  0.00  0.00    -0.940 N 
ATOM     11  C   LIG    1        3.365  11.080  -2.354  0.00  0.00    +0.280 C 
ATOM     12  C   LIG    1        2.827  11.503  -3.731  0.00  0.00    +0.100 C 
ATOM     13  C   LIG    1        1.323  11.441  -3.586  0.00  0.00    -0.130 A 
ATOM     14  C   LIG    1        0.314  11.715  -4.488  0.00  0.00    +0.050 A 
ATOM     15  C   LIG    1       -1.010  11.583  -4.111  0.00  0.00    -0.010 A 
ATOM     16  C   LIG    1       -1.322  11.175  -2.827  0.00  0.00    +0.040 A 
ATOM     17  C   LIG    1       -0.318  10.900  -1.923  0.00  0.00    -0.010 A 
ATOM     18  C   LIG    1        1.021  11.031  -2.296  0.00  0.00    +0.160 A 
ENDBRANCH   7  10
ENDBRANCH   4   7
BRANCH   1  20
ATOM     19  C   LIG    1        1.120   3.615   0.011  0.00  0.00    -0.060 C 
ATOM     20  C   LIG    1        2.278   4.304   0.003  0.00  0.00    +0.100 C 
BRANCH  19  23
ATOM     21  N   LIG    1       -0.018   1.461   0.010  0.00  0.00    -0.720 N 
ATOM     22  H   LIG    1       -0.864   1.934   0.017  0.00  0.00    +0.400 HD
ATOM     23  C   LIG    1        1.140   2.151   0.003  0.00  0.00    +0.550 C 
ATOM     24  O   LIG    1        2.202   1.556  -0.011  0.00  0.00    -0.540 OA
BRANCH  21  25
ATOM     25  C   LIG    1        0.002  -0.004   0.002  0.00  0.00    +0.230 C 
ATOM     26  C   LIG    1        0.121  -0.505  -1.439  0.00  0.00    +0.020 C 
BRANCH  25  28
ATOM     27  C   LIG    1       -1.351  -0.139   2.098  0.00  0.00    +0.020 C 
ATOM     28  C   LIG    1       -1.292  -0.535   0.621  0.00  0.00    +0.020 C 
ENDBRANCH  25  28
ENDBRANCH  21  25
ENDBRANCH  19  23
ENDBRANCH   1  20
TORSDOF 6
