REMARK  Name = ZINCfA000000bgj3.0
REMARK                            x       y       z     vdW  Elec       q    Type
REMARK                         _______ _______ _______ _____ _____    ______ ____
ROOT
ATOM      1  N   LIG    1       -2.050   0.953  -1.345  0.00  0.00    -0.510 N 
ATOM      2  H   LIG    1       -2.595   1.203  -0.533  0.00  0.00    +0.430 HD
ATOM      3  H   LIG    1       -1.947  -0.051  -1.385  0.00  0.00    +0.430 HD
ENDROOT
BRANCH   1   7
ATOM      4  C   LIG    1       -4.510   0.932  -4.124  0.00  0.00    +0.030 C 
ATOM      5  C   LIG    1       -3.190   0.526  -4.813  0.00  0.00    +0.070 C 
ATOM      6  C   LIG    1       -2.060   0.839  -3.817  0.00  0.00    +0.050 C 
ATOM      7  C   LIG    1       -2.732   1.424  -2.557  0.00  0.00    +0.170 C 
ATOM      8  C   LIG    1       -4.180   0.878  -2.611  0.00  0.00    +0.090 C 
BRANCH   4   9
ATOM      9  S   LIG    1       -5.827  -0.248  -4.529  0.00  0.00    -0.230 S 
BRANCH   9  11
ATOM     10  C   LIG    1       -7.257  -0.841  -6.784  0.00  0.00    +0.080 C 
ATOM     11  C   LIG    1       -6.151   0.089  -6.282  0.00  0.00    +0.080 C 
ENDBRANCH   9  11
ENDBRANCH   4   9
ENDBRANCH   1   7
BRANCH   1  12
ATOM     12  C   LIG    1       -0.723   1.577  -1.255  0.00  0.00    +0.270 C 
BRANCH  12  13
ATOM     13  C   LIG    1       -0.013   1.086   0.008  0.00  0.00    +0.000 C 
ATOM     14  C   LIG    1        1.422   1.598  -0.003  0.00  0.00    +0.070 C 
ATOM     15  C   LIG    1        1.746   2.478   1.222  0.00  0.00    +0.140 C 
ATOM     16  S   LIG    1        0.526   1.894   2.469  0.00  0.00    -0.240 S 
ATOM     17  C   LIG    1       -0.804   1.567   1.241  0.00  0.00    +0.100 C 
ENDBRANCH  12  13
ENDBRANCH   1  12
TORSDOF 5
