REMARK  Name = ZINCrD0000074Xnk.0
REMARK                            x       y       z     vdW  Elec       q    Type
REMARK                         _______ _______ _______ _____ _____    ______ ____
ROOT
ATOM      1  C   LIG    1       -3.545  -5.002  -0.209  0.00  0.00    +0.190 C 
ATOM      2  C   LIG    1       -4.399  -4.763   1.038  0.00  0.00    +0.070 C 
ENDROOT
BRANCH   1   3
ATOM      3  C   LIG    1       -2.268  -4.210  -0.102  0.00  0.00    +0.520 C 
ATOM      4  N   LIG    1       -2.314  -2.868   0.007  0.00  0.00    -0.670 N 
ATOM      5  H   LIG    1       -3.170  -2.417   0.084  0.00  0.00    +0.410 HD
ATOM      6  O   LIG    1       -1.197  -4.780  -0.116  0.00  0.00    -0.490 OA
BRANCH   4   7
ATOM      7  C   LIG    1       -1.129  -2.124   0.010  0.00  0.00    +0.150 A 
ATOM      8  C   LIG    1       -1.103  -0.882  -0.584  0.00  0.00    -0.010 A 
ATOM      9  C   LIG    1        0.089  -0.139  -0.580  0.00  0.00    -0.030 A 
ATOM     10  C   LIG    1        0.157   1.132  -1.176  0.00  0.00    +0.020 A 
ATOM     11  C   LIG    1        1.328   1.825  -1.154  0.00  0.00    +0.010 A 
ATOM     12  C   LIG    1        2.464   1.294  -0.548  0.00  0.00    +0.000 A 
ATOM     13  C   LIG    1        2.436   0.066   0.040  0.00  0.00    +0.030 A 
ATOM     14  C   LIG    1        1.245  -0.680   0.037  0.00  0.00    -0.060 A 
ATOM     15  C   LIG    1        1.182  -1.951   0.635  0.00  0.00    +0.040 A 
ATOM     16  C   LIG    1        0.017  -2.651   0.617  0.00  0.00    +0.020 A 
ENDBRANCH   4   7
ENDBRANCH   1   3
BRANCH   1  17
ATOM     17  O   LIG    1       -3.231  -6.416  -0.316  0.00  0.00    -0.320 OA
BRANCH  17  18
ATOM     18  C   LIG    1       -4.090  -7.181  -1.007  0.00  0.00    +0.470 C 
ATOM     19  O   LIG    1       -5.073  -6.686  -1.506  0.00  0.00    -0.500 OA
BRANCH  18  20
ATOM     20  C   LIG    1       -3.830  -8.657  -1.161  0.00  0.00    +0.110 C 
BRANCH  20  21
ATOM     21  C   LIG    1       -4.952  -9.290  -1.985  0.00  0.00    +0.330 C 
BRANCH  21  28
ATOM     22  C   LIG    1       -3.412 -10.305  -4.244  0.00  0.00    +0.160 C 
ATOM     23  C   LIG    1       -3.981 -11.213  -3.185  0.00  0.00    +0.100 A 
ATOM     24  C   LIG    1       -3.804 -12.527  -3.227  0.00  0.00    -0.040 A 
ATOM     25  S   LIG    1       -4.646 -13.158  -1.800  0.00  0.00    +0.010 S 
ATOM     26  C   LIG    1       -5.169 -11.614  -1.245  0.00  0.00    +0.480 A 
ATOM     27  O   LIG    1       -5.830 -11.377  -0.249  0.00  0.00    -0.470 OA
ATOM     28  N   LIG    1       -4.699 -10.725  -2.134  0.00  0.00    -0.530 N 
ENDBRANCH  21  28
ENDBRANCH  20  21
ENDBRANCH  18  20
ENDBRANCH  17  18
ENDBRANCH   1  17
TORSDOF 7
