REMARK  Name = ZINCqH0000032I5X.0
REMARK                            x       y       z     vdW  Elec       q    Type
REMARK                         _______ _______ _______ _____ _____    ______ ____
ROOT
ATOM      1  C   LIG    1        4.752   2.484  -0.029  0.00  0.00    +0.400 C 
ENDROOT
BRANCH   1   2
ATOM      2  C   LIG    1        3.245   2.491  -0.015  0.00  0.00    +0.270 A 
ATOM      3  N   LIG    1        2.495   1.428  -0.013  0.00  0.00    -0.480 NA
ATOM      4  C   LIG    1        1.187   1.792   0.000  0.00  0.00    +0.050 A 
ATOM      5  C   LIG    1       -0.013   1.076   0.008  0.00  0.00    +0.070 A 
ATOM      6  C   LIG    1       -1.204   1.744   0.017  0.00  0.00    +0.000 A 
ATOM      7  C   LIG    1       -1.238   3.131   0.030  0.00  0.00    +0.030 A 
ATOM      8  C   LIG    1       -0.067   3.858   0.022  0.00  0.00    +0.010 A 
ATOM      9  C   LIG    1        1.153   3.197   0.008  0.00  0.00    +0.050 A 
ATOM     10  N   LIG    1        2.471   3.609  -0.002  0.00  0.00    -0.480 N 
ATOM     11  C   LIG    1        2.947   4.995   0.001  0.00  0.00    +0.330 C 
ENDBRANCH   1   2
BRANCH   1  15
ATOM     12  N   LIG    1        6.926   0.736   2.367  0.00  0.00    -0.730 N 
ATOM     13  H   LIG    1        6.369  -0.016   2.620  0.00  0.00    +0.400 HD
ATOM     14  C   LIG    1        6.473   1.641   1.477  0.00  0.00    +0.710 C 
ATOM     15  N   LIG    1        5.245   1.500   0.939  0.00  0.00    -0.730 N 
ATOM     16  H   LIG    1        4.688   0.748   1.192  0.00  0.00    +0.410 HD
ATOM     17  O   LIG    1        7.171   2.584   1.159  0.00  0.00    -0.580 OA
BRANCH  12  21
ATOM     18  C   LIG    1       10.911   0.791   4.183  0.00  0.00    +0.040 C 
ATOM     19  C   LIG    1        9.816  -0.227   3.860  0.00  0.00    -0.030 C 
ATOM     20  C   LIG    1        8.415   0.208   4.321  0.00  0.00    +0.030 C 
ATOM     21  C   LIG    1        8.261   0.889   2.951  0.00  0.00    +0.260 C 
ATOM     22  C   LIG    1        9.286  -0.125   2.419  0.00  0.00    +0.000 C 
ENDBRANCH  12  21
ENDBRANCH   1  15
BRANCH   1  23
ATOM     23  C   LIG    1        5.240   2.121  -1.407  0.00  0.00    -0.100 A 
ATOM     24  C   LIG    1        5.270   0.796  -1.803  0.00  0.00    +0.040 A 
ATOM     25  C   LIG    1        5.713   0.464  -3.070  0.00  0.00    +0.000 A 
ATOM     26  C   LIG    1        6.135   1.454  -3.937  0.00  0.00    +0.010 A 
ATOM     27  C   LIG    1        6.110   2.778  -3.539  0.00  0.00    +0.000 A 
ATOM     28  C   LIG    1        5.663   3.111  -2.274  0.00  0.00    +0.020 A 
ENDBRANCH   1  23
TORSDOF 4
