REMARK  Name = ZINCrD00000hQ59I.0
REMARK                            x       y       z     vdW  Elec       q    Type
REMARK                         _______ _______ _______ _____ _____    ______ ____
ROOT
ATOM      1  C   LIG    1       -4.217  -0.322  -2.997  0.00  0.00    +0.530 C 
ATOM      2  N   LIG    1       -3.521   0.628  -2.342  0.00  0.00    -0.720 N 
ATOM      3  H   LIG    1       -3.697   1.566  -2.518  0.00  0.00    +0.400 HD
ATOM      4  O   LIG    1       -4.060  -1.491  -2.715  0.00  0.00    -0.530 OA
ENDROOT
BRANCH   1   5
ATOM      5  C   LIG    1       -5.189   0.068  -4.081  0.00  0.00    -0.040 C 
ATOM      6  C   LIG    1       -5.821  -1.192  -4.700  0.00  0.00    +0.050 C 
ATOM      7  C   LIG    1       -5.439  -1.185  -6.196  0.00  0.00    +0.020 C 
ATOM      8  C   LIG    1       -4.156  -0.318  -6.257  0.00  0.00    +0.020 C 
ATOM      9  C   LIG    1       -4.447   0.796  -5.220  0.00  0.00    +0.040 C 
BRANCH   5  16
ATOM     10  C   LIG    1       -6.869  -0.885  -1.931  0.00  0.00    +0.090 C 
ATOM     11  C   LIG    1       -7.068   0.502  -2.484  0.00  0.00    -0.070 A 
ATOM     12  C   LIG    1       -8.054   1.319  -1.964  0.00  0.00    +0.000 A 
ATOM     13  C   LIG    1       -8.236   2.592  -2.471  0.00  0.00    +0.010 A 
ATOM     14  C   LIG    1       -7.432   3.048  -3.499  0.00  0.00    +0.000 A 
ATOM     15  C   LIG    1       -6.443   2.233  -4.016  0.00  0.00    +0.010 A 
ATOM     16  C   LIG    1       -6.264   0.958  -3.513  0.00  0.00    -0.080 A 
ENDBRANCH   5  16
ENDBRANCH   1   5
BRANCH   2  17
ATOM     17  C   LIG    1       -2.498   0.245  -1.366  0.00  0.00    +0.290 C 
BRANCH  17  18
ATOM     18  C   LIG    1       -1.925   1.502  -0.708  0.00  0.00    +0.150 C 
ATOM     19  C   LIG    1       -0.872   1.110   0.345  0.00  0.00    +0.040 C 
ATOM     20  C   LIG    1       -1.396   1.689   1.679  0.00  0.00    +0.040 C 
ATOM     21  C   LIG    1       -2.360   2.812   1.212  0.00  0.00    +0.190 C 
ATOM     22  N   LIG    1       -2.997   2.233   0.002  0.00  0.00    -0.450 N 
BRANCH  22  23
ATOM     23  C   LIG    1       -3.537   3.231  -0.802  0.00  0.00    +0.240 A 
ATOM     24  C   LIG    1       -4.735   3.848  -0.444  0.00  0.00    +0.040 A 
ATOM     25  C   LIG    1       -5.228   4.840  -1.277  0.00  0.00    +0.060 A 
ATOM     26  C   LIG    1       -4.506   5.151  -2.420  0.00  0.00    +0.200 A 
ATOM     27  N   LIG    1       -3.384   4.513  -2.685  0.00  0.00    -0.220 NA
ATOM     28  N   LIG    1       -2.918   3.596  -1.916  0.00  0.00    -0.290 NA
ENDBRANCH  22  23
ENDBRANCH  17  18
ENDBRANCH   2  17
TORSDOF 5
