REMARK  Name = ZINCrH000004t2M6.0
REMARK                            x       y       z     vdW  Elec       q    Type
REMARK                         _______ _______ _______ _____ _____    ______ ____
ROOT
ATOM      1  C   LIG    1        3.583   3.873  -4.789  0.00  0.00    +0.310 C 
ATOM      2  C   LIG    1        3.054   2.520  -5.260  0.00  0.00    +0.020 C 
ATOM      3  C   LIG    1        4.150   1.464  -5.105  0.00  0.00    +0.010 C 
ATOM      4  C   LIG    1        4.542   1.345  -3.630  0.00  0.00    +0.010 C 
ATOM      5  C   LIG    1        5.093   2.688  -3.143  0.00  0.00    +0.260 C 
ATOM      6  N   LIG    1        4.100   3.735  -3.421  0.00  0.00    -0.620 N 
ATOM      7  C   LIG    1        3.668   4.550  -2.438  0.00  0.00    +0.700 C 
ATOM      8  N   LIG    1        4.221   4.478  -1.211  0.00  0.00    -0.740 N 
ATOM      9  H   LIG    1        4.981   3.897  -1.055  0.00  0.00    +0.400 HD
ATOM     10  O   LIG    1        2.779   5.350  -2.659  0.00  0.00    -0.560 OA
ENDROOT
BRANCH   8  11
ATOM     11  C   LIG    1        3.673   5.279  -0.113  0.00  0.00    +0.310 C 
ATOM     12  C   LIG    1        4.300   6.673  -0.132  0.00  0.00    +0.020 C 
ATOM     13  C   LIG    1        5.762   6.603  -0.546  0.00  0.00    +0.010 C 
ATOM     14  C   LIG    1        6.644   5.913   0.473  0.00  0.00    +0.230 C 
ATOM     15  O   LIG    1        6.294   4.531   0.600  0.00  0.00    -0.330 OA
ATOM     16  C   LIG    1        5.300   4.255   1.488  0.00  0.00    +0.130 A 
ATOM     17  C   LIG    1        5.603   3.624   2.687  0.00  0.00    -0.020 A 
ATOM     18  C   LIG    1        4.594   3.363   3.598  0.00  0.00    +0.120 A 
ATOM     19  C   LIG    1        3.291   3.744   3.322  0.00  0.00    -0.020 A 
ATOM     20  C   LIG    1        2.992   4.373   2.127  0.00  0.00    +0.080 A 
ATOM     21  F   LIG    1        4.881   2.737   4.761  0.00  0.00    -0.130 F 
ATOM     22  C   LIG    1        3.997   4.618   1.213  0.00  0.00    -0.140 A 
ENDBRANCH   8  11
BRANCH   1  26
ATOM     23  C   LIG    1        0.907   8.015  -5.689  0.00  0.00    +0.340 C 
ATOM     24  N   LIG    1        1.306   6.691  -5.203  0.00  0.00    -0.380 N 
ATOM     25  C   LIG    1        2.497   6.093  -5.417  0.00  0.00    +0.210 A 
ATOM     26  C   LIG    1        2.467   4.885  -4.808  0.00  0.00    -0.200 A 
ATOM     27  C   LIG    1        1.218   4.743  -4.194  0.00  0.00    +0.270 A 
ATOM     28  N   LIG    1        0.521   5.826  -4.431  0.00  0.00    -0.300 NA
ENDBRANCH   1  26
TORSDOF 2
