REMARK  Name = ZINCvU0000000JDN.0
REMARK                            x       y       z     vdW  Elec       q    Type
REMARK                         _______ _______ _______ _____ _____    ______ ____
ROOT
ATOM      1  C   LIG    1       -6.004  -0.463   0.479  0.00  0.00    +0.540 C 
ATOM      2  O   LIG    1       -6.141  -1.671   0.488  0.00  0.00    -0.490 OA
ENDROOT
BRANCH   1   3
ATOM      3  C   LIG    1       -7.177   0.408   0.597  0.00  0.00    -0.240 A 
ATOM      4  C   LIG    1       -8.469  -0.023   0.721  0.00  0.00    +0.130 A 
ATOM      5  C   LIG    1       -9.398   0.975   0.816  0.00  0.00    +0.070 A 
ATOM      6  C   LIG    1       -8.885   2.241   0.771  0.00  0.00    -0.130 A 
ATOM      7  S   LIG    1       -7.136   2.166   0.607  0.00  0.00    +0.260 S 
BRANCH   6   8
ATOM      8  C   LIG    1       -9.676   3.480   0.854  0.00  0.00    +0.170 A 
ATOM      9  N   LIG    1      -10.962   3.529   0.975  0.00  0.00    -0.440 NA
ATOM     10  C   LIG    1      -11.542   4.732   1.042  0.00  0.00    +0.080 A 
ATOM     11  C   LIG    1      -12.912   5.047   1.179  0.00  0.00    +0.080 A 
ATOM     12  C   LIG    1      -13.323   6.344   1.223  0.00  0.00    +0.030 A 
ATOM     13  C   LIG    1      -12.407   7.383   1.138  0.00  0.00    +0.050 A 
ATOM     14  C   LIG    1      -11.064   7.108   1.006  0.00  0.00    +0.060 A 
ATOM     15  C   LIG    1      -10.624   5.787   0.957  0.00  0.00    -0.170 A 
ATOM     16  S   LIG    1       -9.007   5.106   0.796  0.00  0.00    +0.080 S 
ENDBRANCH   6   8
ENDBRANCH   1   3
BRANCH   1  17
ATOM     17  O   LIG    1       -4.773   0.076   0.361  0.00  0.00    -0.330 OA
BRANCH  17  18
ATOM     18  C   LIG    1       -3.658  -0.847   0.249  0.00  0.00    +0.270 C 
BRANCH  18  20
ATOM     19  N   LIG    1       -1.199  -0.722   0.010  0.00  0.00    -0.570 N 
ATOM     20  C   LIG    1       -2.373  -0.070   0.127  0.00  0.00    +0.520 C 
ATOM     21  O   LIG    1       -2.395   1.143   0.134  0.00  0.00    -0.490 OA
BRANCH  19  22
ATOM     22  C   LIG    1        0.002  -0.004  -0.002  0.00  0.00    +0.130 A 
ATOM     23  C   LIG    1        0.429   0.657   1.143  0.00  0.00    +0.010 A 
ATOM     24  C   LIG    1        1.615   1.364   1.128  0.00  0.00    +0.020 A 
ATOM     25  C   LIG    1        2.377   1.415  -0.024  0.00  0.00    +0.020 A 
ATOM     26  C   LIG    1        1.955   0.758  -1.166  0.00  0.00    +0.020 A 
ATOM     27  C   LIG    1        0.770   0.049  -1.157  0.00  0.00    +0.010 A 
ENDBRANCH  19  22
BRANCH  19  28
ATOM     28  C   LIG    1       -1.181  -2.182  -0.105  0.00  0.00    +0.310 C 
BRANCH  28  29
ATOM     29  C   LIG    1       -1.094  -2.802   1.291  0.00  0.00    +0.180 C 
BRANCH  29  31
ATOM     30  N   LIG    1       -1.061  -5.402   1.087  0.00  0.00    -0.420 NA
ATOM     31  C   LIG    1       -1.075  -4.270   1.176  0.00  0.00    +0.200 C 
ENDBRANCH  29  31
ENDBRANCH  28  29
ENDBRANCH  19  28
ENDBRANCH  18  20
ENDBRANCH  17  18
ENDBRANCH   1  17
TORSDOF 9
