REMARK  Name = ZINCpk00000ebgQC.0
REMARK                            x       y       z     vdW  Elec       q    Type
REMARK                         _______ _______ _______ _____ _____    ______ ____
ROOT
ATOM      1  C   LIG    1       -2.009   3.792   3.880  0.00  0.00    +0.240 C 
ATOM      2  C   LIG    1       -0.900   4.819   4.118  0.00  0.00    +0.030 C 
ATOM      3  C   LIG    1        0.454   4.192   3.769  0.00  0.00    +0.280 C 
ATOM      4  N   LIG    1        0.395   3.674   2.395  0.00  0.00    -0.610 N 
ATOM      5  C   LIG    1       -0.692   2.753   2.033  0.00  0.00    +0.270 C 
ATOM      6  C   LIG    1        1.316   4.042   1.482  0.00  0.00    +0.500 C 
ATOM      7  O   LIG    1        2.243   4.752   1.809  0.00  0.00    -0.530 OA
ATOM      8  C   LIG    1       -2.029   3.392   2.403  0.00  0.00    +0.010 C 
ENDROOT
BRANCH   1  10
ATOM      9  C   LIG    1       -4.325   3.578   4.607  0.00  0.00    +0.590 C 
ATOM     10  N   LIG    1       -3.302   4.377   4.245  0.00  0.00    -0.720 N 
ATOM     11  H   LIG    1       -3.422   5.339   4.226  0.00  0.00    +0.400 HD
ATOM     12  O   LIG    1       -4.205   2.368   4.543  0.00  0.00    -0.550 OA
BRANCH   9  18
ATOM     13  C   LIG    1       -6.773   2.021   5.694  0.00  0.00    +0.330 C 
ATOM     14  N   LIG    1       -6.673   3.477   5.561  0.00  0.00    -0.410 N 
ATOM     15  C   LIG    1       -7.636   4.369   5.897  0.00  0.00    +0.190 A 
ATOM     16  C   LIG    1       -7.189   5.619   5.628  0.00  0.00    -0.070 A 
ATOM     17  C   LIG    1       -5.894   5.509   5.109  0.00  0.00    +0.000 A 
ATOM     18  C   LIG    1       -5.584   4.166   5.077  0.00  0.00    -0.060 A 
ENDBRANCH   9  18
ENDBRANCH   1  10
BRANCH   6  19
ATOM     19  C   LIG    1        1.195   3.569   0.057  0.00  0.00    +0.270 C 
BRANCH  19  20
ATOM     20  C   LIG    1        1.810   2.199  -0.073  0.00  0.00    -0.120 A 
ATOM     21  C   LIG    1        1.010   1.074  -0.004  0.00  0.00    +0.020 A 
ATOM     22  C   LIG    1        1.574  -0.183  -0.124  0.00  0.00    +0.010 A 
ATOM     23  C   LIG    1        2.938  -0.314  -0.311  0.00  0.00    +0.020 A 
ATOM     24  C   LIG    1        3.737   0.812  -0.380  0.00  0.00    +0.020 A 
ATOM     25  C   LIG    1        3.173   2.069  -0.262  0.00  0.00    +0.020 A 
ENDBRANCH  19  20
BRANCH  19  26
ATOM     26  O   LIG    1        1.877   4.481  -0.807  0.00  0.00    -0.530 OA
ATOM     27  H   LIG    1        2.820   4.572  -0.616  0.00  0.00    +0.390 HD
ENDBRANCH  19  26
ENDBRANCH   6  19
TORSDOF 5
