REMARK  Name = ZINCqH0000008GQ9.0
REMARK                            x       y       z     vdW  Elec       q    Type
REMARK                         _______ _______ _______ _____ _____    ______ ____
ROOT
ATOM      1  C   LIG    1        3.994   0.124  -2.141  0.00  0.00    +0.060 C 
ATOM      2  C   LIG    1        4.114   0.394  -0.640  0.00  0.00    -0.020 C 
ATOM      3  C   LIG    1        2.896  -0.047   0.189  0.00  0.00    +0.270 C 
ATOM      4  N   LIG    1        2.301   1.270  -0.086  0.00  0.00    -0.660 N 
ATOM      5  C   LIG    1        1.054   1.772  -0.175  0.00  0.00    +0.730 C 
ATOM      6  N   LIG    1       -0.011   0.966   0.007  0.00  0.00    -0.680 N 
ATOM      7  H   LIG    1        0.117   0.012   0.125  0.00  0.00    +0.410 HD
ATOM      8  O   LIG    1        0.889   2.951  -0.421  0.00  0.00    -0.550 OA
ATOM      9  C   LIG    1        3.667   1.799  -0.215  0.00  0.00    +0.300 C 
ENDROOT
BRANCH   6  10
ATOM     10  C   LIG    1       -1.302   1.505   0.021  0.00  0.00    +0.180 A 
ATOM     11  C   LIG    1       -1.516   2.777   0.536  0.00  0.00    +0.020 A 
ATOM     12  C   LIG    1       -2.787   3.313   0.546  0.00  0.00    +0.070 A 
ATOM     13  C   LIG    1       -3.858   2.572   0.050  0.00  0.00    -0.040 A 
ATOM     14  C   LIG    1       -3.641   1.294  -0.461  0.00  0.00    +0.090 A 
ATOM     15  C   LIG    1       -2.368   0.765  -0.475  0.00  0.00    -0.020 A 
BRANCH  13  16
ATOM     16  C   LIG    1       -5.227   3.144   0.064  0.00  0.00    +0.270 A 
ATOM     17  N   LIG    1       -5.557   4.332   0.523  0.00  0.00    -0.310 NA
ATOM     18  N   LIG    1       -6.943   4.464   0.342  0.00  0.00    -0.380 N 
ATOM     19  C   LIG    1       -7.366   3.317  -0.220  0.00  0.00    +0.480 A 
ATOM     20  C   LIG    1       -7.767   5.621   0.699  0.00  0.00    +0.370 C 
ATOM     21  N   LIG    1       -6.333   2.534  -0.382  0.00  0.00    -0.540 NA
ENDBRANCH  13  16
ENDBRANCH   6  10
BRANCH   9  22
ATOM     22  C   LIG    1        3.811   2.830  -1.306  0.00  0.00    -0.100 A 
ATOM     23  C   LIG    1        2.883   2.888  -2.328  0.00  0.00    +0.040 A 
ATOM     24  C   LIG    1        3.012   3.837  -3.325  0.00  0.00    +0.000 A 
ATOM     25  C   LIG    1        4.075   4.720  -3.306  0.00  0.00    +0.010 A 
ATOM     26  C   LIG    1        5.007   4.658  -2.286  0.00  0.00    -0.010 A 
ATOM     27  C   LIG    1        4.875   3.713  -1.286  0.00  0.00    +0.010 A 
ENDBRANCH   9  22
TORSDOF 3
