REMARK  Name = ZINCrH000004qRGk.1
REMARK                            x       y       z     vdW  Elec       q    Type
REMARK                         _______ _______ _______ _____ _____    ______ ____
ROOT
ATOM      1  C   LIG    1       -4.898   0.666   0.830  0.00  0.00    +0.130 A 
ATOM      2  C   LIG    1       -5.531   1.692   0.140  0.00  0.00    +0.080 A 
ATOM      3  C   LIG    1       -5.012   2.137  -1.060  0.00  0.00    +0.030 A 
ATOM      4  C   LIG    1       -3.865   1.562  -1.575  0.00  0.00    +0.110 A 
ATOM      5  C   LIG    1       -3.233   0.540  -0.891  0.00  0.00    -0.660 A 
ATOM      6  C   LIG    1       -3.749   0.086   0.307  0.00  0.00    +0.120 A 
ENDROOT
BRANCH   5   7
ATOM      7  S   LIG    1       -1.771  -0.189  -1.552  0.00  0.00    +2.680 S 
ATOM      8  O   LIG    1       -1.680  -1.489  -0.985  0.00  0.00    -0.950 OA
ATOM      9  O   LIG    1       -1.803   0.047  -2.952  0.00  0.00    -0.950 OA
BRANCH   7  10
ATOM     10  N   LIG    1       -0.485   0.670  -0.961  0.00  0.00    -0.980 NA
ATOM     11  C   LIG    1        0.116   0.250   0.285  0.00  0.00    +0.290 C 
ATOM     12  C   LIG    1       -0.596   0.952   1.467  0.00  0.00    -0.010 C 
ATOM     13  C   LIG    1       -0.249   2.382   1.496  0.00  0.00    +0.000 C 
ATOM     14  C   LIG    1       -0.701   3.163   0.266  0.00  0.00    +0.000 C 
ATOM     15  C   LIG    1        0.338   3.029  -0.821  0.00  0.00    +0.020 C 
ATOM     16  C   LIG    1        0.002   1.833  -1.729  0.00  0.00    +0.280 C 
ENDBRANCH   7  10
ENDBRANCH   5   7
BRANCH   1  17
ATOM     17  N   LIG    1       -5.420   0.213   2.044  0.00  0.00    -1.060 N 
ATOM     18  H   LIG    1       -4.830   0.064   2.800  0.00  0.00    +0.430 HD
BRANCH  17  19
ATOM     19  S   LIG    1       -7.045  -0.067   2.194  0.00  0.00    +2.710 S 
ATOM     20  O   LIG    1       -7.699   1.102   1.720  0.00  0.00    -0.950 OA
ATOM     21  O   LIG    1       -7.243  -0.593   3.499  0.00  0.00    -0.940 OA
BRANCH  19  25
ATOM     22  C   LIG    1       -9.344  -2.285  -2.018  0.00  0.00    +0.140 C 
ATOM     23  C   LIG    1       -8.490  -2.241  -0.777  0.00  0.00    -0.190 A 
ATOM     24  C   LIG    1       -8.280  -1.158  -0.027  0.00  0.00    +0.080 A 
ATOM     25  C   LIG    1       -7.457  -1.359   1.069  0.00  0.00    -0.690 A 
ATOM     26  C   LIG    1       -6.996  -2.603   1.205  0.00  0.00    -0.060 A 
ATOM     27  C   LIG    1       -6.083  -3.075   2.307  0.00  0.00    +0.160 C 
ATOM     28  S   LIG    1       -7.619  -3.609  -0.096  0.00  0.00    +0.160 S 
ENDBRANCH  19  25
ENDBRANCH  17  19
ENDBRANCH   1  17
TORSDOF 5
