REMARK  Name = ZINCqH00000028KE.0
REMARK                            x       y       z     vdW  Elec       q    Type
REMARK                         _______ _______ _______ _____ _____    ______ ____
ROOT
ATOM      1  N   LIG    1       -0.073   5.565   0.032  0.00  0.00    -0.660 N 
ATOM      2  H   LIG    1       -0.776   6.043  -0.436  0.00  0.00    +0.410 HD
ATOM      3  C   LIG    1        0.880   6.248   0.696  0.00  0.00    +0.510 C 
ATOM      4  O   LIG    1        1.804   5.655   1.211  0.00  0.00    -0.510 OA
ENDROOT
BRANCH   1   8
ATOM      5  C   LIG    1       -0.004   1.395  -0.009  0.00  0.00    +0.100 A 
ATOM      6  C   LIG    1       -1.218   2.069   0.009  0.00  0.00    -0.020 A 
ATOM      7  C   LIG    1       -1.241   3.450   0.028  0.00  0.00    +0.020 A 
ATOM      8  C   LIG    1       -0.050   4.164   0.018  0.00  0.00    +0.110 A 
ATOM      9  C   LIG    1        1.164   3.490  -0.006  0.00  0.00    +0.050 A 
ATOM     10  C   LIG    1        1.187   2.110  -0.020  0.00  0.00    +0.010 A 
BRANCH   5  15
ATOM     11  C   LIG    1       -0.369  -4.169  -0.901  0.00  0.00    +0.030 C 
ATOM     12  C   LIG    1       -0.487  -2.652  -1.057  0.00  0.00    -0.030 C 
ATOM     13  C   LIG    1       -1.278  -2.076   0.121  0.00  0.00    +0.030 C 
ATOM     14  C   LIG    1       -1.342  -0.553  -0.009  0.00  0.00    +0.180 C 
ATOM     15  N   LIG    1        0.020  -0.004  -0.024  0.00  0.00    -0.490 N 
ATOM     16  C   LIG    1        0.783  -0.506  -1.174  0.00  0.00    +0.180 C 
ATOM     17  C   LIG    1        0.910  -2.028  -1.077  0.00  0.00    +0.030 C 
ENDBRANCH   5  15
ENDBRANCH   1   8
BRANCH   3  18
ATOM     18  C   LIG    1        0.797   7.750   0.800  0.00  0.00    +0.250 C 
ATOM     19  C   LIG    1       -0.501   8.141   1.509  0.00  0.00    +0.060 C 
BRANCH  18  20
ATOM     20  N   LIG    1        1.942   8.250   1.564  0.00  0.00    -0.710 N 
ATOM     21  H   LIG    1        2.389   7.672   2.203  0.00  0.00    +0.410 HD
ATOM     22  C   LIG    1        2.375   9.513   1.381  0.00  0.00    +0.600 C 
ATOM     23  O   LIG    1        1.814  10.238   0.580  0.00  0.00    -0.530 OA
BRANCH  22  24
ATOM     24  C   LIG    1        3.520  10.014   2.146  0.00  0.00    -0.280 A 
ATOM     25  C   LIG    1        4.050  11.270   2.049  0.00  0.00    +0.110 A 
ATOM     26  C   LIG    1        5.124  11.473   2.883  0.00  0.00    +0.000 A 
ATOM     27  C   LIG    1        5.463  10.421   3.638  0.00  0.00    -0.050 A 
ATOM     28  S   LIG    1        4.428   9.098   3.341  0.00  0.00    +0.210 S 
ENDBRANCH  22  24
ENDBRANCH  18  20
ENDBRANCH   3  18
TORSDOF 5
