REMARK  Name = ZINCrD0000075zRO.0
REMARK                            x       y       z     vdW  Elec       q    Type
REMARK                         _______ _______ _______ _____ _____    ______ ____
ROOT
ATOM      1  C   LIG    1        1.356  -0.391  -0.013  0.00  0.00    -0.290 A 
ATOM      2  C   LIG    1        0.002  -0.004   0.002  0.00  0.00    +0.330 A 
ATOM      3  N   LIG    1       -1.134  -0.703   0.010  0.00  0.00    -0.430 NA
ATOM      4  C   LIG    1       -2.300  -0.094   0.025  0.00  0.00    +0.250 A 
ATOM      5  C   LIG    1       -2.362   1.304   0.033  0.00  0.00    +0.010 A 
ATOM      6  C   LIG    1       -1.209   2.022   0.029  0.00  0.00    +0.110 A 
ATOM      7  N   LIG    1       -0.016   1.362   0.009  0.00  0.00    -0.300 N 
ATOM      8  N   LIG    1        1.307   1.815  -0.001  0.00  0.00    -0.290 NA
ATOM      9  C   LIG    1        2.119   0.790  -0.014  0.00  0.00    +0.340 A 
ENDROOT
BRANCH   1  11
ATOM     10  O   LIG    1        1.099  -2.703  -0.022  0.00  0.00    -0.520 OA
ATOM     11  C   LIG    1        1.871  -1.763  -0.025  0.00  0.00    +0.600 C 
ATOM     12  N   LIG    1        3.201  -1.983  -0.039  0.00  0.00    -0.730 N 
ATOM     13  H   LIG    1        3.817  -1.234  -0.041  0.00  0.00    +0.400 HD
BRANCH  12  14
ATOM     14  C   LIG    1        3.716  -3.354  -0.051  0.00  0.00    +0.270 C 
BRANCH  14  15
ATOM     15  C   LIG    1        5.246  -3.325  -0.065  0.00  0.00    +0.260 C 
BRANCH  15  16
ATOM     16  N   LIG    1        5.761  -4.696  -0.077  0.00  0.00    -0.750 N 
ATOM     17  H   LIG    1        5.145  -5.445  -0.075  0.00  0.00    +0.400 HD
BRANCH  16  18
ATOM     18  C   LIG    1        7.139  -4.924  -0.091  0.00  0.00    +0.210 A 
ATOM     19  C   LIG    1        8.022  -3.852  -0.100  0.00  0.00    -0.080 A 
ATOM     20  C   LIG    1        9.384  -4.081  -0.110  0.00  0.00    +0.050 A 
ATOM     21  C   LIG    1        9.869  -5.376  -0.121  0.00  0.00    -0.060 A 
ATOM     22  C   LIG    1        8.992  -6.446  -0.117  0.00  0.00    +0.050 A 
ATOM     23  C   LIG    1        7.629  -6.224  -0.103  0.00  0.00    -0.070 A 
ENDBRANCH  16  18
ENDBRANCH  15  16
ENDBRANCH  14  15
ENDBRANCH  12  14
ENDBRANCH   1  11
BRANCH   6  24
ATOM     24  C   LIG    1       -1.248   3.528   0.038  0.00  0.00    +0.480 C 
ATOM     25  F   LIG    1       -0.616   4.018  -1.110  0.00  0.00    -0.180 F 
ATOM     26  F   LIG    1       -0.585   4.005   1.175  0.00  0.00    -0.180 F 
ENDBRANCH   6  24
BRANCH   4  27
ATOM     27  C   LIG    1       -3.571  -0.903   0.034  0.00  0.00    +0.000 C 
ATOM     28  C   LIG    1       -3.831  -1.798   1.248  0.00  0.00    +0.060 C 
ATOM     29  C   LIG    1       -3.442  -2.423  -0.093  0.00  0.00    +0.070 C 
ENDBRANCH   4  27
TORSDOF 7
