REMARK  Name = ZINCrg000000taZD.0
REMARK                            x       y       z     vdW  Elec       q    Type
REMARK                         _______ _______ _______ _____ _____    ______ ____
ROOT
ATOM      1  O   LIG    1        2.760  -3.604   2.624  0.00  0.00    -0.510 OA
ATOM      2  C   LIG    1        1.662  -3.704   2.118  0.00  0.00    +0.520 C 
ATOM      3  N   LIG    1        0.747  -4.537   2.653  0.00  0.00    -0.670 N 
ATOM      4  H   LIG    1       -0.152  -4.567   2.290  0.00  0.00    +0.420 HD
ENDROOT
BRANCH   3   5
ATOM      5  C   LIG    1        1.094  -5.357   3.734  0.00  0.00    +0.130 A 
ATOM      6  C   LIG    1        1.984  -4.899   4.696  0.00  0.00    +0.100 A 
ATOM      7  C   LIG    1        2.324  -5.710   5.762  0.00  0.00    +0.040 A 
ATOM      8  C   LIG    1        1.779  -6.977   5.870  0.00  0.00    +0.040 A 
ATOM      9  C   LIG    1        0.892  -7.435   4.912  0.00  0.00    -0.660 A 
ATOM     10 CL   LIG    1        2.208  -7.993   7.210  0.00  0.00    -0.040 Cl
ATOM     11  C   LIG    1        0.545  -6.627   3.847  0.00  0.00    +0.120 A 
BRANCH   9  12
ATOM     12  S   LIG    1        0.199  -9.049   5.054  0.00  0.00    +2.710 S 
ATOM     13  O   LIG    1       -0.632  -9.231   3.915  0.00  0.00    -0.950 OA
ATOM     14  O   LIG    1       -0.275  -9.167   6.388  0.00  0.00    -0.930 OA
BRANCH  12  15
ATOM     15  N   LIG    1        1.443 -10.132   4.902  0.00  0.00    -1.010 NA
ATOM     16  C   LIG    1        1.912 -10.727   3.643  0.00  0.00    +0.270 C 
ATOM     17  C   LIG    1        3.067 -11.689   3.993  0.00  0.00    +0.030 C 
ATOM     18  C   LIG    1        2.805 -12.015   5.487  0.00  0.00    +0.040 C 
ATOM     19  C   LIG    1        2.260 -10.662   6.009  0.00  0.00    +0.270 C 
ENDBRANCH  12  15
ENDBRANCH   9  12
ENDBRANCH   3   5
BRANCH   2  20
ATOM     20  C   LIG    1        1.321  -2.899   0.891  0.00  0.00    +0.070 C 
BRANCH  20  21
ATOM     21  C   LIG    1        2.525  -2.043   0.492  0.00  0.00    +0.080 C 
BRANCH  21  22
ATOM     22  C   LIG    1        2.179  -1.225  -0.754  0.00  0.00    +0.220 C 
ATOM     23  N   LIG    1        1.110  -0.256  -0.457  0.00  0.00    -0.720 N 
ATOM     24  H   LIG    1        0.208  -0.460  -0.163  0.00  0.00    +0.440 HD
ATOM     25  C   LIG    1        1.628   0.967  -0.672  0.00  0.00    +0.700 C 
ATOM     26  N   LIG    1        2.903   0.918  -1.073  0.00  0.00    -0.680 N 
ATOM     27  H   LIG    1        3.441   1.700  -1.276  0.00  0.00    +0.440 HD
ATOM     28  O   LIG    1        1.005   2.000  -0.524  0.00  0.00    -0.540 OA
ATOM     29  C   LIG    1        3.349  -0.351  -1.160  0.00  0.00    +0.530 C 
ATOM     30  O   LIG    1        4.455  -0.717  -1.493  0.00  0.00    -0.460 OA
ENDBRANCH  21  22
ENDBRANCH  20  21
ENDBRANCH   2  20
TORSDOF 6
