REMARK  Name = ZINCrD000000AjXu.0
REMARK                            x       y       z     vdW  Elec       q    Type
REMARK                         _______ _______ _______ _____ _____    ______ ____
ROOT
ATOM      1  O   LIG    1        3.630  -5.112   0.332  0.00  0.00    -0.540 OA
ATOM      2  C   LIG    1        3.239  -4.663   1.389  0.00  0.00    +0.520 C 
ATOM      3  N   LIG    1        3.695  -5.175   2.549  0.00  0.00    -0.730 N 
ATOM      4  H   LIG    1        3.383  -4.815   3.394  0.00  0.00    +0.400 HD
ENDROOT
BRANCH   3   5
ATOM      5  C   LIG    1        4.663  -6.274   2.534  0.00  0.00    +0.310 C 
BRANCH   5   6
ATOM      6  C   LIG    1        5.014  -6.665   3.971  0.00  0.00    -0.020 C 
ATOM      7  C   LIG    1        6.103  -7.721   4.170  0.00  0.00    -0.010 C 
ATOM      8  C   LIG    1        6.787  -7.822   5.540  0.00  0.00    +0.110 C 
ATOM      9  C   LIG    1        5.721  -8.205   6.538  0.00  0.00    -0.100 A 
ATOM     10  C   LIG    1        5.822  -8.414   7.906  0.00  0.00    +0.010 A 
ATOM     11  C   LIG    1        4.706  -8.761   8.642  0.00  0.00    +0.010 A 
ATOM     12  C   LIG    1        3.483  -8.902   8.014  0.00  0.00    +0.010 A 
ATOM     13  C   LIG    1        3.382  -8.695   6.652  0.00  0.00    +0.020 A 
ATOM     14  C   LIG    1        4.502  -8.346   5.911  0.00  0.00    -0.070 A 
ATOM     15  C   LIG    1        4.633  -8.072   4.433  0.00  0.00    +0.000 C 
ENDBRANCH   5   6
ENDBRANCH   3   5
BRANCH   2  16
ATOM     16  C   LIG    1        2.243  -3.532   1.404  0.00  0.00    +0.040 C 
BRANCH  16  17
ATOM     17  C   LIG    1        1.892  -3.142  -0.033  0.00  0.00    +0.370 C 
BRANCH  17  18
ATOM     18  N   LIG    1        0.924  -2.042  -0.018  0.00  0.00    -0.550 N 
ATOM     19  C   LIG    1       -0.419  -2.162  -0.006  0.00  0.00    +0.640 A 
ATOM     20  O   LIG    1       -0.977  -0.942   0.006  0.00  0.00    -0.230 OA
ATOM     21  C   LIG    1        0.002  -0.004   0.002  0.00  0.00    +0.050 A 
ATOM     22  C   LIG    1       -0.017   1.381   0.010  0.00  0.00    +0.080 A 
ATOM     23  C   LIG    1        1.172   2.087   0.002  0.00  0.00    -0.030 A 
ATOM     24  C   LIG    1        2.383   1.415  -0.012  0.00  0.00    +0.070 A 
ATOM     25  C   LIG    1        2.410   0.034  -0.020  0.00  0.00    +0.060 A 
ATOM     26 CL   LIG    1        1.147   3.823   0.012  0.00  0.00    -0.040 Cl
ATOM     27  O   LIG    1       -1.030  -3.214  -0.005  0.00  0.00    -0.470 OA
ATOM     28  C   LIG    1        1.223  -0.679  -0.013  0.00  0.00    +0.080 A 
ENDBRANCH  17  18
ENDBRANCH  16  17
ENDBRANCH   2  16
TORSDOF 5
