REMARK  Name = ZINCpk00000y6uP6.2
REMARK                            x       y       z     vdW  Elec       q    Type
REMARK                         _______ _______ _______ _____ _____    ______ ____
ROOT
ATOM      1  C   LIG    1       -0.565   1.086  -0.248  0.00  0.00    -0.010 C 
ATOM      2  C   LIG    1       -1.243   1.561   1.039  0.00  0.00    +0.020 C 
ATOM      3  C   LIG    1       -1.055   3.075   1.177  0.00  0.00    +0.020 C 
ATOM      4  C   LIG    1       -1.633   3.771  -0.057  0.00  0.00    +0.180 C 
ATOM      5  N   LIG    1       -0.950   3.282  -1.262  0.00  0.00    -0.520 NA
ATOM      6  C   LIG    1       -1.157   1.840  -1.441  0.00  0.00    +0.190 C 
ENDROOT
BRANCH   1   7
ATOM      7  C   LIG    1       -0.800  -0.416  -0.425  0.00  0.00    +0.330 C 
BRANCH   7  11
ATOM      8  C   LIG    1        2.645  -2.896   2.248  0.00  0.00    +0.190 C 
ATOM      9  C   LIG    1        1.372  -2.221   1.805  0.00  0.00    +0.220 A 
ATOM     10  N   LIG    1        1.182  -1.642   0.649  0.00  0.00    -0.320 NA
ATOM     11  N   LIG    1       -0.132  -1.145   0.655  0.00  0.00    -0.370 N 
ATOM     12  C   LIG    1       -0.656  -1.477   1.848  0.00  0.00    +0.280 A 
ATOM     13  C   LIG    1       -2.052  -1.161   2.320  0.00  0.00    +0.190 C 
ATOM     14  N   LIG    1        0.257  -2.122   2.528  0.00  0.00    -0.540 NA
ENDBRANCH   7  11
ENDBRANCH   1   7
BRANCH   5  15
ATOM     15  C   LIG    1       -1.381   4.028  -2.451  0.00  0.00    +0.220 C 
BRANCH  15  16
ATOM     16  C   LIG    1       -0.483   3.686  -3.612  0.00  0.00    +0.510 C 
ATOM     17  N   LIG    1       -0.765   4.156  -4.843  0.00  0.00    -0.720 N 
ATOM     18  H   LIG    1       -1.546   4.714  -4.982  0.00  0.00    +0.410 HD
ATOM     19  O   LIG    1        0.492   2.987  -3.438  0.00  0.00    -0.500 OA
BRANCH  17  20
ATOM     20  C   LIG    1        0.107   3.823  -5.972  0.00  0.00    +0.320 C 
ATOM     21  C   LIG    1        0.146   2.304  -6.156  0.00  0.00    +0.080 C 
BRANCH  20  22
ATOM     22  C   LIG    1       -0.433   4.477  -7.245  0.00  0.00    -0.050 C 
ATOM     23  C   LIG    1       -0.895   3.552  -8.373  0.00  0.00    +0.050 C 
ATOM     24  C   LIG    1        0.405   4.345  -8.518  0.00  0.00    +0.030 C 
ENDBRANCH  20  22
BRANCH  20  25
ATOM     25  C   LIG    1        1.467   4.319  -5.704  0.00  0.00    +0.200 C 
ATOM     26  N   LIG    1        2.516   4.703  -5.498  0.00  0.00    -0.400 NA
ENDBRANCH  20  25
ENDBRANCH  17  20
ENDBRANCH  15  16
ENDBRANCH   5  15
TORSDOF 7
