REMARK  Name = ZINCqH0000037z4w.1
REMARK                            x       y       z     vdW  Elec       q    Type
REMARK                         _______ _______ _______ _____ _____    ______ ____
ROOT
ATOM      1  C   LIG    1       -3.997   1.695   0.428  0.00  0.00    -0.110 A 
ATOM      2  C   LIG    1       -4.119   2.931  -0.208  0.00  0.00    +0.030 A 
ATOM      3  C   LIG    1       -3.012   3.740  -0.363  0.00  0.00    +0.040 A 
ATOM      4  C   LIG    1       -1.780   3.333   0.114  0.00  0.00    +0.020 A 
ATOM      5  C   LIG    1       -1.647   2.101   0.745  0.00  0.00    +0.140 A 
ATOM      6  C   LIG    1       -2.753   1.281   0.906  0.00  0.00    +0.100 A 
ENDROOT
BRANCH   1   9
ATOM      7  N   LIG    1       -6.383   1.228   0.134  0.00  0.00    -0.650 N 
ATOM      8  H   LIG    1       -6.455   2.047  -0.381  0.00  0.00    +0.410 HD
ATOM      9  C   LIG    1       -5.182   0.827   0.596  0.00  0.00    +0.560 C 
ATOM     10  O   LIG    1       -5.073  -0.250   1.151  0.00  0.00    -0.500 OA
BRANCH   7  17
ATOM     11  C   LIG    1       -6.560  -1.862  -0.215  0.00  0.00    +0.170 C 
ATOM     12  C   LIG    1       -7.647  -0.930   0.254  0.00  0.00    +0.100 A 
ATOM     13  N   LIG    1       -8.861  -1.280   0.596  0.00  0.00    -0.260 NA
ATOM     14  N   LIG    1       -9.563  -0.128   0.972  0.00  0.00    -0.450 N 
ATOM     15  H   LIG    1      -10.485  -0.093   1.270  0.00  0.00    +0.450 HD
ATOM     16  C   LIG    1       -8.723   0.932   0.848  0.00  0.00    -0.020 A 
ATOM     17  C   LIG    1       -7.531   0.460   0.400  0.00  0.00    +0.050 A 
BRANCH  16  18
ATOM     18  C   LIG    1       -9.054   2.371   1.150  0.00  0.00    +0.490 C 
ATOM     19  F   LIG    1       -7.897   3.038   1.567  0.00  0.00    -0.180 F 
ATOM     20  F   LIG    1      -10.014   2.425   2.166  0.00  0.00    -0.190 F 
ENDBRANCH  16  18
ENDBRANCH   7  17
ENDBRANCH   1   9
BRANCH   5  21
ATOM     21  N   LIG    1       -0.398   1.691   1.222  0.00  0.00    -0.670 N 
ATOM     22  H   LIG    1        0.216   2.343   1.595  0.00  0.00    +0.420 HD
ATOM     23  C   LIG    1       -0.049   0.391   1.168  0.00  0.00    +0.610 C 
ATOM     24  O   LIG    1       -0.851  -0.439   0.778  0.00  0.00    -0.490 OA
BRANCH  23  25
ATOM     25  C   LIG    1        1.295  -0.026   1.579  0.00  0.00    -0.090 A 
ATOM     26  C   LIG    1        1.774  -1.305   1.579  0.00  0.00    +0.050 A 
ATOM     27  C   LIG    1        3.098  -1.240   2.042  0.00  0.00    -0.070 A 
ATOM     28  C   LIG    1        3.363   0.058   2.308  0.00  0.00    +0.210 A 
ATOM     29  O   LIG    1        2.274   0.787   2.029  0.00  0.00    -0.170 OA
ENDBRANCH  23  25
ENDBRANCH   5  21
TORSDOF 5
