REMARK  Name = ZINCqH0000037z4w.0
REMARK                            x       y       z     vdW  Elec       q    Type
REMARK                         _______ _______ _______ _____ _____    ______ ____
ROOT
ATOM      1  C   LIG    1       -1.166   2.087   0.417  0.00  0.00    -0.110 A 
ATOM      2  C   LIG    1       -1.136   3.300   1.108  0.00  0.00    +0.030 A 
ATOM      3  C   LIG    1       -2.312   3.972   1.375  0.00  0.00    +0.040 A 
ATOM      4  C   LIG    1       -3.522   3.443   0.969  0.00  0.00    +0.020 A 
ATOM      5  C   LIG    1       -3.564   2.233   0.285  0.00  0.00    +0.140 A 
ATOM      6  C   LIG    1       -2.388   1.553   0.008  0.00  0.00    +0.090 A 
ENDROOT
BRANCH   1   9
ATOM      7  N   LIG    1        1.272   1.889   0.516  0.00  0.00    -0.640 N 
ATOM      8  H   LIG    1        1.304   2.772   0.917  0.00  0.00    +0.410 HD
ATOM      9  C   LIG    1        0.092   1.369   0.125  0.00  0.00    +0.560 C 
ATOM     10  O   LIG    1        0.063   0.310  -0.473  0.00  0.00    -0.510 OA
BRANCH   7  13
ATOM     11  C   LIG    1        1.478  -1.173   0.748  0.00  0.00    +0.170 C 
ATOM     12  C   LIG    1        2.583  -0.196   0.439  0.00  0.00    +0.100 A 
ATOM     13  C   LIG    1        2.458   1.153   0.343  0.00  0.00    +0.020 A 
ATOM     14  C   LIG    1        3.724   1.681   0.047  0.00  0.00    -0.010 A 
ATOM     15  N   LIG    1        4.574   0.691  -0.037  0.00  0.00    -0.240 NA
ATOM     16  N   LIG    1        3.885  -0.505   0.202  0.00  0.00    -0.450 N 
ATOM     17  H   LIG    1        4.269  -1.395   0.202  0.00  0.00    +0.450 HD
BRANCH  14  18
ATOM     18  C   LIG    1        4.048   3.141  -0.141  0.00  0.00    +0.480 C 
ATOM     19  F   LIG    1        3.846   3.823   1.063  0.00  0.00    -0.190 F 
ATOM     20  F   LIG    1        3.215   3.680  -1.128  0.00  0.00    -0.190 F 
ENDBRANCH  14  18
ENDBRANCH   7  13
ENDBRANCH   1   9
BRANCH   5  21
ATOM     21  N   LIG    1       -4.792   1.702  -0.122  0.00  0.00    -0.670 N 
ATOM     22  H   LIG    1       -5.511   2.294  -0.393  0.00  0.00    +0.420 HD
ATOM     23  C   LIG    1       -4.976   0.367  -0.138  0.00  0.00    +0.610 C 
ATOM     24  O   LIG    1       -4.109  -0.372   0.289  0.00  0.00    -0.490 OA
BRANCH  23  25
ATOM     25  C   LIG    1       -6.222  -0.195  -0.671  0.00  0.00    -0.090 A 
ATOM     26  C   LIG    1       -6.534  -1.522  -0.751  0.00  0.00    +0.050 A 
ATOM     27  C   LIG    1       -7.816  -1.601  -1.318  0.00  0.00    -0.070 A 
ATOM     28  C   LIG    1       -8.221  -0.336  -1.564  0.00  0.00    +0.210 A 
ATOM     29  O   LIG    1       -7.258   0.509  -1.173  0.00  0.00    -0.170 OA
ENDBRANCH  23  25
ENDBRANCH   5  21
TORSDOF 5
