REMARK  Name = ZINCvU0000000B5E.0
REMARK                            x       y       z     vdW  Elec       q    Type
REMARK                         _______ _______ _______ _____ _____    ______ ____
ROOT
ATOM      1  C   LIG    1        2.918  -0.534   0.782  0.00  0.00    +0.190 C 
ATOM      2  C   LIG    1        1.492  -0.050   0.818  0.00  0.00    +0.410 A 
ATOM      3  N   LIG    1        1.257   1.206   1.056  0.00  0.00    -0.480 NA
ATOM      4  C   LIG    1       -0.001   1.698   1.100  0.00  0.00    +0.070 A 
ATOM      5  C   LIG    1       -1.077   0.845   0.888  0.00  0.00    -0.220 A 
ATOM      6  C   LIG    1       -2.354   1.540   0.966  0.00  0.00    +0.010 A 
ATOM      7  C   LIG    1       -2.257   2.842   1.232  0.00  0.00    -0.040 A 
ATOM      8  C   LIG    1       -0.797  -0.531   0.629  0.00  0.00    +0.560 A 
ATOM      9  O   LIG    1       -1.703  -1.324   0.435  0.00  0.00    -0.490 OA
ATOM     10  S   LIG    1       -0.581   3.331   1.397  0.00  0.00    +0.230 S 
ATOM     11  N   LIG    1        0.487  -0.938   0.602  0.00  0.00    -0.330 N 
ENDROOT
BRANCH   6  12
ATOM     12  C   LIG    1       -3.655   0.855   0.770  0.00  0.00    -0.040 A 
ATOM     13  C   LIG    1       -3.857   0.045  -0.347  0.00  0.00    +0.060 A 
ATOM     14  C   LIG    1       -5.068  -0.594  -0.521  0.00  0.00    +0.000 A 
ATOM     15  C   LIG    1       -6.083  -0.423   0.403  0.00  0.00    +0.010 A 
ATOM     16  C   LIG    1       -5.889   0.384   1.510  0.00  0.00    -0.010 A 
ATOM     17  C   LIG    1       -4.681   1.024   1.698  0.00  0.00    +0.020 A 
ENDBRANCH   6  12
BRANCH  11  18
ATOM     18  N   LIG    1        0.788  -2.282   0.350  0.00  0.00    -0.520 N 
ATOM     19  H   LIG    1        1.072  -2.860   1.075  0.00  0.00    +0.430 HD
ATOM     20  C   LIG    1        0.684  -2.773  -0.901  0.00  0.00    +0.500 C 
ATOM     21  O   LIG    1        0.329  -2.051  -1.808  0.00  0.00    -0.480 OA
BRANCH  20  22
ATOM     22  C   LIG    1        1.007  -4.220  -1.172  0.00  0.00    +0.120 C 
ATOM     23  C   LIG    1        0.080  -5.114  -0.346  0.00  0.00    +0.120 C 
ATOM     24  C   LIG    1        2.461  -4.498  -0.786  0.00  0.00    +0.060 C 
BRANCH  22  25
ATOM     25  O   LIG    1        0.822  -4.497  -2.562  0.00  0.00    -0.280 OA
BRANCH  25  26
ATOM     26  C   LIG    1        1.585  -3.793  -3.439  0.00  0.00    +0.140 A 
ATOM     27  C   LIG    1        2.410  -2.776  -2.981  0.00  0.00    -0.050 A 
ATOM     28  C   LIG    1        3.188  -2.065  -3.873  0.00  0.00    +0.060 A 
ATOM     29  C   LIG    1        3.139  -2.360  -5.224  0.00  0.00    -0.070 A 
ATOM     30  C   LIG    1        2.313  -3.370  -5.684  0.00  0.00    +0.070 A 
ATOM     31 CL   LIG    1        4.114  -1.460  -6.344  0.00  0.00    -0.070 Cl
ATOM     32  C   LIG    1        1.536  -4.087  -4.794  0.00  0.00    +0.010 A 
ENDBRANCH  25  26
ENDBRANCH  22  25
ENDBRANCH  20  22
ENDBRANCH  11  18
TORSDOF 5
