REMARK  Name = ZINCue00000005Pm.0
REMARK                            x       y       z     vdW  Elec       q    Type
REMARK                         _______ _______ _______ _____ _____    ______ ____
ROOT
ATOM      1  S   LIG    1        5.203   1.638   0.259  0.00  0.00    +2.600 S 
ATOM      2  O   LIG    1        5.346   0.830  -0.901  0.00  0.00    -1.020 OA
ATOM      3  O   LIG    1        5.330   1.130   1.581  0.00  0.00    -1.020 OA
ENDROOT
BRANCH   1   4
ATOM      4  C   LIG    1        6.383   2.937   0.110  0.00  0.00    -0.560 A 
ATOM      5  C   LIG    1        6.858   3.299  -1.137  0.00  0.00    +0.110 A 
ATOM      6  C   LIG    1        7.780   4.322  -1.255  0.00  0.00    +0.090 A 
ATOM      7  C   LIG    1        8.236   4.976  -0.125  0.00  0.00    -0.650 A 
ATOM      8  C   LIG    1        7.764   4.610   1.122  0.00  0.00    +0.090 A 
ATOM      9  C   LIG    1        6.838   3.591   1.240  0.00  0.00    +0.110 A 
BRANCH   7  10
ATOM     10  S   LIG    1        9.416   6.275  -0.275  0.00  0.00    +2.690 S 
ATOM     11  O   LIG    1        9.273   7.083   0.885  0.00  0.00    -0.950 OA
ATOM     12  O   LIG    1        9.289   6.783  -1.596  0.00  0.00    -0.950 OA
BRANCH  10  13
ATOM     13  N   LIG    1       10.919   5.585  -0.181  0.00  0.00    -1.000 NA
ATOM     14  C   LIG    1       11.600   5.427   1.114  0.00  0.00    +0.280 C 
ATOM     15  C   LIG    1       12.072   3.969   1.232  0.00  0.00    +0.210 C 
ATOM     16  O   LIG    1       12.830   3.626   0.070  0.00  0.00    -0.380 OA
ATOM     17  C   LIG    1       12.088   3.680  -1.151  0.00  0.00    +0.210 C 
ATOM     18  C   LIG    1       11.615   5.118  -1.390  0.00  0.00    +0.270 C 
ENDBRANCH  10  13
ENDBRANCH   7  10
ENDBRANCH   1   4
BRANCH   1  19
ATOM     19  N   LIG    1        3.700   2.327   0.166  0.00  0.00    -1.090 NA
BRANCH  19  25
ATOM     20  C   LIG    1        1.288   2.104   0.178  0.00  0.00    +0.080 A 
ATOM     21  C   LIG    1        0.159   1.306   0.268  0.00  0.00    +0.020 A 
ATOM     22  C   LIG    1        0.290  -0.061   0.434  0.00  0.00    -0.090 A 
ATOM     23  C   LIG    1        1.546  -0.635   0.511  0.00  0.00    +0.030 A 
ATOM     24  C   LIG    1        2.678   0.155   0.422  0.00  0.00    -0.150 A 
ATOM     25  C   LIG    1        2.555   1.526   0.255  0.00  0.00    +0.270 A 
BRANCH  20  26
ATOM     26  N   LIG    1        1.158   3.488   0.009  0.00  0.00    -1.020 N 
ATOM     27  H   LIG    1        1.796   3.973  -0.537  0.00  0.00    +0.430 HD
BRANCH  26  29
ATOM     28  C   LIG    1        0.159   3.998   2.514  0.00  0.00    -0.290 C 
ATOM     29  S   LIG    1       -0.087   4.298   0.742  0.00  0.00    +2.610 S 
ATOM     30  O   LIG    1       -1.256   3.634   0.281  0.00  0.00    -0.960 OA
ATOM     31  O   LIG    1        0.151   5.663   0.430  0.00  0.00    -0.970 OA
ENDBRANCH  26  29
ENDBRANCH  20  26
ENDBRANCH  19  25
ENDBRANCH   1  19
TORSDOF 7
