REMARK  Name = ZINCkj000005hTPb.2
REMARK                            x       y       z     vdW  Elec       q    Type
REMARK                         _______ _______ _______ _____ _____    ______ ____
ROOT
ATOM      1  N   LIG    1       -1.216   3.955   0.175  0.00  0.00    -0.370 N 
ATOM      2  C   LIG    1       -0.337   3.603  -0.946  0.00  0.00    +0.260 C 
ATOM      3  C   LIG    1       -0.640   2.176  -1.408  0.00  0.00    +0.060 C 
ATOM      4  C   LIG    1       -0.403   1.207  -0.246  0.00  0.00    +0.060 C 
ATOM      5  C   LIG    1       -1.270   1.628   0.944  0.00  0.00    +0.080 C 
ATOM      6  C   LIG    1       -0.944   3.076   1.318  0.00  0.00    +0.170 C 
ATOM      7  H   LIG    1       -2.179   3.848  -0.108  0.00  0.00    +0.430 HD
ENDROOT
BRANCH   6   8
ATOM      8  C   LIG    1       -1.797   3.495   2.488  0.00  0.00    +0.510 C 
ATOM      9  O   LIG    1       -2.870   4.026   2.296  0.00  0.00    -0.520 OA
ATOM     10  N   LIG    1       -1.366   3.281   3.747  0.00  0.00    -0.820 N 
ATOM     11  H   LIG    1       -1.915   3.551   4.500  0.00  0.00    +0.420 HD
ATOM     12  H   LIG    1       -0.507   2.857   3.900  0.00  0.00    +0.410 HD
ENDBRANCH   6   8
BRANCH   1  13
ATOM     13  C   LIG    1       -0.975   5.351   0.564  0.00  0.00    +0.310 C 
BRANCH  13  17
ATOM     14  C   LIG    1       -2.183   7.947  -2.612  0.00  0.00    -0.090 A 
ATOM     15  C   LIG    1       -3.095   7.582  -1.620  0.00  0.00    +0.100 A 
ATOM     16  C   LIG    1       -2.699   6.744  -0.599  0.00  0.00    +0.050 A 
ATOM     17  C   LIG    1       -1.401   6.266  -0.556  0.00  0.00    -0.130 A 
ATOM     18  C   LIG    1       -0.491   6.628  -1.533  0.00  0.00    +0.030 A 
ATOM     19  C   LIG    1       -0.875   7.461  -2.563  0.00  0.00    +0.090 A 
BRANCH  14  20
ATOM     20  C   LIG    1       -2.600   8.844  -3.710  0.00  0.00    +0.500 C 
ATOM     21  O   LIG    1       -3.739   9.264  -3.751  0.00  0.00    -0.490 OA
BRANCH  20  23
ATOM     22  C   LIG    1       -2.198  10.078  -5.713  0.00  0.00    +0.290 C 
ATOM     23  O   LIG    1       -1.718   9.194  -4.665  0.00  0.00    -0.350 OA
ENDBRANCH  20  23
ENDBRANCH  14  20
ENDBRANCH  13  17
ENDBRANCH   1  13
TORSDOF 5
