REMARK  Name = ZINCkj000005hTPb.1
REMARK                            x       y       z     vdW  Elec       q    Type
REMARK                         _______ _______ _______ _____ _____    ______ ____
ROOT
ATOM      1  N   LIG    1       -0.681   1.572  -1.157  0.00  0.00    -0.360 N 
ATOM      2  C   LIG    1       -2.021   0.972  -1.155  0.00  0.00    +0.250 C 
ATOM      3  C   LIG    1       -2.837   1.534  -2.321  0.00  0.00    +0.060 C 
ATOM      4  C   LIG    1       -2.130   1.203  -3.638  0.00  0.00    +0.040 C 
ATOM      5  C   LIG    1       -0.708   1.771  -3.599  0.00  0.00    +0.090 C 
ATOM      6  C   LIG    1        0.030   1.200  -2.386  0.00  0.00    +0.170 C 
ATOM      7  H   LIG    1       -0.765   2.577  -1.109  0.00  0.00    +0.420 HD
ENDROOT
BRANCH   6   8
ATOM      8  C   LIG    1        0.090  -0.302  -2.496  0.00  0.00    +0.520 C 
ATOM      9  O   LIG    1       -0.363  -0.993  -1.608  0.00  0.00    -0.530 OA
ATOM     10  N   LIG    1        0.646  -0.876  -3.580  0.00  0.00    -0.820 N 
ATOM     11  H   LIG    1        0.685  -1.843  -3.651  0.00  0.00    +0.420 HD
ATOM     12  H   LIG    1        1.009  -0.323  -4.290  0.00  0.00    +0.410 HD
ENDBRANCH   6   8
BRANCH   1  13
ATOM     13  C   LIG    1        0.072   1.089   0.008  0.00  0.00    +0.320 C 
BRANCH  13  17
ATOM     14  C   LIG    1       -1.808   2.469   3.593  0.00  0.00    -0.090 A 
ATOM     15  C   LIG    1       -2.180   1.245   3.032  0.00  0.00    +0.100 A 
ATOM     16  C   LIG    1       -1.569   0.806   1.875  0.00  0.00    +0.050 A 
ATOM     17  C   LIG    1       -0.590   1.575   1.272  0.00  0.00    -0.120 A 
ATOM     18  C   LIG    1       -0.212   2.786   1.825  0.00  0.00    +0.030 A 
ATOM     19  C   LIG    1       -0.819   3.239   2.979  0.00  0.00    +0.090 A 
BRANCH  14  20
ATOM     20  C   LIG    1       -2.457   2.945   4.831  0.00  0.00    +0.500 C 
ATOM     21  O   LIG    1       -3.317   2.272   5.364  0.00  0.00    -0.490 OA
BRANCH  20  23
ATOM     22  C   LIG    1       -2.776   4.530   6.588  0.00  0.00    +0.290 C 
ATOM     23  O   LIG    1       -2.096   4.125   5.370  0.00  0.00    -0.350 OA
ENDBRANCH  20  23
ENDBRANCH  14  20
ENDBRANCH  13  17
ENDBRANCH   1  13
TORSDOF 5
