REMARK  Name = ZINCvU0000000E4I.0
REMARK                            x       y       z     vdW  Elec       q    Type
REMARK                         _______ _______ _______ _____ _____    ______ ____
ROOT
ATOM      1  N   LIG    1       -6.164  -5.409  -1.955  0.00  0.00    -0.740 N 
ATOM      2  H   LIG    1       -5.246  -5.713  -1.883  0.00  0.00    +0.400 HD
ENDROOT
BRANCH   1   6
ATOM      3  C   LIG    1       -9.248  -8.072  -2.592  0.00  0.00    +0.250 A 
ATOM      4  C   LIG    1       -7.955  -8.571  -2.499  0.00  0.00    +0.030 A 
ATOM      5  C   LIG    1       -6.907  -7.693  -2.285  0.00  0.00    +0.020 A 
ATOM      6  C   LIG    1       -7.192  -6.334  -2.171  0.00  0.00    +0.140 A 
ATOM      7  C   LIG    1       -8.510  -5.910  -2.270  0.00  0.00    +0.220 A 
ATOM      8  N   LIG    1       -9.483  -6.776  -2.479  0.00  0.00    -0.490 NA
BRANCH   3   9
ATOM      9  O   LIG    1      -10.283  -8.926  -2.801  0.00  0.00    -0.250 OA
BRANCH   9  15
ATOM     10  F   LIG    1      -14.428  -8.269  -0.584  0.00  0.00    -0.120 F 
ATOM     11  C   LIG    1      -13.637  -8.086  -1.664  0.00  0.00    +0.150 A 
ATOM     12  C   LIG    1      -14.110  -7.380  -2.757  0.00  0.00    -0.040 A 
ATOM     13  C   LIG    1      -13.301  -7.191  -3.865  0.00  0.00    +0.150 A 
ATOM     14  C   LIG    1      -12.018  -7.709  -3.881  0.00  0.00    -0.010 A 
ATOM     15  C   LIG    1      -11.542  -8.417  -2.786  0.00  0.00    +0.160 A 
ATOM     16  F   LIG    1      -13.764  -6.502  -4.930  0.00  0.00    -0.130 F 
ATOM     17  C   LIG    1      -12.357  -8.610  -1.680  0.00  0.00    -0.020 A 
ENDBRANCH   9  15
ENDBRANCH   3   9
ENDBRANCH   1   6
BRANCH   1  18
ATOM     18  C   LIG    1       -6.475  -3.983  -1.836  0.00  0.00    +0.310 C 
BRANCH  18  19
ATOM     19  C   LIG    1       -5.203  -3.208  -1.608  0.00  0.00    -0.150 A 
ATOM     20  C   LIG    1       -4.485  -2.726  -2.687  0.00  0.00    +0.070 A 
ATOM     21  C   LIG    1       -3.318  -2.016  -2.481  0.00  0.00    -0.020 A 
ATOM     22  C   LIG    1       -2.866  -1.787  -1.189  0.00  0.00    +0.140 A 
ATOM     23  C   LIG    1       -3.585  -2.277  -0.108  0.00  0.00    -0.080 A 
ATOM     24  C   LIG    1       -4.754  -2.982  -0.320  0.00  0.00    +0.070 A 
BRANCH  22  25
ATOM     25  O   LIG    1       -1.719  -1.089  -0.983  0.00  0.00    -0.310 OA
BRANCH  25  26
ATOM     26  C   LIG    1       -1.314  -0.891   0.373  0.00  0.00    +0.260 C 
BRANCH  26  27
ATOM     27  C   LIG    1       -0.030  -0.103   0.404  0.00  0.00    -0.050 A 
ATOM     28  C   LIG    1       -0.050   1.283   0.457  0.00  0.00    -0.010 A 
ATOM     29  C   LIG    1        1.148   1.972   0.485  0.00  0.00    +0.260 A 
ATOM     30  N   LIG    1        2.298   1.328   0.461  0.00  0.00    -0.480 NA
ATOM     31  C   LIG    1        2.354   0.011   0.411  0.00  0.00    +0.260 A 
ATOM     32  C   LIG    1        1.198  -0.745   0.381  0.00  0.00    -0.010 A 
ENDBRANCH  26  27
ENDBRANCH  25  26
ENDBRANCH  22  25
ENDBRANCH  18  19
ENDBRANCH   1  18
TORSDOF 8
