REMARK  Name = ZINCrD000000Aeys.0
REMARK                            x       y       z     vdW  Elec       q    Type
REMARK                         _______ _______ _______ _____ _____    ______ ____
ROOT
ATOM      1  O   LIG    1       -0.971   2.236  -1.470  0.00  0.00    -0.510 OA
ATOM      2  C   LIG    1        0.065   1.604  -1.475  0.00  0.00    +0.520 C 
ATOM      3  N   LIG    1        0.651   1.280  -2.644  0.00  0.00    -0.670 N 
ATOM      4  H   LIG    1        1.513   0.835  -2.648  0.00  0.00    +0.410 HD
ENDROOT
BRANCH   3   5
ATOM      5  C   LIG    1        0.016   1.585  -3.855  0.00  0.00    +0.150 A 
ATOM      6  C   LIG    1        0.772   1.898  -4.976  0.00  0.00    +0.000 A 
ATOM      7  C   LIG    1        0.149   2.199  -6.173  0.00  0.00    +0.050 A 
ATOM      8  C   LIG    1       -1.234   2.189  -6.251  0.00  0.00    +0.050 A 
ATOM      9  O   LIG    1       -1.858   2.487  -7.428  0.00  0.00    -0.320 OA
ATOM     10  C   LIG    1       -2.542   1.406  -8.063  0.00  0.00    +0.230 C 
ATOM     11  C   LIG    1       -3.942   1.242  -7.491  0.00  0.00    -0.010 C 
ATOM     12  C   LIG    1       -3.924   0.837  -6.025  0.00  0.00    +0.230 C 
ATOM     13  O   LIG    1       -3.355   1.871  -5.221  0.00  0.00    -0.320 OA
ATOM     14  C   LIG    1       -1.993   1.877  -5.131  0.00  0.00    +0.090 A 
ATOM     15  C   LIG    1       -1.371   1.569  -3.934  0.00  0.00    +0.030 A 
ENDBRANCH   3   5
BRANCH   2  16
ATOM     16  C   LIG    1        0.695   1.181  -0.173  0.00  0.00    +0.050 C 
BRANCH  16  17
ATOM     17  C   LIG    1       -0.165   1.672   0.993  0.00  0.00    +0.320 C 
BRANCH  17  18
ATOM     18  N   LIG    1        0.448   1.261   2.259  0.00  0.00    -0.540 N 
ATOM     19  C   LIG    1        1.402   2.046   2.753  0.00  0.00    +0.520 C 
ATOM     20  C   LIG    1        2.111   1.774   4.051  0.00  0.00    +0.150 C 
ATOM     21  S   LIG    1        0.944   1.012   5.217  0.00  0.00    -0.080 S 
ATOM     22  C   LIG    1        0.138  -0.179   4.196  0.00  0.00    -0.130 A 
ATOM     23  C   LIG    1       -0.336  -1.360   4.744  0.00  0.00    +0.080 A 
ATOM     24  C   LIG    1       -0.964  -2.291   3.937  0.00  0.00    +0.010 A 
ATOM     25  C   LIG    1       -1.118  -2.041   2.586  0.00  0.00    +0.050 A 
ATOM     26  C   LIG    1       -0.649  -0.865   2.034  0.00  0.00    -0.010 A 
ATOM     27  O   LIG    1        1.712   3.037   2.126  0.00  0.00    -0.510 OA
ATOM     28  C   LIG    1       -0.016   0.080   2.833  0.00  0.00    +0.160 A 
ENDBRANCH  17  18
ENDBRANCH  16  17
ENDBRANCH   2  16
TORSDOF 4
