REMARK  Name = ZINC670000003VNu.0
REMARK                            x       y       z     vdW  Elec       q    Type
REMARK                         _______ _______ _______ _____ _____    ______ ____
ROOT
ATOM      1  C   LIG    1       -1.236   2.219   0.020  0.00  0.00    +0.170 C 
ATOM      2  C   LIG    1       -0.016   1.333   0.009  0.00  0.00    -0.020 A 
ATOM      3  C   LIG    1        1.276   1.736  -0.001  0.00  0.00    +0.140 A 
ATOM      4  N   LIG    1        2.022   0.607  -0.014  0.00  0.00    -0.390 N 
ATOM      5  H   LIG    1        2.991   0.566  -0.024  0.00  0.00    +0.450 HD
ATOM      6  N   LIG    1        1.225  -0.404  -0.012  0.00  0.00    -0.080 NA
ATOM      7  N   LIG    1        0.002  -0.004   0.002  0.00  0.00    -0.270 NA
ENDROOT
TORSDOF 0
