REMARK  Name = ZINC670000003VNu.1
REMARK                            x       y       z     vdW  Elec       q    Type
REMARK                         _______ _______ _______ _____ _____    ______ ____
ROOT
ATOM      1  C   LIG    1       -2.582   1.470   0.021  0.00  0.00    +0.170 C 
ATOM      2  C   LIG    1       -1.139   1.902   0.017  0.00  0.00    +0.000 A 
ATOM      3  N   LIG    1       -0.681   3.134   0.025  0.00  0.00    -0.290 NA
ATOM      4  N   LIG    1        0.604   3.097   0.013  0.00  0.00    -0.250 N 
ATOM      5  H   LIG    1        1.178   3.879   0.012  0.00  0.00    +0.470 HD
ATOM      6  N   LIG    1        1.025   1.882   0.002  0.00  0.00    -0.280 NA
ATOM      7  C   LIG    1       -0.013   1.076   0.008  0.00  0.00    +0.180 A 
ENDROOT
TORSDOF 0
