REMARK  Name = ZINCpk00000ebgx2.0
REMARK                            x       y       z     vdW  Elec       q    Type
REMARK                         _______ _______ _______ _____ _____    ______ ____
ROOT
ATOM      1  C   LIG    1        8.040   4.157  -3.288  0.00  0.00    +0.420 A 
ATOM      2  N   LIG    1        6.747   4.184  -3.467  0.00  0.00    -0.480 NA
ATOM      3  C   LIG    1        5.921   3.355  -2.797  0.00  0.00    +0.120 A 
ATOM      4  C   LIG    1        4.537   3.389  -2.992  0.00  0.00    +0.090 A 
ATOM      5  C   LIG    1        3.730   2.535  -2.295  0.00  0.00    +0.050 A 
ATOM      6  C   LIG    1        4.266   1.625  -1.387  0.00  0.00    +0.120 A 
ATOM      7  C   LIG    1        5.633   1.573  -1.170  0.00  0.00    +0.010 A 
ATOM      8  C   LIG    1        6.469   2.433  -1.876  0.00  0.00    -0.150 A 
ATOM      9  C   LIG    1        7.929   2.420  -1.691  0.00  0.00    +0.550 A 
ATOM     10  O   LIG    1        8.461   1.649  -0.913  0.00  0.00    -0.500 OA
ATOM     11  N   LIG    1        8.657   3.298  -2.419  0.00  0.00    -0.650 N 
ATOM     12  H   LIG    1        9.623   3.319  -2.325  0.00  0.00    +0.420 HD
ENDROOT
BRANCH   1  17
ATOM     13  C   LIG    1       11.229   7.803  -6.291  0.00  0.00    +0.320 C 
ATOM     14  N   LIG    1       10.417   6.862  -5.515  0.00  0.00    -0.490 N 
ATOM     15  C   LIG    1        9.067   6.859  -5.672  0.00  0.00    +0.310 A 
ATOM     16  C   LIG    1        8.288   6.005  -4.973  0.00  0.00    -0.020 A 
ATOM     17  C   LIG    1        8.878   5.099  -4.063  0.00  0.00    +0.050 A 
ATOM     18  C   LIG    1       10.255   5.112  -3.904  0.00  0.00    -0.060 A 
ATOM     19  C   LIG    1       11.020   6.017  -4.660  0.00  0.00    +0.520 A 
ATOM     20  O   LIG    1       12.235   6.039  -4.537  0.00  0.00    -0.540 OA
ENDBRANCH   1  17
BRANCH   6  21
ATOM     21  O   LIG    1        3.442   0.786  -0.706  0.00  0.00    -0.290 OA
BRANCH  21  22
ATOM     22  C   LIG    1        4.040  -0.038   0.296  0.00  0.00    +0.150 C 
ATOM     23  C   LIG    1        2.994  -0.472   1.351  0.00  0.00    +0.030 C 
ATOM     24  C   LIG    1        3.330  -1.949   1.632  0.00  0.00    +0.210 C 
ATOM     25  O   LIG    1        4.486  -2.281   0.845  0.00  0.00    -0.370 OA
ATOM     26  C   LIG    1        4.485  -1.399  -0.298  0.00  0.00    +0.210 C 
ENDBRANCH  21  22
ENDBRANCH   6  21
TORSDOF 3
