REMARK  Name = ZINCrD000000BvU3.0
REMARK                            x       y       z     vdW  Elec       q    Type
REMARK                         _______ _______ _______ _____ _____    ______ ____
ROOT
ATOM      1  O   LIG    1        1.495  -5.218   0.669  0.00  0.00    -0.490 OA
ATOM      2  C   LIG    1        1.625  -4.332   1.490  0.00  0.00    +0.560 C 
ATOM      3  N   LIG    1        1.932  -3.082   1.090  0.00  0.00    -0.710 N 
ATOM      4  H   LIG    1        2.036  -2.375   1.746  0.00  0.00    +0.400 HD
ENDROOT
BRANCH   2   5
ATOM      5  C   LIG    1        1.446  -4.625   2.926  0.00  0.00    -0.100 A 
ATOM      6  C   LIG    1        2.441  -4.278   3.842  0.00  0.00    +0.090 A 
ATOM      7  C   LIG    1        2.267  -4.554   5.183  0.00  0.00    -0.040 A 
ATOM      8  C   LIG    1        1.110  -5.174   5.625  0.00  0.00    +0.100 A 
ATOM      9  C   LIG    1        0.118  -5.522   4.728  0.00  0.00    +0.040 A 
ATOM     10 CL   LIG    1        3.505  -4.123   6.322  0.00  0.00    -0.040 Cl
ATOM     11  C   LIG    1        0.274  -5.247   3.378  0.00  0.00    +0.180 A 
BRANCH  11  12
ATOM     12  N   LIG    1       -0.732  -5.593   2.470  0.00  0.00    -0.340 N 
ATOM     13  C   LIG    1       -1.856  -6.301   2.721  0.00  0.00    +0.470 A 
ATOM     14  N   LIG    1       -2.516  -6.392   1.596  0.00  0.00    -0.330 NA
ATOM     15  N   LIG    1       -1.883  -5.797   0.650  0.00  0.00    -0.030 NA
ATOM     16  N   LIG    1       -0.789  -5.285   1.100  0.00  0.00    -0.030 NA
ENDBRANCH  11  12
ENDBRANCH   2   5
BRANCH   3  17
ATOM     17  C   LIG    1        2.110  -2.792  -0.335  0.00  0.00    +0.380 C 
BRANCH  17  18
ATOM     18  C   LIG    1        2.446  -1.334  -0.512  0.00  0.00    +0.050 A 
ATOM     19  C   LIG    1        3.708  -0.902  -0.606  0.00  0.00    -0.050 A 
ATOM     20  S   LIG    1        3.678   0.849  -0.803  0.00  0.00    +0.110 S 
ATOM     21  C   LIG    1        1.918   0.822  -0.737  0.00  0.00    +0.120 A 
ATOM     22  N   LIG    1        1.517  -0.408  -0.584  0.00  0.00    -0.450 NA
BRANCH  21  23
ATOM     23  C   LIG    1        1.037   2.004  -0.845  0.00  0.00    -0.030 A 
ATOM     24  C   LIG    1       -0.349   1.852  -0.790  0.00  0.00    +0.070 A 
ATOM     25  C   LIG    1       -1.166   2.960  -0.887  0.00  0.00    +0.010 A 
ATOM     26  C   LIG    1       -0.614   4.218  -1.048  0.00  0.00    +0.030 A 
ATOM     27  C   LIG    1        0.759   4.375  -1.109  0.00  0.00    +0.010 A 
ATOM     28  C   LIG    1        1.587   3.276  -1.008  0.00  0.00    +0.020 A 
ENDBRANCH  21  23
ENDBRANCH  17  18
ENDBRANCH   3  17
TORSDOF 5
