REMARK  Name = ZINCrg000000sebZ.0
REMARK                            x       y       z     vdW  Elec       q    Type
REMARK                         _______ _______ _______ _____ _____    ______ ____
ROOT
ATOM      1  N   LIG    1       -0.620   2.375  -3.516  0.00  0.00    -0.650 N 
ATOM      2  H   LIG    1       -1.589   2.398  -3.535  0.00  0.00    +0.430 HD
ATOM      3  C   LIG    1        0.022   1.931  -2.417  0.00  0.00    +0.580 C 
ATOM      4  O   LIG    1        1.232   1.806  -2.428  0.00  0.00    -0.480 OA
ENDROOT
BRANCH   1  11
ATOM      5  C   LIG    1       -1.876   2.280  -6.067  0.00  0.00    +0.120 C 
ATOM      6  C   LIG    1       -0.463   2.773  -5.892  0.00  0.00    -0.060 A 
ATOM      7  C   LIG    1        0.263   3.195  -6.989  0.00  0.00    +0.060 A 
ATOM      8  C   LIG    1        1.560   3.647  -6.829  0.00  0.00    +0.100 A 
ATOM      9  C   LIG    1        2.135   3.678  -5.572  0.00  0.00    -0.030 A 
ATOM     10  C   LIG    1        1.413   3.262  -4.470  0.00  0.00    +0.110 A 
ATOM     11  C   LIG    1        0.112   2.802  -4.628  0.00  0.00    +0.150 A 
BRANCH   9  12
ATOM     12  N   LIG    1        3.523   4.163  -5.406  0.00  0.00    +0.030 N 
ATOM     13  O   LIG    1        4.031   4.190  -4.299  0.00  0.00    -0.150 OA
ATOM     14  O   LIG    1        4.159   4.535  -6.376  0.00  0.00    -0.160 OA
ENDBRANCH   9  12
ENDBRANCH   1  11
BRANCH   3  15
ATOM     15  C   LIG    1       -0.739   1.598  -1.208  0.00  0.00    +0.090 C 
ATOM     16  N   LIG    1       -2.029   1.733  -1.206  0.00  0.00    -0.200 NA
ATOM     17  N   LIG    1       -2.787   1.427  -0.071  0.00  0.00    -0.440 N 
ATOM     18  C   LIG    1       -2.202   1.358   1.141  0.00  0.00    +0.500 C 
ATOM     19  C   LIG    1       -0.721   1.606   1.272  0.00  0.00    +0.100 C 
ATOM     20  O   LIG    1       -2.865   1.096   2.122  0.00  0.00    -0.500 OA
ATOM     21  C   LIG    1       -0.012   1.103   0.014  0.00  0.00    +0.120 C 
BRANCH  17  22
ATOM     22  C   LIG    1       -4.225   1.180  -0.201  0.00  0.00    +0.300 C 
ATOM     23  C   LIG    1       -4.475   0.031  -1.193  0.00  0.00    +0.070 C 
ATOM     24  C   LIG    1       -5.970   0.019  -1.568  0.00  0.00    -0.300 C 
ATOM     25  S   LIG    1       -6.522   1.753  -1.382  0.00  0.00    +2.400 S 
ATOM     26  O   LIG    1       -6.817   2.296  -2.661  0.00  0.00    -0.930 OA
ATOM     27  O   LIG    1       -7.486   1.831  -0.340  0.00  0.00    -0.920 OA
ATOM     28  C   LIG    1       -4.928   2.432  -0.786  0.00  0.00    -0.310 C 
ENDBRANCH  17  22
ENDBRANCH   3  15
TORSDOF 4
