REMARK  Name = ZINCah0000006lqv.0
REMARK                            x       y       z     vdW  Elec       q    Type
REMARK                         _______ _______ _______ _____ _____    ______ ____
ROOT
ATOM      1  C   LIG    1        1.141   3.524   0.010  0.00  0.00    -0.240 A 
ATOM      2  C   LIG    1        1.079   4.295   1.111  0.00  0.00    +0.230 A 
ATOM      3  N   LIG    1        0.958   5.577   0.899  0.00  0.00    -0.410 NA
ATOM      4  C   LIG    1        0.912   5.948  -0.354  0.00  0.00    -0.070 A 
ATOM      5  S   LIG    1        1.043   4.521  -1.377  0.00  0.00    +0.260 S 
ENDROOT
BRANCH   4   6
ATOM      6  C   LIG    1        0.780   7.326  -0.830  0.00  0.00    +0.570 C 
ATOM      7  O   LIG    1        0.748   7.557  -2.021  0.00  0.00    -0.440 OA
ENDBRANCH   4   6
BRANCH   1   8
ATOM      8  C   LIG    1        1.280   2.024   0.001  0.00  0.00    +0.290 C 
BRANCH   8  10
ATOM      9  C   LIG    1        0.002  -0.004   0.002  0.00  0.00    +0.220 C 
ATOM     10  O   LIG    1       -0.017   1.425   0.010  0.00  0.00    -0.390 OA
ENDBRANCH   8  10
ENDBRANCH   1   8
TORSDOF 3
