REMARK  Name = ZINCrH000004jQCv.0
REMARK                            x       y       z     vdW  Elec       q    Type
REMARK                         _______ _______ _______ _____ _____    ______ ____
ROOT
ATOM      1  C   LIG    1        2.020   5.032   1.655  0.00  0.00    +0.290 C 
ENDROOT
BRANCH   1   3
ATOM      2  C   LIG    1        3.415   5.564   3.707  0.00  0.00    +0.280 C 
ATOM      3  N   LIG    1        2.192   5.747   2.922  0.00  0.00    -0.620 N 
ATOM      4  C   LIG    1        1.224   6.575   3.365  0.00  0.00    +0.600 C 
ATOM      5  O   LIG    1        0.162   6.639   2.776  0.00  0.00    -0.540 OA
BRANCH   4   6
ATOM      6  C   LIG    1        1.454   7.403   4.563  0.00  0.00    -0.300 A 
ATOM      7  C   LIG    1        0.516   8.175   5.218  0.00  0.00    +0.310 A 
ATOM      8  N   LIG    1        1.132   8.762   6.256  0.00  0.00    -0.350 N 
ATOM      9  N   LIG    1        2.475   8.368   6.255  0.00  0.00    -0.290 NA
ATOM     10  C   LIG    1        2.677   7.559   5.252  0.00  0.00    +0.260 A 
BRANCH   8  11
ATOM     11  C   LIG    1        0.506   9.668   7.222  0.00  0.00    +0.170 C 
ATOM     12  C   LIG    1       -0.371  10.679   6.480  0.00  0.00    +0.070 C 
ATOM     13  C   LIG    1        1.592  10.412   8.002  0.00  0.00    +0.080 C 
ATOM     14  C   LIG    1       -0.357   8.861   8.193  0.00  0.00    +0.060 C 
ENDBRANCH   8  11
ENDBRANCH   4   6
ENDBRANCH   1   3
BRANCH   1  15
ATOM     15  C   LIG    1        1.343   3.685   1.918  0.00  0.00    +0.010 C 
BRANCH  15  16
ATOM     16  C   LIG    1        1.164   2.937   0.595  0.00  0.00    +0.120 C 
BRANCH  16  17
ATOM     17  C   LIG    1        0.497   1.611   0.854  0.00  0.00    +0.090 A 
ATOM     18  C   LIG    1       -0.833   1.396   0.954  0.00  0.00    -0.100 A 
ATOM     19  C   LIG    1       -1.032   0.023   1.198  0.00  0.00    +0.120 A 
ATOM     20  N   LIG    1        0.150  -0.555   1.241  0.00  0.00    -0.280 NA
ATOM     21  N   LIG    1        1.124   0.427   1.027  0.00  0.00    -0.470 N 
ATOM     22  H   LIG    1        2.083   0.283   1.006  0.00  0.00    +0.440 HD
BRANCH  19  23
ATOM     23  C   LIG    1       -2.342  -0.651   1.374  0.00  0.00    -0.020 A 
ATOM     24  C   LIG    1       -3.522   0.086   1.308  0.00  0.00    +0.040 A 
ATOM     25  C   LIG    1       -4.738  -0.548   1.468  0.00  0.00    +0.010 A 
ATOM     26  C   LIG    1       -4.785  -1.910   1.703  0.00  0.00    +0.010 A 
ATOM     27  C   LIG    1       -3.616  -2.646   1.775  0.00  0.00    +0.010 A 
ATOM     28  C   LIG    1       -2.395  -2.023   1.611  0.00  0.00    +0.040 A 
ENDBRANCH  19  23
ENDBRANCH  16  17
ENDBRANCH  15  16
ENDBRANCH   1  15
TORSDOF 7
