REMARK  Name = ZINCrD00000hQ68P.0
REMARK                            x       y       z     vdW  Elec       q    Type
REMARK                         _______ _______ _______ _____ _____    ______ ____
ROOT
ATOM      1  N   LIG    1       -2.082   2.312   1.614  0.00  0.00    -1.000 NA
ATOM      2  C   LIG    1       -3.025   1.531   2.429  0.00  0.00    +0.320 C 
ATOM      3  C   LIG    1       -2.325   1.150   3.744  0.00  0.00    +0.190 C 
ATOM      4  N   LIG    1       -1.807   2.366   4.386  0.00  0.00    -0.470 N 
ATOM      5  C   LIG    1       -0.785   3.014   3.555  0.00  0.00    +0.190 C 
ATOM      6  C   LIG    1       -1.417   3.467   2.234  0.00  0.00    +0.320 C 
ENDROOT
BRANCH   4   7
ATOM      7  C   LIG    1       -1.310   2.084   5.664  0.00  0.00    +0.070 A 
ATOM      8  C   LIG    1       -1.147   0.769   6.073  0.00  0.00    +0.000 A 
ATOM      9  C   LIG    1       -0.651   0.494   7.334  0.00  0.00    -0.010 A 
ATOM     10  C   LIG    1       -0.327   1.527   8.193  0.00  0.00    +0.030 A 
ATOM     11  C   LIG    1       -0.492   2.841   7.794  0.00  0.00    -0.060 A 
ATOM     12  C   LIG    1       -0.983   3.125   6.531  0.00  0.00    +0.120 A 
BRANCH  12  13
ATOM     13  O   LIG    1       -1.145   4.417   6.137  0.00  0.00    -0.300 OA
ATOM     14  C   LIG    1       -0.790   5.432   7.079  0.00  0.00    +0.230 C 
ENDBRANCH  12  13
ENDBRANCH   4   7
BRANCH   1  15
ATOM     15  S   LIG    1       -1.782   1.904   0.037  0.00  0.00    +2.690 S 
ATOM     16  O   LIG    1       -2.912   1.167  -0.409  0.00  0.00    -0.950 OA
ATOM     17  O   LIG    1       -1.325   3.088  -0.603  0.00  0.00    -0.940 OA
BRANCH  15  20
ATOM     18  C   LIG    1        0.417  -1.461   0.125  0.00  0.00    +0.140 A 
ATOM     19  C   LIG    1       -0.652  -0.578   0.130  0.00  0.00    +0.040 A 
ATOM     20  C   LIG    1       -0.424   0.782   0.037  0.00  0.00    -0.630 A 
ATOM     21  C   LIG    1        0.868   1.262  -0.062  0.00  0.00    +0.100 A 
ATOM     22  C   LIG    1        1.937   0.384  -0.068  0.00  0.00    +0.080 A 
ATOM     23  C   LIG    1        1.714  -0.977   0.025  0.00  0.00    -0.080 A 
ATOM     24 BR   LIG    1        3.175  -2.178   0.018  0.00  0.00    -0.020 Br
BRANCH  18  25
ATOM     25  O   LIG    1        0.195  -2.799   0.217  0.00  0.00    -0.300 OA
BRANCH  25  27
ATOM     26  C   LIG    1       -1.216  -4.752   0.411  0.00  0.00    +0.070 C 
ATOM     27  C   LIG    1       -1.165  -3.225   0.317  0.00  0.00    +0.190 C 
ENDBRANCH  25  27
ENDBRANCH  18  25
ENDBRANCH  15  20
ENDBRANCH   1  15
TORSDOF 6
