REMARK  Name = ZINCrH000004sK9I.0
REMARK                            x       y       z     vdW  Elec       q    Type
REMARK                         _______ _______ _______ _____ _____    ______ ____
ROOT
ATOM      1  C   LIG    1        1.999   2.237   1.162  0.00  0.00    +0.520 C 
ATOM      2  N   LIG    1        1.356   2.010  -0.000  0.00  0.00    -0.620 N 
ATOM      3  C   LIG    1        2.031   2.270  -1.274  0.00  0.00    +0.290 C 
ATOM      4  O   LIG    1        1.440   2.021   2.217  0.00  0.00    -0.530 OA
ENDROOT
BRANCH   1   5
ATOM      5  C   LIG    1        3.413   2.759   1.152  0.00  0.00    +0.050 C 
BRANCH   5   6
ATOM      6  C   LIG    1        3.905   2.927   2.590  0.00  0.00    +0.140 C 
BRANCH   6  13
ATOM      7  C   LIG    1        6.540   1.167   2.570  0.00  0.00    +0.150 C 
ATOM      8  C   LIG    1        6.483   2.673   2.571  0.00  0.00    +0.090 A 
ATOM      9  N   LIG    1        7.512   3.480   2.559  0.00  0.00    -0.290 NA
ATOM     10  N   LIG    1        7.036   4.797   2.571  0.00  0.00    -0.370 N 
ATOM     11  C   LIG    1        5.688   4.751   2.583  0.00  0.00    +0.090 A 
ATOM     12  C   LIG    1        4.758   5.937   2.599  0.00  0.00    +0.140 C 
ATOM     13  C   LIG    1        5.319   3.449   2.580  0.00  0.00    -0.230 A 
BRANCH  10  14
ATOM     14  C   LIG    1        7.857   6.010   2.569  0.00  0.00    +0.350 C 
BRANCH  14  15
ATOM     15  C   LIG    1        8.157   6.426   4.011  0.00  0.00    +0.190 C 
BRANCH  15  16
ATOM     16  C   LIG    1        8.981   7.645   4.009  0.00  0.00    +0.200 C 
ATOM     17  N   LIG    1        9.618   8.586   4.007  0.00  0.00    -0.420 NA
ENDBRANCH  15  16
ENDBRANCH  14  15
ENDBRANCH  10  14
ENDBRANCH   6  13
ENDBRANCH   5   6
ENDBRANCH   1   5
BRANCH   2  18
ATOM     18  C   LIG    1       -0.018   1.503   0.010  0.00  0.00    +0.410 C 
BRANCH  18  19
ATOM     19  C   LIG    1        0.002  -0.004   0.002  0.00  0.00    -0.040 A 
ATOM     20  C   LIG    1        0.023  -0.796   1.089  0.00  0.00    -0.020 A 
ATOM     21  C   LIG    1        0.037  -2.131   0.622  0.00  0.00    -0.060 A 
ATOM     22  C   LIG    1        0.024  -2.074  -0.722  0.00  0.00    +0.030 A 
ATOM     23  O   LIG    1       -0.003  -0.784  -1.092  0.00  0.00    -0.170 OA
BRANCH  22  24
ATOM     24  C   LIG    1        0.032  -3.259  -1.654  0.00  0.00    +0.050 C 
ATOM     25  C   LIG    1       -0.189  -2.987  -3.143  0.00  0.00    +0.040 C 
ATOM     26  C   LIG    1        1.200  -3.377  -2.634  0.00  0.00    -0.030 C 
ATOM     27  C   LIG    1        1.705  -4.783  -2.966  0.00  0.00    +0.060 C 
ENDBRANCH  22  24
ENDBRANCH  18  19
ENDBRANCH   2  18
TORSDOF 9
