REMARK  Name = ZINCvU0000000FgU.0
REMARK                            x       y       z     vdW  Elec       q    Type
REMARK                         _______ _______ _______ _____ _____    ______ ____
ROOT
ATOM      1  C   LIG    1       -2.504   1.004   0.019  0.00  0.00    +0.060 A 
ATOM      2  N   LIG    1       -3.653   1.630   0.127  0.00  0.00    -0.210 NA
ATOM      3  N   LIG    1       -4.766   0.984   0.126  0.00  0.00    -0.370 N 
ATOM      4  C   LIG    1       -4.804  -0.378   0.049  0.00  0.00    +0.450 A 
ATOM      5  C   LIG    1       -6.111  -1.061   0.112  0.00  0.00    -0.140 A 
ATOM      6  C   LIG    1       -6.278  -2.376  -0.309  0.00  0.00    +0.130 A 
ATOM      7  C   LIG    1       -7.521  -2.968  -0.211  0.00  0.00    -0.020 A 
ATOM      8  C   LIG    1       -8.599  -2.265   0.304  0.00  0.00    +0.080 A 
ATOM      9  C   LIG    1       -8.448  -0.954   0.722  0.00  0.00    -0.030 A 
ATOM     10  C   LIG    1       -7.212  -0.348   0.625  0.00  0.00    +0.220 A 
ATOM     11  N   LIG    1       -6.988   0.973   1.015  0.00  0.00    -0.740 N 
ATOM     12  H   LIG    1       -7.438   1.364   1.780  0.00  0.00    +0.420 HD
ATOM     13  N   LIG    1       -3.698  -1.090  -0.071  0.00  0.00    -0.560 NA
ATOM     14  C   LIG    1       -6.027   1.740   0.199  0.00  0.00    +0.530 C 
ATOM     15  C   LIG    1       -2.511  -0.465  -0.105  0.00  0.00    +0.490 A 
ATOM     16  O   LIG    1       -1.472  -1.092  -0.231  0.00  0.00    -0.470 OA
ENDROOT
BRANCH   1  20
ATOM     17  C   LIG    1        1.156   3.165   0.009  0.00  0.00    -0.060 A 
ATOM     18  C   LIG    1        1.134   1.848   0.433  0.00  0.00    +0.010 A 
ATOM     19  C   LIG    1       -0.052   1.143   0.443  0.00  0.00    +0.070 A 
ATOM     20  C   LIG    1       -1.229   1.758   0.017  0.00  0.00    -0.040 A 
ATOM     21  C   LIG    1       -1.202   3.087  -0.404  0.00  0.00    +0.050 A 
ATOM     22  C   LIG    1       -0.010   3.782  -0.409  0.00  0.00    +0.010 A 
BRANCH  17  24
ATOM     23  C   LIG    1        2.768   4.389  -1.423  0.00  0.00    +0.030 C 
ATOM     24  C   LIG    1        2.454   3.930   0.002  0.00  0.00    +0.020 C 
ATOM     25  C   LIG    1        2.332   5.151   0.916  0.00  0.00    +0.040 C 
ENDBRANCH  17  24
ENDBRANCH   1  20
BRANCH  14  26
ATOM     26  C   LIG    1       -6.589   1.939  -1.211  0.00  0.00    +0.080 C 
BRANCH  26  27
ATOM     27  C   LIG    1       -7.813   2.817  -1.145  0.00  0.00    -0.080 A 
ATOM     28  C   LIG    1       -9.062   2.249  -0.983  0.00  0.00    +0.020 A 
ATOM     29  C   LIG    1      -10.184   3.054  -0.917  0.00  0.00    +0.000 A 
ATOM     30  C   LIG    1      -10.057   4.426  -1.024  0.00  0.00    +0.000 A 
ATOM     31  C   LIG    1       -8.808   4.994  -1.191  0.00  0.00    +0.000 A 
ATOM     32  C   LIG    1       -7.686   4.189  -1.252  0.00  0.00    +0.010 A 
ENDBRANCH  26  27
ENDBRANCH  14  26
TORSDOF 4
