REMARK  Name = ZINCrD0000071L8I.0
REMARK                            x       y       z     vdW  Elec       q    Type
REMARK                         _______ _______ _______ _____ _____    ______ ____
ROOT
ATOM      1  N   LIG    1        0.618   0.626   1.367  0.00  0.00    -0.500 NA
ENDROOT
BRANCH   1   3
ATOM      2  C   LIG    1        0.648  -1.800   1.702  0.00  0.00    +0.030 C 
ATOM      3  C   LIG    1        1.343  -0.474   2.017  0.00  0.00    +0.170 C 
ENDBRANCH   1   3
BRANCH   1   4
ATOM      4  C   LIG    1        1.061   1.927   1.884  0.00  0.00    +0.230 C 
BRANCH   4   5
ATOM      5  C   LIG    1        0.674   2.050   3.335  0.00  0.00    +0.520 C 
ATOM      6  N   LIG    1        0.981   3.168   4.022  0.00  0.00    -0.670 N 
ATOM      7  H   LIG    1        1.395   3.918   3.568  0.00  0.00    +0.420 HD
ATOM      8  O   LIG    1        0.086   1.143   3.885  0.00  0.00    -0.490 OA
BRANCH   6   9
ATOM      9  C   LIG    1        0.702   3.247   5.393  0.00  0.00    +0.130 A 
ATOM     10  C   LIG    1       -0.356   2.526   5.929  0.00  0.00    +0.080 A 
ATOM     11  C   LIG    1       -0.627   2.602   7.282  0.00  0.00    +0.050 A 
ATOM     12  C   LIG    1        0.148   3.403   8.101  0.00  0.00    -0.030 A 
ATOM     13  C   LIG    1        1.201   4.127   7.570  0.00  0.00    +0.020 A 
ATOM     14 CL   LIG    1       -0.199   3.499   9.800  0.00  0.00    -0.050 Cl
ATOM     15  C   LIG    1        1.480   4.052   6.218  0.00  0.00    +0.080 A 
ATOM     16  F   LIG    1        2.507   4.759   5.698  0.00  0.00    -0.130 F 
ENDBRANCH   6   9
ENDBRANCH   4   5
ENDBRANCH   1   4
BRANCH   1  17
ATOM     17  C   LIG    1        0.763   0.562  -0.093  0.00  0.00    +0.220 C 
BRANCH  17  18
ATOM     18  C   LIG    1       -0.335   1.364  -0.743  0.00  0.00    +0.510 C 
ATOM     19  N   LIG    1       -0.442   1.396  -2.086  0.00  0.00    -0.670 N 
ATOM     20  H   LIG    1        0.229   0.963  -2.636  0.00  0.00    +0.410 HD
ATOM     21  O   LIG    1       -1.123   1.981  -0.057  0.00  0.00    -0.500 OA
BRANCH  19  22
ATOM     22  C   LIG    1       -1.523   2.055  -2.687  0.00  0.00    +0.110 A 
ATOM     23  C   LIG    1       -2.774   2.029  -2.086  0.00  0.00    +0.060 A 
ATOM     24  C   LIG    1       -3.837   2.684  -2.676  0.00  0.00    -0.060 A 
ATOM     25  C   LIG    1       -3.658   3.358  -3.875  0.00  0.00    +0.120 A 
ATOM     26  C   LIG    1       -2.409   3.379  -4.479  0.00  0.00    +0.010 A 
ATOM     27  C   LIG    1       -1.344   2.730  -3.887  0.00  0.00    +0.030 A 
BRANCH  25  28
ATOM     28  O   LIG    1       -4.707   3.997  -4.458  0.00  0.00    -0.320 OA
ATOM     29  C   LIG    1       -5.963   3.934  -3.781  0.00  0.00    +0.250 C 
ENDBRANCH  25  28
ENDBRANCH  19  22
ENDBRANCH  17  18
ENDBRANCH   1  17
TORSDOF 8
