REMARK  Name = ZINCrD000000ClZ3.0
REMARK                            x       y       z     vdW  Elec       q    Type
REMARK                         _______ _______ _______ _____ _____    ______ ____
ROOT
ATOM      1  N   LIG    1        2.904   0.792  -1.406  0.00  0.00    -0.380 N 
ATOM      2  C   LIG    1        1.931  -0.092  -2.059  0.00  0.00    +0.260 C 
ATOM      3  C   LIG    1        2.312  -0.277  -3.530  0.00  0.00    +0.050 C 
ATOM      4  C   LIG    1        3.708  -0.899  -3.616  0.00  0.00    -0.020 C 
ATOM      5  C   LIG    1        4.701  -0.005  -2.868  0.00  0.00    +0.060 C 
ATOM      6  C   LIG    1        4.233   0.170  -1.422  0.00  0.00    +0.260 C 
ATOM      7  H   LIG    1        2.940   1.672  -1.899  0.00  0.00    +0.420 HD
ENDROOT
BRANCH   1   8
ATOM      8  C   LIG    1        2.492   1.029  -0.016  0.00  0.00    +0.310 C 
BRANCH   8  13
ATOM      9  C   LIG    1       -1.751   5.293   0.046  0.00  0.00    +0.040 A 
ATOM     10  C   LIG    1       -0.391   5.253   0.033  0.00  0.00    -0.040 A 
ATOM     11  C   LIG    1       -0.027   3.838   0.022  0.00  0.00    -0.120 A 
ATOM     12  C   LIG    1        1.186   3.145   0.008  0.00  0.00    +0.090 A 
ATOM     13  C   LIG    1        1.185   1.778   0.000  0.00  0.00    -0.190 A 
ATOM     14  C   LIG    1       -0.013   1.076   0.008  0.00  0.00    +0.030 A 
ATOM     15  C   LIG    1       -1.220   1.741   0.017  0.00  0.00    +0.050 A 
ATOM     16  C   LIG    1       -1.244   3.130   0.030  0.00  0.00    +0.060 A 
ATOM     17  O   LIG    1       -2.242   4.035   0.044  0.00  0.00    -0.160 OA
BRANCH   9  19
ATOM     18  O   LIG    1       -2.013   7.610   0.060  0.00  0.00    -0.640 OA
ATOM     19  C   LIG    1       -2.559   6.514   0.060  0.00  0.00    +0.550 C 
ATOM     20  O   LIG    1       -3.781   6.439   0.071  0.00  0.00    -0.650 OA
ENDBRANCH   9  19
ENDBRANCH   8  13
ENDBRANCH   1   8
BRANCH   4  21
ATOM     21  C   LIG    1        4.129  -1.015  -5.083  0.00  0.00    +0.290 C 
BRANCH  21  22
ATOM     22  N   LIG    1        3.248  -1.963  -5.769  0.00  0.00    -0.600 N 
ATOM     23  C   LIG    1        2.039  -1.443  -6.395  0.00  0.00    +0.260 C 
ATOM     24  C   LIG    1        1.506  -2.431  -7.433  0.00  0.00    +0.030 C 
ATOM     25  C   LIG    1        1.405  -3.818  -6.785  0.00  0.00    +0.030 C 
ATOM     26  C   LIG    1        2.822  -4.318  -6.490  0.00  0.00    +0.060 C 
ATOM     27  C   LIG    1        3.607  -3.248  -5.788  0.00  0.00    +0.520 C 
ATOM     28  O   LIG    1        4.619  -3.570  -5.202  0.00  0.00    -0.550 OA
ENDBRANCH  21  22
ENDBRANCH   4  21
TORSDOF 5
