REMARK  Name = ZINCvU000000084T.0
REMARK                            x       y       z     vdW  Elec       q    Type
REMARK                         _______ _______ _______ _____ _____    ______ ____
ROOT
ATOM      1  C   LIG    1        2.225   4.252  -0.656  0.00  0.00    -0.220 A 
ATOM      2  C   LIG    1        3.220   5.133  -0.416  0.00  0.00    +0.260 A 
ATOM      3  N   LIG    1        4.153   4.511   0.351  0.00  0.00    -0.310 N 
ATOM      4  N   LIG    1        3.714   3.204   0.594  0.00  0.00    -0.260 NA
ATOM      5  C   LIG    1        2.552   3.043  -0.006  0.00  0.00    +0.170 A 
ENDROOT
BRANCH   1  12
ATOM      6  C   LIG    1        2.193   7.028  -4.159  0.00  0.00    +0.120 C 
ATOM      7  C   LIG    1        2.104   5.774  -3.329  0.00  0.00    +0.550 C 
ATOM      8  N   LIG    1        1.180   5.676  -2.352  0.00  0.00    -0.470 N 
ATOM      9  N   LIG    1        0.255   6.660  -2.010  0.00  0.00    -0.240 NA
ATOM     10  C   LIG    1       -0.526   6.334  -1.039  0.00  0.00    +0.150 C 
ATOM     11  C   LIG    1       -0.182   4.942  -0.560  0.00  0.00    +0.090 C 
ATOM     12  C   LIG    1        0.985   4.513  -1.471  0.00  0.00    +0.300 C 
ATOM     13  O   LIG    1        2.862   4.851  -3.540  0.00  0.00    -0.510 OA
BRANCH  10  14
ATOM     14  C   LIG    1       -1.591   7.188  -0.481  0.00  0.00    -0.030 A 
ATOM     15  C   LIG    1       -2.378   6.725   0.576  0.00  0.00    +0.040 A 
ATOM     16  C   LIG    1       -3.373   7.529   1.094  0.00  0.00    +0.010 A 
ATOM     17  C   LIG    1       -3.591   8.790   0.569  0.00  0.00    +0.030 A 
ATOM     18  C   LIG    1       -2.815   9.255  -0.479  0.00  0.00    -0.090 A 
ATOM     19  C   LIG    1       -3.061  10.630  -1.044  0.00  0.00    +0.090 C 
ATOM     20  C   LIG    1       -1.814   8.464  -1.003  0.00  0.00    +0.050 A 
ENDBRANCH  10  14
ENDBRANCH   1  12
BRANCH   3  21
ATOM     21  C   LIG    1        5.347   5.078   0.816  0.00  0.00    +0.160 A 
ATOM     22  C   LIG    1        5.665   6.391   0.493  0.00  0.00    -0.010 A 
ATOM     23  C   LIG    1        6.840   6.949   0.958  0.00  0.00    +0.040 A 
ATOM     24  C   LIG    1        7.704   6.198   1.734  0.00  0.00    +0.000 A 
ATOM     25  C   LIG    1        7.393   4.889   2.052  0.00  0.00    +0.040 A 
ATOM     26  C   LIG    1        6.217   4.327   1.595  0.00  0.00    +0.020 A 
ENDBRANCH   3  21
BRANCH   5  27
ATOM     27  C   LIG    1        1.736   1.809  -0.005  0.00  0.00    -0.120 A 
ATOM     28  C   LIG    1        2.225   0.553  -0.016  0.00  0.00    +0.040 A 
ATOM     29  C   LIG    1        1.265  -0.439  -0.012  0.00  0.00    +0.020 A 
ATOM     30  C   LIG    1        0.002  -0.004   0.002  0.00  0.00    -0.040 A 
ATOM     31  S   LIG    1       -0.022   1.754   0.012  0.00  0.00    +0.130 S 
ENDBRANCH   5  27
TORSDOF 4
