REMARK  Name = ZINCqH0000033SQy.0
REMARK                            x       y       z     vdW  Elec       q    Type
REMARK                         _______ _______ _______ _____ _____    ______ ____
ROOT
ATOM      1  N   LIG    1       -1.032   2.255  -0.057  0.00  0.00    -0.730 N 
ATOM      2  H   LIG    1       -1.120   3.217   0.029  0.00  0.00    +0.400 HD
ATOM      3  C   LIG    1        0.191   1.692  -0.115  0.00  0.00    +0.560 C 
ATOM      4  O   LIG    1        0.301   0.486  -0.223  0.00  0.00    -0.530 OA
ENDROOT
BRANCH   3   5
ATOM      5  C   LIG    1        1.399   2.542  -0.053  0.00  0.00    -0.130 A 
ATOM      6  C   LIG    1        1.277   3.927   0.065  0.00  0.00    +0.040 A 
ATOM      7  C   LIG    1        2.409   4.713   0.129  0.00  0.00    +0.030 A 
ATOM      8  C   LIG    1        3.663   4.133   0.063  0.00  0.00    -0.090 A 
ATOM      9  C   LIG    1        3.791   2.761  -0.060  0.00  0.00    +0.020 A 
ATOM     10  C   LIG    1        2.667   1.962  -0.118  0.00  0.00    +0.080 A 
BRANCH   8  11
ATOM     11  C   LIG    1        4.894   4.999   0.127  0.00  0.00    +0.340 C 
BRANCH  11  12
ATOM     12  N   LIG    1        5.278   5.402  -1.229  0.00  0.00    -0.620 N 
ATOM     13  C   LIG    1        6.198   4.647  -2.088  0.00  0.00    +0.260 C 
ATOM     14  C   LIG    1        5.958   5.184  -3.518  0.00  0.00    +0.040 C 
ATOM     15  C   LIG    1        5.429   6.609  -3.232  0.00  0.00    +0.050 C 
ATOM     16  C   LIG    1        4.838   6.514  -1.843  0.00  0.00    +0.520 C 
ATOM     17  O   LIG    1        4.079   7.323  -1.354  0.00  0.00    -0.530 OA
ENDBRANCH  11  12
ENDBRANCH   8  11
ENDBRANCH   3   5
BRANCH   1  18
ATOM     18  C   LIG    1       -2.230   1.414  -0.124  0.00  0.00    +0.270 C 
BRANCH  18  19
ATOM     19  C   LIG    1       -3.475   2.284   0.054  0.00  0.00    +0.030 C 
BRANCH  19  20
ATOM     20  C   LIG    1       -4.709   1.444  -0.154  0.00  0.00    -0.070 A 
ATOM     21  C   LIG    1       -4.943   0.348   0.655  0.00  0.00    +0.010 A 
ATOM     22  C   LIG    1       -6.077  -0.420   0.467  0.00  0.00    +0.000 A 
ATOM     23  C   LIG    1       -6.972  -0.097  -0.536  0.00  0.00    +0.000 A 
ATOM     24  C   LIG    1       -6.735   0.996  -1.348  0.00  0.00    +0.000 A 
ATOM     25  C   LIG    1       -5.604   1.766  -1.157  0.00  0.00    +0.010 A 
ENDBRANCH  19  20
BRANCH  19  27
ATOM     26  C   LIG    1       -4.663   3.843   1.604  0.00  0.00    +0.020 C 
ATOM     27  C   LIG    1       -3.490   2.870   1.467  0.00  0.00    +0.020 C 
ENDBRANCH  19  27
ENDBRANCH  18  19
ENDBRANCH   1  18
TORSDOF 7
