REMARK  Name = ZINCrg000000tbsl.0
REMARK                            x       y       z     vdW  Elec       q    Type
REMARK                         _______ _______ _______ _____ _____    ______ ____
ROOT
ATOM      1  O   LIG    1        1.892   9.273  -1.446  0.00  0.00    -0.530 OA
ATOM      2  C   LIG    1        0.782   8.801  -1.578  0.00  0.00    +0.530 C 
ATOM      3  N   LIG    1        0.391   7.772  -0.801  0.00  0.00    -0.620 N 
ATOM      4  C   LIG    1        1.293   7.207   0.214  0.00  0.00    +0.300 C 
ATOM      5  C   LIG    1        1.352   5.688   0.022  0.00  0.00    +0.210 C 
ATOM      6  N   LIG    1       -0.012   5.143   0.031  0.00  0.00    -0.470 N 
ATOM      7  C   LIG    1       -0.803   5.666  -1.091  0.00  0.00    +0.200 C 
ATOM      8  C   LIG    1       -0.950   7.184  -0.945  0.00  0.00    +0.300 C 
ENDROOT
BRANCH   6   9
ATOM      9  C   LIG    1        0.006   3.753   0.023  0.00  0.00    +0.260 A 
ATOM     10  C   LIG    1       -1.190   3.039   0.030  0.00  0.00    +0.210 A 
ATOM     11  N   LIG    1       -1.168   1.720   0.017  0.00  0.00    -0.420 NA
ATOM     12  C   LIG    1       -0.013   1.076   0.008  0.00  0.00    +0.190 A 
ATOM     13  C   LIG    1        1.176   1.781   0.000  0.00  0.00    +0.250 A 
ATOM     14  N   LIG    1        1.163   3.103   0.008  0.00  0.00    -0.480 NA
ENDBRANCH   6   9
BRANCH   2  15
ATOM     15  C   LIG    1       -0.158   9.364  -2.612  0.00  0.00    +0.050 C 
BRANCH  15  16
ATOM     16  C   LIG    1        0.527  10.515  -3.352  0.00  0.00    +0.390 C 
BRANCH  16  17
ATOM     17  N   LIG    1       -0.387  11.063  -4.357  0.00  0.00    -0.450 N 
ATOM     18  N   LIG    1       -0.503  10.652  -5.693  0.00  0.00    -0.260 NA
ATOM     19  C   LIG    1       -1.427  11.382  -6.254  0.00  0.00    +0.330 A 
ATOM     20  O   LIG    1       -1.911  12.256  -5.344  0.00  0.00    -0.260 OA
ATOM     21  C   LIG    1       -1.275  12.064  -4.176  0.00  0.00    +0.610 A 
ATOM     22  O   LIG    1       -1.464  12.679  -3.143  0.00  0.00    -0.470 OA
BRANCH  19  23
ATOM     23  C   LIG    1       -1.867  11.276  -7.654  0.00  0.00    -0.170 A 
ATOM     24  C   LIG    1       -2.821  12.038  -8.232  0.00  0.00    +0.090 A 
ATOM     25  C   LIG    1       -3.060  11.752  -9.559  0.00  0.00    +0.010 A 
ATOM     26  C   LIG    1       -2.314  10.767 -10.070  0.00  0.00    -0.010 A 
ATOM     27  S   LIG    1       -1.228  10.142  -8.837  0.00  0.00    +0.210 S 
ENDBRANCH  19  23
ENDBRANCH  16  17
ENDBRANCH  15  16
ENDBRANCH   2  15
TORSDOF 5
