REMARK  Name = ZINCrH000004oTod.1
REMARK                            x       y       z     vdW  Elec       q    Type
REMARK                         _______ _______ _______ _____ _____    ______ ____
ROOT
ATOM      1  C   LIG    1       -2.926   1.284  -2.277  0.00  0.00    +0.560 C 
ATOM      2  N   LIG    1       -2.131   1.142  -1.198  0.00  0.00    -0.720 N 
ATOM      3  H   LIG    1       -2.506   0.842  -0.355  0.00  0.00    +0.400 HD
ATOM      4  O   LIG    1       -2.455   1.660  -3.333  0.00  0.00    -0.530 OA
ENDROOT
BRANCH   1  11
ATOM      5  C   LIG    1       -9.484   2.641  -2.509  0.00  0.00    +0.090 C 
ATOM      6  C   LIG    1       -9.496   1.222  -3.081  0.00  0.00    +0.060 C 
ATOM      7  S   LIG    1       -8.796   0.069  -1.863  0.00  0.00    -0.070 S 
ATOM      8  C   LIG    1       -7.071   0.422  -1.982  0.00  0.00    -0.110 A 
ATOM      9  C   LIG    1       -6.252   0.274  -0.871  0.00  0.00    +0.090 A 
ATOM     10  C   LIG    1       -4.905   0.548  -0.963  0.00  0.00    +0.050 A 
ATOM     11  C   LIG    1       -4.366   0.985  -2.176  0.00  0.00    -0.100 A 
ATOM     12  C   LIG    1       -5.189   1.133  -3.295  0.00  0.00    +0.070 A 
ATOM     13  C   LIG    1       -6.543   0.852  -3.205  0.00  0.00    +0.150 A 
ATOM     14  N   LIG    1       -7.346   0.999  -4.333  0.00  0.00    -0.650 N 
ATOM     15  H   LIG    1       -6.905   0.970  -5.197  0.00  0.00    +0.420 HD
ATOM     16  C   LIG    1       -8.666   1.174  -4.334  0.00  0.00    +0.530 C 
ATOM     17  O   LIG    1       -9.228   1.303  -5.401  0.00  0.00    -0.510 OA
ENDBRANCH   1  11
BRANCH   2  18
ATOM     18  C   LIG    1       -0.700   1.439  -1.298  0.00  0.00    +0.300 C 
BRANCH  18  19
ATOM     19  C   LIG    1       -0.010   1.074   0.018  0.00  0.00    +0.210 C 
BRANCH  19  20
ATOM     20  N   LIG    1        1.403   1.473  -0.043  0.00  0.00    -0.510 NA
ATOM     21  C   LIG    1        1.534   2.934  -0.279  0.00  0.00    +0.170 C 
ATOM     22  C   LIG    1        2.973   3.243   0.204  0.00  0.00    +0.030 C 
ATOM     23  C   LIG    1        3.129   2.323   1.437  0.00  0.00    +0.010 C 
ATOM     24  C   LIG    1        2.084   1.209   1.243  0.00  0.00    +0.170 C 
ENDBRANCH  19  20
BRANCH  19  25
ATOM     25  C   LIG    1       -0.102  -0.414   0.238  0.00  0.00    -0.180 A 
ATOM     26  C   LIG    1       -0.979  -1.019   1.041  0.00  0.00    -0.010 A 
ATOM     27  C   LIG    1       -0.877  -2.399   1.081  0.00  0.00    +0.000 A 
ATOM     28  C   LIG    1        0.088  -2.913   0.317  0.00  0.00    -0.060 A 
ATOM     29  S   LIG    1        0.933  -1.617  -0.519  0.00  0.00    +0.150 S 
ENDBRANCH  19  25
ENDBRANCH  18  19
ENDBRANCH   2  18
TORSDOF 5
