REMARK  Name = ZINCtV00000L6jO6.0
REMARK                            x       y       z     vdW  Elec       q    Type
REMARK                         _______ _______ _______ _____ _____    ______ ____
ROOT
ATOM      1  C   LIG    1        8.968   1.679  -6.419  0.00  0.00    +0.000 C 
ATOM      2  C   LIG    1        8.235   2.696  -7.300  0.00  0.00    +0.040 C 
ATOM      3  C   LIG    1        7.522   3.722  -6.412  0.00  0.00    +0.140 C 
ATOM      4  C   LIG    1        6.712   2.979  -5.374  0.00  0.00    +0.040 A 
ATOM      5  C   LIG    1        6.904   1.685  -5.070  0.00  0.00    -0.170 A 
ATOM      6  C   LIG    1        5.931   1.347  -4.033  0.00  0.00    -0.110 A 
ATOM      7  C   LIG    1        5.626   0.192  -3.315  0.00  0.00    +0.070 A 
ATOM      8  C   LIG    1        4.611   0.219  -2.375  0.00  0.00    +0.110 A 
ATOM      9  C   LIG    1        3.897   1.394  -2.151  0.00  0.00    +0.070 A 
ATOM     10  C   LIG    1        4.197   2.541  -2.853  0.00  0.00    +0.040 A 
ATOM     11  C   LIG    1        5.212   2.533  -3.801  0.00  0.00    +0.060 A 
ATOM     12  O   LIG    1        5.715   3.477  -4.625  0.00  0.00    -0.190 OA
ATOM     13  C   LIG    1        7.939   0.794  -5.704  0.00  0.00    +0.110 C 
ENDROOT
BRANCH   1  14
ATOM     14  C   LIG    1        9.873   0.807  -7.292  0.00  0.00    -0.060 C 
ATOM     15  C   LIG    1        9.025   0.066  -8.327  0.00  0.00    +0.030 C 
ATOM     16  C   LIG    1       10.605  -0.208  -6.412  0.00  0.00    +0.020 C 
BRANCH  14  18
ATOM     17  C   LIG    1       11.801   0.819  -8.881  0.00  0.00    +0.010 C 
ATOM     18  C   LIG    1       10.896   1.691  -8.009  0.00  0.00    +0.010 C 
ENDBRANCH  14  18
ENDBRANCH   1  14
BRANCH   8  19
ATOM     19  N   LIG    1        4.298  -0.937  -1.651  0.00  0.00    -1.060 N 
ATOM     20  H   LIG    1        3.809  -1.658  -2.077  0.00  0.00    +0.430 HD
BRANCH  19  21
ATOM     21  S   LIG    1        4.764  -1.074  -0.068  0.00  0.00    +2.690 S 
ATOM     22  O   LIG    1        4.350   0.122   0.577  0.00  0.00    -0.950 OA
ATOM     23  O   LIG    1        4.359  -2.368   0.359  0.00  0.00    -0.950 OA
BRANCH  21  24
ATOM     24  C   LIG    1        6.526  -1.070  -0.040  0.00  0.00    -0.680 A 
ATOM     25  C   LIG    1        7.211   0.109   0.187  0.00  0.00    +0.130 A 
ATOM     26  C   LIG    1        8.593   0.112   0.210  0.00  0.00    -0.010 A 
ATOM     27  C   LIG    1        9.290  -1.064   0.005  0.00  0.00    -0.020 A 
ATOM     28  C   LIG    1        8.605  -2.243  -0.222  0.00  0.00    -0.010 A 
ATOM     29  C   LIG    1       10.797  -1.060   0.024  0.00  0.00    +0.090 C 
ATOM     30  C   LIG    1        7.223  -2.246  -0.245  0.00  0.00    +0.130 A 
ENDBRANCH  21  24
ENDBRANCH  19  21
ENDBRANCH   8  19
TORSDOF 5
