REMARK  Name = ZINCkj00000a7msQ.0
REMARK                            x       y       z     vdW  Elec       q    Type
REMARK                         _______ _______ _______ _____ _____    ______ ____
ROOT
ATOM      1  C   LIG    1        3.413   1.319   1.197  0.00  0.00    +0.240 C 
ATOM      2  C   LIG    1        4.134   0.493   0.130  0.00  0.00    +0.250 C 
ATOM      3  N   LIG    1        4.222  -0.906   0.565  0.00  0.00    -0.510 N 
ATOM      4  C   LIG    1        5.031  -0.998   1.786  0.00  0.00    +0.280 C 
ATOM      5  C   LIG    1        4.344  -0.230   2.917  0.00  0.00    +0.020 C 
ATOM      6  H   LIG    1        3.295  -1.259   0.750  0.00  0.00    +0.420 HD
ATOM      7  H   LIG    1        4.650  -1.458  -0.164  0.00  0.00    +0.430 HD
ATOM      8  C   LIG    1        4.194   1.239   2.511  0.00  0.00    +0.190 C 
ENDROOT
BRANCH   1  14
ATOM      9  C   LIG    1        0.584  -1.696   3.862  0.00  0.00    +0.030 C 
ATOM     10  C   LIG    1        0.599  -0.640   2.754  0.00  0.00    +0.000 C 
ATOM     11  C   LIG    1       -0.011  -1.228   1.479  0.00  0.00    +0.020 C 
ATOM     12  C   LIG    1        0.063  -0.184   0.360  0.00  0.00    +0.050 C 
ATOM     13  C   LIG    1        1.521   0.229   0.150  0.00  0.00    +0.160 C 
ATOM     14  N   LIG    1        2.059   0.784   1.398  0.00  0.00    -0.490 NA
ATOM     15  C   LIG    1        2.042  -0.214   2.475  0.00  0.00    +0.170 C 
ENDBRANCH   1  14
BRANCH   8  16
ATOM     16  C   LIG    1        3.449   1.986   3.587  0.00  0.00    +0.080 A 
ATOM     17  C   LIG    1        3.971   2.045   4.865  0.00  0.00    -0.040 A 
ATOM     18  C   LIG    1        3.280   2.739   5.846  0.00  0.00    +0.070 A 
ATOM     19  C   LIG    1        2.078   3.340   5.506  0.00  0.00    -0.020 A 
ATOM     20  C   LIG    1        1.615   3.234   4.208  0.00  0.00    +0.270 A 
ATOM     21  N   LIG    1        2.302   2.571   3.299  0.00  0.00    -0.430 NA
ENDBRANCH   8  16
BRANCH   8  22
ATOM     22  O   LIG    1        5.488   1.820   2.333  0.00  0.00    -0.540 OA
ATOM     23  H   LIG    1        6.039   1.804   3.128  0.00  0.00    +0.390 HD
ENDBRANCH   8  22
TORSDOF 3
