REMARK  Name = ZINCrD000000BvTX.0
REMARK                            x       y       z     vdW  Elec       q    Type
REMARK                         _______ _______ _______ _____ _____    ______ ____
ROOT
ATOM      1  O   LIG    1        0.002  -0.004   0.002  0.00  0.00    -0.520 OA
ATOM      2  C   LIG    1       -0.014   1.209   0.009  0.00  0.00    +0.510 C 
ATOM      3  N   LIG    1       -1.191   1.867   0.018  0.00  0.00    -0.720 N 
ATOM      4  H   LIG    1       -1.204   2.837   0.023  0.00  0.00    +0.400 HD
ENDROOT
BRANCH   2   5
ATOM      5  C   LIG    1        1.280   1.980   0.001  0.00  0.00    +0.220 C 
ATOM      6  C   LIG    1        1.625   2.441   1.432  0.00  0.00    +0.060 C 
ATOM      7  C   LIG    1        2.621   1.355   1.917  0.00  0.00    +0.040 C 
ATOM      8  C   LIG    1        3.392   1.034   0.612  0.00  0.00    +0.270 C 
ATOM      9  N   LIG    1        2.376   1.112  -0.454  0.00  0.00    -0.600 N 
ATOM     10  C   LIG    1        2.442   0.490  -1.648  0.00  0.00    +0.630 C 
ATOM     11  O   LIG    1        1.541   0.625  -2.455  0.00  0.00    -0.510 OA
BRANCH  10  12
ATOM     12  C   LIG    1        3.598  -0.351  -1.974  0.00  0.00    -0.080 A 
ATOM     13  C   LIG    1        3.788  -1.039  -3.139  0.00  0.00    +0.040 A 
ATOM     14  C   LIG    1        5.020  -1.700  -3.021  0.00  0.00    -0.060 A 
ATOM     15  C   LIG    1        5.519  -1.398  -1.802  0.00  0.00    +0.200 A 
ATOM     16  O   LIG    1        4.659  -0.585  -1.174  0.00  0.00    -0.160 OA
ENDBRANCH  10  12
ENDBRANCH   2   5
BRANCH   3  17
ATOM     17  C   LIG    1       -2.449   1.117   0.020  0.00  0.00    +0.380 C 
BRANCH  17  18
ATOM     18  C   LIG    1       -3.608   2.080   0.030  0.00  0.00    +0.050 A 
ATOM     19  C   LIG    1       -4.222   2.465  -1.093  0.00  0.00    -0.050 A 
ATOM     20  S   LIG    1       -5.513   3.584  -0.660  0.00  0.00    +0.110 S 
ATOM     21  C   LIG    1       -5.082   3.417   1.039  0.00  0.00    +0.120 A 
ATOM     22  N   LIG    1       -4.080   2.591   1.144  0.00  0.00    -0.450 NA
BRANCH  21  23
ATOM     23  C   LIG    1       -5.752   4.100   2.166  0.00  0.00    -0.030 A 
ATOM     24  C   LIG    1       -5.320   3.881   3.475  0.00  0.00    +0.070 A 
ATOM     25  C   LIG    1       -5.947   4.526   4.522  0.00  0.00    +0.010 A 
ATOM     26  C   LIG    1       -7.008   5.379   4.277  0.00  0.00    +0.030 A 
ATOM     27  C   LIG    1       -7.444   5.596   2.982  0.00  0.00    +0.010 A 
ATOM     28  C   LIG    1       -6.823   4.962   1.926  0.00  0.00    +0.020 A 
ENDBRANCH  21  23
ENDBRANCH  17  18
ENDBRANCH   3  17
TORSDOF 5
