REMARK  Name = ZINCqH0000005sAL.0
REMARK                            x       y       z     vdW  Elec       q    Type
REMARK                         _______ _______ _______ _____ _____    ______ ____
ROOT
ATOM      1  N   LIG    1        3.745  -0.942  -0.119  0.00  0.00    -0.650 N 
ATOM      2  H   LIG    1        4.556  -0.425   0.012  0.00  0.00    +0.420 HD
ATOM      3  C   LIG    1        2.552  -0.319  -0.182  0.00  0.00    +0.570 C 
ATOM      4  O   LIG    1        1.529  -0.971  -0.257  0.00  0.00    -0.510 OA
ENDROOT
BRANCH   3   5
ATOM      5  C   LIG    1        2.487   1.158  -0.161  0.00  0.00    -0.070 A 
ATOM      6  C   LIG    1        3.629   1.924   0.037  0.00  0.00    +0.020 A 
ATOM      7  C   LIG    1        3.531   3.313   0.051  0.00  0.00    +0.180 A 
ATOM      8  N   LIG    1        2.388   3.929  -0.118  0.00  0.00    -0.450 NA
ATOM      9  C   LIG    1        1.249   3.258  -0.313  0.00  0.00    +0.130 A 
ATOM     10  C   LIG    1        0.030   3.937  -0.493  0.00  0.00    +0.040 A 
ATOM     11  C   LIG    1       -1.115   3.228  -0.691  0.00  0.00    +0.030 A 
ATOM     12  C   LIG    1       -1.101   1.836  -0.725  0.00  0.00    +0.020 A 
ATOM     13  C   LIG    1        0.060   1.144  -0.549  0.00  0.00    +0.060 A 
ATOM     14  C   LIG    1        1.257   1.841  -0.342  0.00  0.00    -0.070 A 
BRANCH   7  15
ATOM     15  C   LIG    1        4.778   4.133   0.267  0.00  0.00    +0.020 C 
ATOM     16  C   LIG    1        6.006   3.415   0.832  0.00  0.00    +0.040 C 
ATOM     17  C   LIG    1        5.215   4.388   1.711  0.00  0.00    +0.040 C 
ENDBRANCH   7  15
ENDBRANCH   3   5
BRANCH   1  23
ATOM     18  C   LIG    1        4.910  -2.923  -0.885  0.00  0.00    -0.170 A 
ATOM     19  C   LIG    1        4.971  -4.314  -0.997  0.00  0.00    +0.060 A 
ATOM     20  C   LIG    1        3.951  -5.089  -0.488  0.00  0.00    -0.010 A 
ATOM     21  C   LIG    1        2.868  -4.497   0.140  0.00  0.00    +0.060 A 
ATOM     22  C   LIG    1        2.797  -3.124   0.264  0.00  0.00    +0.020 A 
ATOM     23  C   LIG    1        3.815  -2.326  -0.243  0.00  0.00    +0.210 A 
BRANCH  18  27
ATOM     24  C   LIG    1        8.174  -1.835  -2.494  0.00  0.00    +0.290 C 
ATOM     25  N   LIG    1        7.097  -2.665  -1.949  0.00  0.00    -0.730 N 
ATOM     26  H   LIG    1        7.178  -3.632  -1.960  0.00  0.00    +0.400 HD
ATOM     27  C   LIG    1        5.995  -2.087  -1.434  0.00  0.00    +0.560 C 
ATOM     28  O   LIG    1        5.894  -0.875  -1.421  0.00  0.00    -0.540 OA
ENDBRANCH  18  27
ENDBRANCH   1  23
TORSDOF 4
