REMARK  Name = ZINCpk00000KfKwk.0
REMARK                            x       y       z     vdW  Elec       q    Type
REMARK                         _______ _______ _______ _____ _____    ______ ____
ROOT
ATOM      1  C   LIG    1       -2.433   5.379   0.054  0.00  0.00    +0.300 C 
ENDROOT
BRANCH   1   2
ATOM      2  N   LIG    1       -2.391   3.915   0.046  0.00  0.00    -0.710 N 
ATOM      3  H   LIG    1       -3.217   3.406   0.051  0.00  0.00    +0.410 HD
BRANCH   2   4
ATOM      4  C   LIG    1       -1.183   3.263   0.031  0.00  0.00    +0.640 A 
ATOM      5  N   LIG    1       -0.088   3.980   0.024  0.00  0.00    -0.580 NA
ATOM      6  C   LIG    1        1.137   3.402   0.009  0.00  0.00    +0.200 A 
ATOM      7  C   LIG    1        2.306   4.167   0.003  0.00  0.00    +0.010 A 
ATOM      8  C   LIG    1        3.531   3.539  -0.012  0.00  0.00    +0.070 A 
ATOM      9  C   LIG    1        3.621   2.153  -0.021  0.00  0.00    -0.030 A 
ATOM     10  C   LIG    1        2.482   1.377  -0.014  0.00  0.00    +0.100 A 
ATOM     11  C   LIG    1        1.232   1.992   0.001  0.00  0.00    -0.230 A 
ATOM     12  C   LIG    1       -0.014   1.213   0.009  0.00  0.00    +0.570 A 
ATOM     13  O   LIG    1        0.002  -0.004   0.002  0.00  0.00    -0.510 OA
ATOM     14  N   LIG    1       -1.181   1.899   0.018  0.00  0.00    -0.670 N 
ATOM     15  H   LIG    1       -2.022   1.416   0.019  0.00  0.00    +0.410 HD
ENDBRANCH   2   4
ENDBRANCH   1   2
BRANCH   1  16
ATOM     16  C   LIG    1       -3.890   5.847   0.071  0.00  0.00    +0.010 C 
BRANCH  16  17
ATOM     17  C   LIG    1       -3.934   7.377   0.080  0.00  0.00    +0.320 C 
BRANCH  17  22
ATOM     18  C   LIG    1       -7.423   8.501  -0.515  0.00  0.00    +0.120 C 
ATOM     19  N   LIG    1       -7.290   8.454   0.951  0.00  0.00    -0.720 N 
ATOM     20  H   LIG    1       -7.974   8.673   1.603  0.00  0.00    +0.440 HD
ATOM     21  C   LIG    1       -6.033   8.049   1.210  0.00  0.00    +0.700 C 
ATOM     22  N   LIG    1       -5.328   7.825   0.095  0.00  0.00    -0.580 N 
ATOM     23  O   LIG    1       -5.588   7.903   2.332  0.00  0.00    -0.540 OA
ATOM     24  C   LIG    1       -7.735   9.924  -0.983  0.00  0.00    +0.090 C 
ATOM     25  C   LIG    1       -6.058   8.068  -1.011  0.00  0.00    +0.530 C 
ATOM     26  O   LIG    1       -5.698   7.960  -2.164  0.00  0.00    -0.460 OA
BRANCH  18  28
ATOM     27  C   LIG    1       -9.854   7.939  -0.384  0.00  0.00    +0.050 C 
ATOM     28  C   LIG    1       -8.509   7.531  -0.988  0.00  0.00    +0.040 C 
ENDBRANCH  18  28
ENDBRANCH  17  22
ENDBRANCH  16  17
ENDBRANCH   1  16
TORSDOF 6
