REMARK  Name = ZINCpe000000Y8Zf.0
REMARK                            x       y       z     vdW  Elec       q    Type
REMARK                         _______ _______ _______ _____ _____    ______ ____
ROOT
ATOM      1  N   LIG    1        4.514   1.549  -0.082  0.00  0.00    -0.630 N 
ATOM      2  H   LIG    1        4.390   2.139   0.678  0.00  0.00    +0.420 HD
ATOM      3  C   LIG    1        3.535   0.694  -0.438  0.00  0.00    +0.530 C 
ATOM      4  O   LIG    1        3.691  -0.044  -1.387  0.00  0.00    -0.460 OA
ENDROOT
BRANCH   3   5
ATOM      5  C   LIG    1        2.248   0.655   0.344  0.00  0.00    +0.020 C 
ATOM      6  C   LIG    1        1.446   1.964   0.157  0.00  0.00    +0.090 C 
ATOM      7  C   LIG    1        0.003   1.513   0.119  0.00  0.00    +0.530 C 
ATOM      8  N   LIG    1       -0.062   0.188  -0.100  0.00  0.00    -0.610 N 
ATOM      9  C   LIG    1       -1.310  -0.575  -0.187  0.00  0.00    +0.310 C 
ATOM     10  O   LIG    1       -0.956   2.242   0.260  0.00  0.00    -0.520 OA
ATOM     11  C   LIG    1        1.277  -0.395  -0.241  0.00  0.00    +0.330 C 
BRANCH  11  12
ATOM     12  C   LIG    1        1.370  -1.682   0.537  0.00  0.00    +0.060 A 
ATOM     13  C   LIG    1        0.743  -1.955   1.705  0.00  0.00    -0.100 A 
ATOM     14  C   LIG    1        1.093  -3.254   2.088  0.00  0.00    +0.230 A 
ATOM     15  N   LIG    1        1.907  -3.741   1.186  0.00  0.00    -0.290 NA
ATOM     16  N   LIG    1        2.097  -2.767   0.197  0.00  0.00    -0.350 N 
ATOM     17  C   LIG    1        2.938  -2.902  -0.995  0.00  0.00    +0.360 C 
ENDBRANCH  11  12
ENDBRANCH   3   5
BRANCH   1  22
ATOM     18  C   LIG    1        9.062   2.702  -1.675  0.00  0.00    +0.200 C 
ATOM     19  C   LIG    1        7.698   2.081  -1.515  0.00  0.00    +0.190 A 
ATOM     20  N   LIG    1        7.183   1.145  -2.262  0.00  0.00    -0.280 NA
ATOM     21  N   LIG    1        6.006   0.845  -1.842  0.00  0.00    -0.270 NA
ATOM     22  C   LIG    1        5.702   1.585  -0.803  0.00  0.00    +0.400 A 
ATOM     23  N   LIG    1        6.774   2.394  -0.560  0.00  0.00    -0.470 N 
BRANCH  23  24
ATOM     24  C   LIG    1        6.905   3.391   0.505  0.00  0.00    +0.180 C 
ATOM     25  C   LIG    1        8.198   3.384   1.324  0.00  0.00    +0.070 C 
ATOM     26  C   LIG    1        6.893   2.888   1.950  0.00  0.00    +0.050 C 
ENDBRANCH  23  24
ENDBRANCH   1  22
TORSDOF 4
