REMARK  Name = ZINCtV000002D0ix.0
REMARK                            x       y       z     vdW  Elec       q    Type
REMARK                         _______ _______ _______ _____ _____    ______ ____
ROOT
ATOM      1  S   LIG    1       -2.557   5.612   0.055  0.00  0.00    +0.070 S 
ENDROOT
BRANCH   1   2
ATOM      2  C   LIG    1       -2.477   3.852   0.045  0.00  0.00    +0.190 A 
ATOM      3  N   LIG    1       -3.583   3.119   0.050  0.00  0.00    -0.510 NA
ATOM      4  C   LIG    1       -3.536   1.797   0.043  0.00  0.00    +0.260 A 
ATOM      5  N   LIG    1       -2.411   1.122   0.029  0.00  0.00    -0.460 NA
ATOM      6  C   LIG    1       -1.233   1.764   0.017  0.00  0.00    +0.170 A 
ATOM      7  C   LIG    1       -0.013   1.076   0.008  0.00  0.00    +0.060 A 
ATOM      8  C   LIG    1        1.157   1.778   0.001  0.00  0.00    +0.070 A 
ATOM      9  C   LIG    1        1.157   3.169   0.008  0.00  0.00    +0.040 A 
ATOM     10  C   LIG    1       -0.013   3.870   0.022  0.00  0.00    +0.060 A 
ATOM     11  C   LIG    1       -1.229   3.180   0.030  0.00  0.00    -0.120 A 
BRANCH   4  12
ATOM     12  C   LIG    1       -4.834   1.030   0.050  0.00  0.00    +0.550 C 
ATOM     13  F   LIG    1       -5.051   0.493   1.323  0.00  0.00    -0.160 F 
ATOM     14  F   LIG    1       -4.769  -0.005  -0.889  0.00  0.00    -0.160 F 
ATOM     15  F   LIG    1       -5.886   1.892  -0.277  0.00  0.00    -0.150 F 
ENDBRANCH   4  12
ENDBRANCH   1   2
BRANCH   1  17
ATOM     16  C   LIG    1       -4.948   5.314  -1.233  0.00  0.00    +0.100 C 
ATOM     17  C   LIG    1       -4.352   5.845   0.072  0.00  0.00    +0.100 C 
BRANCH  17  18
ATOM     18  C   LIG    1       -4.667   7.312   0.207  0.00  0.00    +0.300 A 
ATOM     19  N   LIG    1       -4.084   8.264  -0.461  0.00  0.00    -0.460 NA
ATOM     20  C   LIG    1       -4.607   9.464  -0.097  0.00  0.00    +0.050 A 
ATOM     21  C   LIG    1       -4.357  10.782  -0.487  0.00  0.00    +0.080 A 
ATOM     22  C   LIG    1       -5.067  11.805   0.075  0.00  0.00    +0.020 A 
ATOM     23  C   LIG    1       -6.037  11.549   1.035  0.00  0.00    +0.050 A 
ATOM     24  C   LIG    1       -6.300  10.256   1.435  0.00  0.00    +0.020 A 
ATOM     25  C   LIG    1       -5.589   9.205   0.874  0.00  0.00    +0.060 A 
ATOM     26  N   LIG    1       -5.607   7.834   1.041  0.00  0.00    -0.540 N 
BRANCH  26  27
ATOM     27  C   LIG    1       -6.475   7.082   1.950  0.00  0.00    +0.640 C 
ATOM     28  F   LIG    1       -5.690   6.372   2.864  0.00  0.00    -0.180 F 
ATOM     29  F   LIG    1       -7.258   6.186   1.213  0.00  0.00    -0.170 F 
ENDBRANCH  26  27
ENDBRANCH  17  18
ENDBRANCH   1  17
TORSDOF 5
