REMARK  Name = ZINCb80000003WeB.0
REMARK                            x       y       z     vdW  Elec       q    Type
REMARK                         _______ _______ _______ _____ _____    ______ ____
ROOT
ATOM      1  C   LIG    1        0.002  -0.004   0.002  0.00  0.00    +0.120 C 
ATOM      2  N   LIG    1       -0.018   1.469   0.010  0.00  0.00    -0.720 N 
ATOM      3  H   LIG    1       -0.803   2.038   0.017  0.00  0.00    +0.440 HD
ATOM      4  C   LIG    1        1.266   1.871   0.000  0.00  0.00    +0.700 C 
ATOM      5  N   LIG    1        2.123   0.844  -0.014  0.00  0.00    -0.680 N 
ATOM      6  H   LIG    1        3.088   0.940  -0.023  0.00  0.00    +0.430 HD
ATOM      7  O   LIG    1        1.608   3.037   0.003  0.00  0.00    -0.540 OA
ATOM      8  C   LIG    1       -0.686  -0.545  -1.253  0.00  0.00    +0.090 C 
ATOM      9  C   LIG    1        1.480  -0.340  -0.014  0.00  0.00    +0.540 C 
ATOM     10  O   LIG    1        1.980  -1.445  -0.024  0.00  0.00    -0.460 OA
ENDROOT
BRANCH   1  12
ATOM     11  C   LIG    1       -0.740  -2.084   1.171  0.00  0.00    +0.050 C 
ATOM     12  C   LIG    1       -0.662  -0.558   1.264  0.00  0.00    +0.000 C 
ATOM     13  C   LIG    1        0.162  -0.163   2.490  0.00  0.00    +0.020 C 
ENDBRANCH   1  12
TORSDOF 1
