REMARK  Name = ZINCtV000002z5Ry.0
REMARK                            x       y       z     vdW  Elec       q    Type
REMARK                         _______ _______ _______ _____ _____    ______ ____
ROOT
ATOM      1  C   LIG    1       -4.892   1.268   0.042  0.00  0.00    +0.300 C 
ATOM      2  C   LIG    1       -4.976   0.964   1.539  0.00  0.00    +0.040 C 
ENDROOT
BRANCH   1   3
ATOM      3  C   LIG    1       -6.048   2.149  -0.358  0.00  0.00    -0.080 A 
ATOM      4  C   LIG    1       -5.903   3.522  -0.354  0.00  0.00    +0.030 A 
ATOM      5  C   LIG    1       -6.963   4.332  -0.726  0.00  0.00    +0.080 A 
ATOM      6  C   LIG    1       -8.173   3.766  -1.091  0.00  0.00    +0.030 A 
ATOM      7  C   LIG    1       -8.322   2.393  -1.091  0.00  0.00    -0.020 A 
ATOM      8  F   LIG    1       -6.819   5.675  -0.726  0.00  0.00    -0.140 F 
ATOM      9  C   LIG    1       -7.259   1.581  -0.724  0.00  0.00    +0.120 A 
BRANCH   9  10
ATOM     10  O   LIG    1       -7.405   0.229  -0.723  0.00  0.00    -0.250 OA
BRANCH  10  11
ATOM     11  C   LIG    1       -8.571  -0.287  -1.192  0.00  0.00    +0.090 A 
ATOM     12  C   LIG    1       -9.449  -0.922  -0.324  0.00  0.00    +0.030 A 
ATOM     13  C   LIG    1      -10.636  -1.442  -0.802  0.00  0.00    +0.050 A 
ATOM     14  C   LIG    1      -10.945  -1.340  -2.147  0.00  0.00    -0.040 A 
ATOM     15  C   LIG    1      -10.069  -0.712  -3.014  0.00  0.00    +0.050 A 
ATOM     16 CL   LIG    1      -12.435  -2.001  -2.745  0.00  0.00    -0.060 Cl
ATOM     17  C   LIG    1       -8.884  -0.186  -2.540  0.00  0.00    +0.010 A 
ENDBRANCH  10  11
ENDBRANCH   9  10
ENDBRANCH   1   3
BRANCH   1  18
ATOM     18  N   LIG    1       -3.631   1.956  -0.247  0.00  0.00    -0.740 N 
ATOM     19  H   LIG    1       -3.614   2.922  -0.332  0.00  0.00    +0.400 HD
BRANCH  18  26
ATOM     20  N   LIG    1        1.208   1.478  -1.091  0.00  0.00    -0.410 N 
ATOM     21  N   LIG    1        1.982   0.314  -1.134  0.00  0.00    -0.270 NA
ATOM     22  C   LIG    1        1.235  -0.729  -0.909  0.00  0.00    +0.270 A 
ATOM     23  C   LIG    1       -0.132  -0.262  -0.699  0.00  0.00    -0.230 A 
ATOM     24  C   LIG    1       -1.345  -0.904  -0.423  0.00  0.00    +0.140 A 
ATOM     25  C   LIG    1       -2.484  -0.170  -0.277  0.00  0.00    -0.090 A 
ATOM     26  C   LIG    1       -2.454   1.220  -0.400  0.00  0.00    +0.270 A 
ATOM     27  C   LIG    1       -1.265   1.875  -0.668  0.00  0.00    -0.120 A 
ATOM     28  C   LIG    1       -0.094   1.141  -0.825  0.00  0.00    +0.180 A 
BRANCH  20  30
ATOM     29  C   LIG    1        2.141   3.433   0.044  0.00  0.00    +0.020 C 
ATOM     30  C   LIG    1        1.708   2.839  -1.298  0.00  0.00    +0.320 C 
ENDBRANCH  20  30
ENDBRANCH  18  26
ENDBRANCH   1  18
TORSDOF 6
