REMARK  Name = ZINCrH000004qH5T.0
REMARK                            x       y       z     vdW  Elec       q    Type
REMARK                         _______ _______ _______ _____ _____    ______ ____
ROOT
ATOM      1  C   LIG    1       -3.190   2.407  -1.449  0.00  0.00    +0.580 C 
ATOM      2  N   LIG    1       -2.161   1.999  -0.680  0.00  0.00    -0.610 N 
ATOM      3  C   LIG    1       -2.221   1.746   0.771  0.00  0.00    +0.250 C 
ATOM      4  C   LIG    1       -0.759   1.922   1.268  0.00  0.00    +0.050 C 
ATOM      5  C   LIG    1        0.041   1.320   0.082  0.00  0.00    +0.240 C 
ATOM      6  C   LIG    1       -0.793   1.734  -1.149  0.00  0.00    +0.250 C 
ATOM      7  O   LIG    1       -3.004   2.673  -2.620  0.00  0.00    -0.510 OA
ENDROOT
BRANCH   1  17
ATOM      8  C   LIG    1       -5.858  -1.865  -2.799  0.00  0.00    +0.100 C 
ATOM      9  C   LIG    1       -6.192  -0.636  -1.994  0.00  0.00    -0.080 A 
ATOM     10  C   LIG    1       -7.457  -0.499  -1.439  0.00  0.00    +0.050 A 
ATOM     11  C   LIG    1       -7.782   0.619  -0.699  0.00  0.00    +0.060 A 
ATOM     12  C   LIG    1       -6.832   1.622  -0.505  0.00  0.00    +0.150 A 
ATOM     13  N   LIG    1       -7.142   2.745   0.233  0.00  0.00    -0.630 N 
ATOM     14  H   LIG    1       -8.028   2.832   0.616  0.00  0.00    +0.420 HD
ATOM     15  C   LIG    1       -6.239   3.721   0.432  0.00  0.00    +0.540 A 
ATOM     16  C   LIG    1       -4.892   3.625  -0.126  0.00  0.00    +0.010 A 
ATOM     17  C   LIG    1       -4.548   2.531  -0.867  0.00  0.00    -0.030 A 
ATOM     18  O   LIG    1       -6.548   4.699   1.089  0.00  0.00    -0.520 OA
ATOM     19  C   LIG    1       -5.552   1.476  -1.069  0.00  0.00    -0.080 A 
ATOM     20  F   LIG    1       -9.016   0.742  -0.163  0.00  0.00    -0.130 F 
ATOM     21  C   LIG    1       -5.246   0.334  -1.815  0.00  0.00    +0.080 A 
ENDBRANCH   1  17
BRANCH   5  22
ATOM     22  N   LIG    1        1.385   1.899   0.017  0.00  0.00    -0.740 N 
ATOM     23  H   LIG    1        1.561   2.762   0.422  0.00  0.00    +0.400 HD
BRANCH  22  24
ATOM     24  C   LIG    1        2.412   1.208  -0.630  0.00  0.00    +0.210 A 
ATOM     25  C   LIG    1        2.162  -0.031  -1.207  0.00  0.00    -0.080 A 
ATOM     26  C   LIG    1        3.179  -0.709  -1.850  0.00  0.00    +0.050 A 
ATOM     27  C   LIG    1        4.447  -0.161  -1.911  0.00  0.00    -0.060 A 
ATOM     28  C   LIG    1        4.700   1.070  -1.334  0.00  0.00    +0.050 A 
ATOM     29  C   LIG    1        3.687   1.756  -0.694  0.00  0.00    -0.070 A 
ENDBRANCH  22  24
ENDBRANCH   5  22
TORSDOF 3
