REMARK  Name = ZINCrD0000071FIE.0
REMARK                            x       y       z     vdW  Elec       q    Type
REMARK                         _______ _______ _______ _____ _____    ______ ____
ROOT
ATOM      1  C   LIG    1        1.868   2.648   0.272  0.00  0.00    +0.240 C 
ATOM      2  C   LIG    1        1.238   3.145   1.575  0.00  0.00    +0.030 C 
ATOM      3  C   LIG    1       -0.256   2.806   1.578  0.00  0.00    +0.270 C 
ATOM      4  N   LIG    1       -0.417   1.365   1.341  0.00  0.00    -0.620 N 
ATOM      5  C   LIG    1        0.229   0.767   0.164  0.00  0.00    +0.280 C 
ATOM      6  C   LIG    1       -1.141   0.607   2.188  0.00  0.00    +0.520 C 
ATOM      7  O   LIG    1       -1.342  -0.562   1.934  0.00  0.00    -0.520 OA
ATOM      8  C   LIG    1        1.717   1.128   0.178  0.00  0.00    +0.020 C 
ENDROOT
BRANCH   1   9
ATOM      9  N   LIG    1        3.290   3.000   0.252  0.00  0.00    -1.120 NA
ATOM     10  H   LIG    1        3.803   2.992   1.075  0.00  0.00    +0.420 HD
BRANCH   9  11
ATOM     11  S   LIG    1        4.021   3.411  -1.176  0.00  0.00    +2.610 S 
ATOM     12  O   LIG    1        3.678   2.354  -2.062  0.00  0.00    -0.950 OA
ATOM     13  O   LIG    1        5.374   3.657  -0.818  0.00  0.00    -0.960 OA
BRANCH  11  14
ATOM     14  C   LIG    1        3.204   4.951  -1.676  0.00  0.00    -0.370 C 
BRANCH  14  16
ATOM     15  C   LIG    1        3.111   6.738  -3.420  0.00  0.00    +0.030 C 
ATOM     16  C   LIG    1        3.800   5.439  -2.998  0.00  0.00    +0.040 C 
ENDBRANCH  14  16
ENDBRANCH  11  14
ENDBRANCH   9  11
ENDBRANCH   1   9
BRANCH   6  17
ATOM     17  C   LIG    1       -1.699   1.211   3.451  0.00  0.00    +0.030 C 
ATOM     18  C   LIG    1       -3.035   1.890   3.143  0.00  0.00    +0.060 C 
BRANCH  17  19
ATOM     19  C   LIG    1       -1.911   0.126   4.475  0.00  0.00    -0.080 A 
ATOM     20  C   LIG    1       -2.765  -0.926   4.202  0.00  0.00    +0.040 A 
ATOM     21  C   LIG    1       -2.959  -1.921   5.142  0.00  0.00    +0.000 A 
ATOM     22  C   LIG    1       -2.298  -1.864   6.355  0.00  0.00    +0.010 A 
ATOM     23  C   LIG    1       -1.443  -0.812   6.628  0.00  0.00    -0.080 A 
ATOM     24  C   LIG    1       -1.246   0.180   5.686  0.00  0.00    +0.010 A 
BRANCH  23  25
ATOM     25  C   LIG    1       -0.722  -0.751   7.950  0.00  0.00    +0.060 C 
BRANCH  25  26
ATOM     26  C   LIG    1        0.620  -1.476   7.833  0.00  0.00    -0.020 C 
ATOM     27  C   LIG    1        1.295  -1.522   9.205  0.00  0.00    +0.010 C 
ATOM     28  C   LIG    1        1.519  -0.729   6.847  0.00  0.00    +0.010 C 
ENDBRANCH  25  26
ENDBRANCH  23  25
ENDBRANCH  17  19
ENDBRANCH   6  17
TORSDOF 8
