REMARK  Name = ZINCnE000001LTlr.0
REMARK                            x       y       z     vdW  Elec       q    Type
REMARK                         _______ _______ _______ _____ _____    ______ ____
ROOT
ATOM      1  C   LIG    1        2.386  -0.554   6.048  0.00  0.00    -0.090 A 
ATOM      2  C   LIG    1        3.446   0.178   6.569  0.00  0.00    +0.110 A 
ATOM      3  C   LIG    1        4.191  -0.342   7.629  0.00  0.00    -0.130 A 
ATOM      4  C   LIG    1        3.873  -1.600   8.149  0.00  0.00    +0.120 A 
ATOM      5  C   LIG    1        2.822  -2.322   7.622  0.00  0.00    -0.200 A 
ATOM      6  C   LIG    1        2.079  -1.808   6.577  0.00  0.00    +0.070 A 
ENDROOT
BRANCH   1  10
ATOM      7  C   LIG    1        0.090   1.019   2.832  0.00  0.00    -0.670 A 
ATOM      8  C   LIG    1       -0.220  -0.223   3.358  0.00  0.00    +0.120 A 
ATOM      9  C   LIG    1        0.525  -0.741   4.398  0.00  0.00    -0.010 A 
ATOM     10  C   LIG    1        1.585  -0.006   4.925  0.00  0.00    +0.030 A 
ATOM     11  C   LIG    1        1.890   1.246   4.395  0.00  0.00    +0.010 A 
ATOM     12  C   LIG    1        1.141   1.752   3.352  0.00  0.00    +0.120 A 
BRANCH   7  14
ATOM     13  C   LIG    1       -0.013   1.086   0.008  0.00  0.00    -0.260 C 
ATOM     14  S   LIG    1       -0.862   1.671   1.500  0.00  0.00    +2.500 S 
ATOM     15  O   LIG    1       -2.128   1.040   1.633  0.00  0.00    -0.940 OA
ATOM     16  O   LIG    1       -0.728   3.079   1.631  0.00  0.00    -0.940 OA
ENDBRANCH   7  14
ENDBRANCH   1  10
BRANCH   5  17
ATOM     17  C   LIG    1        2.484  -3.677   8.187  0.00  0.00    +0.510 C 
ATOM     18  F   LIG    1        1.113  -3.913   8.044  0.00  0.00    -0.180 F 
ATOM     19  F   LIG    1        2.825  -3.714   9.544  0.00  0.00    -0.170 F 
ATOM     20  F   LIG    1        3.201  -4.662   7.499  0.00  0.00    -0.180 F 
ENDBRANCH   5  17
BRANCH   3  21
ATOM     21  C   LIG    1        5.315   0.430   8.193  0.00  0.00    +0.520 C 
ATOM     22  O   LIG    1        5.591   1.530   7.735  0.00  0.00    -0.680 OA
ATOM     23  O   LIG    1        5.970  -0.030   9.117  0.00  0.00    -0.680 OA
ENDBRANCH   3  21
TORSDOF 4
