REMARK  Name = ZINCpk00000y6vJ6.0
REMARK                            x       y       z     vdW  Elec       q    Type
REMARK                         _______ _______ _______ _____ _____    ______ ____
ROOT
ATOM      1  C   LIG    1        5.980   1.256   2.672  0.00  0.00    +0.600 C 
ATOM      2  N   LIG    1        4.864   0.557   2.959  0.00  0.00    -0.710 N 
ATOM      3  H   LIG    1        4.535   0.520   3.870  0.00  0.00    +0.410 HD
ATOM      4  O   LIG    1        6.445   1.226   1.548  0.00  0.00    -0.510 OA
ENDROOT
BRANCH   1  11
ATOM      5  C   LIG    1        9.852   4.131   6.253  0.00  0.00    +0.070 C 
ATOM      6  C   LIG    1        9.129   2.784   6.298  0.00  0.00    +0.260 C 
ATOM      7  O   LIG    1       10.030   1.735   5.916  0.00  0.00    -0.370 OA
ATOM      8  C   LIG    1        9.419   0.457   5.731  0.00  0.00    +0.150 C 
ATOM      9  C   LIG    1        8.582   0.460   4.441  0.00  0.00    +0.100 C 
ATOM     10  C   LIG    1        7.736   1.704   4.456  0.00  0.00    -0.150 A 
ATOM     11  C   LIG    1        6.637   2.054   3.719  0.00  0.00    -0.020 A 
ATOM     12  N   LIG    1        6.278   3.304   4.152  0.00  0.00    -0.280 N 
ATOM     13  N   LIG    1        7.081   3.689   5.085  0.00  0.00    -0.250 NA
ATOM     14  C   LIG    1        5.149   4.084   3.636  0.00  0.00    +0.370 C 
ATOM     15  C   LIG    1       10.506  -0.615   5.628  0.00  0.00    +0.060 C 
ATOM     16  C   LIG    1        7.983   2.785   5.317  0.00  0.00    -0.000 A 
ENDBRANCH   1  11
BRANCH   2  17
ATOM     17  C   LIG    1        4.147  -0.147   1.893  0.00  0.00    +0.260 C 
ATOM     18  C   LIG    1        2.656  -0.373   2.181  0.00  0.00    +0.210 C 
ATOM     19  N   LIG    1        2.801  -1.718   1.593  0.00  0.00    -0.420 N 
ATOM     20  C   LIG    1        4.221  -1.677   1.990  0.00  0.00    +0.180 C 
BRANCH  19  21
ATOM     21  C   LIG    1        2.103  -2.664   2.335  0.00  0.00    +0.270 A 
ATOM     22  C   LIG    1        2.118  -3.998   1.939  0.00  0.00    -0.020 A 
ATOM     23  C   LIG    1        1.415  -4.928   2.683  0.00  0.00    +0.080 A 
ATOM     24  C   LIG    1        0.727  -4.494   3.808  0.00  0.00    -0.040 A 
ATOM     25  C   LIG    1        0.756  -3.155   4.143  0.00  0.00    +0.280 A 
ATOM     26  N   LIG    1        1.431  -2.288   3.412  0.00  0.00    -0.510 NA
ENDBRANCH  19  21
ENDBRANCH   2  17
TORSDOF 3
