REMARK  Name = ZINCrH000004ssOe.0
REMARK                            x       y       z     vdW  Elec       q    Type
REMARK                         _______ _______ _______ _____ _____    ______ ____
ROOT
ATOM      1  C   LIG    1       -1.433  -4.884   2.348  0.00  0.00    +0.160 A 
ATOM      2  C   LIG    1       -0.316  -5.585   2.785  0.00  0.00    -0.080 A 
ATOM      3  C   LIG    1       -0.469  -6.734   3.530  0.00  0.00    +0.090 A 
ATOM      4  C   LIG    1       -1.750  -7.200   3.836  0.00  0.00    -0.180 A 
ATOM      5  C   LIG    1       -2.871  -6.495   3.390  0.00  0.00    +0.140 A 
ATOM      6  C   LIG    1       -2.710  -5.344   2.651  0.00  0.00    -0.010 A 
ENDROOT
BRANCH   4   7
ATOM      7  C   LIG    1       -1.919  -8.433   4.628  0.00  0.00    +0.570 C 
ATOM      8  N   LIG    1       -0.836  -9.112   5.057  0.00  0.00    -0.660 N 
ATOM      9  H   LIG    1        0.052  -8.828   4.789  0.00  0.00    +0.410 HD
ATOM     10  O   LIG    1       -3.034  -8.838   4.893  0.00  0.00    -0.520 OA
BRANCH   8  11
ATOM     11  C   LIG    1       -0.993 -10.225   5.889  0.00  0.00    +0.080 A 
ATOM     12  C   LIG    1       -2.078 -11.065   5.728  0.00  0.00    +0.100 A 
ATOM     13  C   LIG    1       -2.191 -12.172   6.590  0.00  0.00    -0.080 A 
ATOM     14  C   LIG    1       -3.265 -13.070   6.486  0.00  0.00    +0.030 A 
ATOM     15  C   LIG    1       -3.341 -14.130   7.338  0.00  0.00    +0.020 A 
ATOM     16  C   LIG    1       -2.366 -14.335   8.312  0.00  0.00    +0.030 A 
ATOM     17  C   LIG    1       -1.312 -13.483   8.440  0.00  0.00    +0.050 A 
ATOM     18  C   LIG    1       -1.198 -12.378   7.579  0.00  0.00    +0.110 A 
ATOM     19  N   LIG    1       -0.172 -11.528   7.686  0.00  0.00    -0.450 NA
ATOM     20  C   LIG    1       -0.049 -10.497   6.887  0.00  0.00    +0.280 A 
ENDBRANCH   8  11
ENDBRANCH   4   7
BRANCH   1  21
ATOM     21  O   LIG    1       -1.278  -3.750   1.618  0.00  0.00    -0.300 OA
BRANCH  21  22
ATOM     22  C   LIG    1        0.061  -3.334   1.343  0.00  0.00    +0.350 C 
BRANCH  22  26
ATOM     23  C   LIG    1       -0.012   1.478  -0.040  0.00  0.00    +0.250 C 
ATOM     24  C   LIG    1        0.005  -0.029  -0.042  0.00  0.00    +0.190 A 
ATOM     25  N   LIG    1        0.027  -0.811   1.011  0.00  0.00    -0.470 NA
ATOM     26  C   LIG    1        0.035  -2.066   0.529  0.00  0.00    +0.160 A 
ATOM     27  N   LIG    1        0.018  -1.986  -0.768  0.00  0.00    -0.360 NA
ATOM     28  O   LIG    1       -0.006  -0.824  -1.116  0.00  0.00    +0.090 OA
ENDBRANCH  22  26
ENDBRANCH  21  22
ENDBRANCH   1  21
TORSDOF 5
