REMARK  Name = ZINCtV00001bB3Gu.0
REMARK                            x       y       z     vdW  Elec       q    Type
REMARK                         _______ _______ _______ _____ _____    ______ ____
ROOT
ATOM      1  C   LIG    1       -0.663   3.696  -0.174  0.00  0.00    +0.100 A 
ATOM      2  C   LIG    1        0.467   3.066  -0.709  0.00  0.00    +0.020 A 
ATOM      3  C   LIG    1        0.630   1.720  -0.565  0.00  0.00    +0.080 A 
ATOM      4  C   LIG    1       -0.335   0.966   0.119  0.00  0.00    -0.070 A 
ATOM      5  C   LIG    1       -1.468   1.597   0.651  0.00  0.00    +0.040 A 
ATOM      6  C   LIG    1       -1.627   2.945   0.510  0.00  0.00    -0.040 A 
ENDROOT
BRANCH   4   7
ATOM      7  C   LIG    1       -0.161  -0.482   0.275  0.00  0.00    +0.120 C 
ATOM      8  C   LIG    1        1.044  -0.985   0.643  0.00  0.00    -0.200 C 
ATOM      9  C   LIG    1        1.991  -0.118   1.196  0.00  0.00    +0.390 C 
ATOM     10  C   LIG    1        3.360  -0.573   1.615  0.00  0.00    -0.020 C 
ATOM     11  C   LIG    1        3.387  -2.096   1.758  0.00  0.00    +0.030 C 
ATOM     12  C   LIG    1        2.812  -2.722   0.483  0.00  0.00    +0.020 C 
ATOM     13  O   LIG    1        1.694   1.050   1.347  0.00  0.00    -0.450 OA
ATOM     14  C   LIG    1        1.308  -2.449   0.434  0.00  0.00    +0.030 C 
ATOM     15  C   LIG    1        0.610  -3.252   1.532  0.00  0.00    +0.030 C 
BRANCH  10  16
ATOM     16  C   LIG    1        3.724   0.069   2.955  0.00  0.00    +0.000 C 
ATOM     17  C   LIG    1        5.121  -0.389   3.378  0.00  0.00    +0.030 C 
ATOM     18  C   LIG    1        2.706  -0.354   4.016  0.00  0.00    +0.020 C 
ENDBRANCH  10  16
ENDBRANCH   4   7
BRANCH   1  20
ATOM     19  C   LIG    1       -1.985   5.527  -0.672  0.00  0.00    +0.320 C 
ATOM     20  N   LIG    1       -0.825   5.043  -0.318  0.00  0.00    -0.490 NA
BRANCH  19  24
ATOM     21  C   LIG    1       -2.490   9.714  -1.120  0.00  0.00    +0.150 A 
ATOM     22  C   LIG    1       -3.561   8.859  -1.350  0.00  0.00    -0.020 A 
ATOM     23  C   LIG    1       -3.403   7.499  -1.206  0.00  0.00    +0.100 A 
ATOM     24  C   LIG    1       -2.160   6.978  -0.827  0.00  0.00    -0.120 A 
ATOM     25  C   LIG    1       -1.086   7.844  -0.592  0.00  0.00    +0.110 A 
ATOM     26  C   LIG    1       -1.253   9.202  -0.744  0.00  0.00    -0.090 A 
BRANCH  21  27
ATOM     27  O   LIG    1       -2.651  11.054  -1.264  0.00  0.00    -0.310 OA
BRANCH  27  29
ATOM     28  C   LIG    1       -1.882  13.345  -1.222  0.00  0.00    +0.070 C 
ATOM     29  C   LIG    1       -1.509  11.876  -1.012  0.00  0.00    +0.170 C 
ENDBRANCH  27  29
ENDBRANCH  21  27
ENDBRANCH  19  24
ENDBRANCH   1  20
TORSDOF 6
