REMARK  Name = ZINCpk00000xIJHK.2
REMARK                            x       y       z     vdW  Elec       q    Type
REMARK                         _______ _______ _______ _____ _____    ______ ____
ROOT
ATOM      1  O   LIG    1        4.556   3.135  -2.524  0.00  0.00    -0.510 OA
ATOM      2  C   LIG    1        4.574   3.131  -1.309  0.00  0.00    +0.600 C 
ATOM      3  N   LIG    1        5.679   3.532  -0.650  0.00  0.00    -0.710 N 
ATOM      4  H   LIG    1        5.694   3.529   0.320  0.00  0.00    +0.410 HD
ENDROOT
BRANCH   2   5
ATOM      5  C   LIG    1        3.380   2.683  -0.551  0.00  0.00    -0.030 A 
ATOM      6  N   LIG    1        3.251   2.624   0.751  0.00  0.00    -0.320 NA
ATOM      7  O   LIG    1        2.158   2.217   1.068  0.00  0.00    +0.140 OA
ATOM      8  C   LIG    1        1.397   1.946  -0.001  0.00  0.00    -0.040 A 
ATOM      9  C   LIG    1        2.146   2.227  -1.092  0.00  0.00    +0.040 A 
BRANCH   8  10
ATOM     10  C   LIG    1       -0.017   1.425   0.010  0.00  0.00    +0.330 C 
BRANCH  10  11
ATOM     11  O   LIG    1        0.002  -0.004   0.002  0.00  0.00    -0.310 OA
BRANCH  11  12
ATOM     12  C   LIG    1       -1.200  -0.637   0.010  0.00  0.00    +0.130 A 
ATOM     13  C   LIG    1       -2.374   0.101   0.031  0.00  0.00    -0.080 A 
ATOM     14  C   LIG    1       -3.595  -0.545   0.034  0.00  0.00    +0.050 A 
ATOM     15  C   LIG    1       -3.648  -1.927   0.026  0.00  0.00    -0.020 A 
ATOM     16  C   LIG    1       -2.479  -2.665   0.011  0.00  0.00    +0.050 A 
ATOM     17  C   LIG    1       -1.255  -2.024   0.003  0.00  0.00    -0.020 A 
ENDBRANCH  11  12
ENDBRANCH  10  11
ENDBRANCH   8  10
ENDBRANCH   2   5
BRANCH   3  18
ATOM     18  C   LIG    1        6.859   3.974  -1.398  0.00  0.00    +0.280 C 
BRANCH  18  19
ATOM     19  C   LIG    1        7.965   4.372  -0.419  0.00  0.00    +0.190 C 
BRANCH  19  20
ATOM     20  N   LIG    1        9.147   4.815  -1.169  0.00  0.00    -0.530 NA
ATOM     21  C   LIG    1        8.770   5.733  -2.252  0.00  0.00    +0.170 C 
ATOM     22  C   LIG    1       10.002   6.058  -3.099  0.00  0.00    +0.030 C 
ATOM     23  C   LIG    1       11.073   6.699  -2.211  0.00  0.00    -0.020 C 
ATOM     24  C   LIG    1       11.412   5.742  -1.064  0.00  0.00    +0.180 C 
ATOM     25  C   LIG    1       10.139   5.427  -0.276  0.00  0.00    +0.180 C 
BRANCH  24  26
ATOM     26  O   LIG    1       12.370   6.356  -0.199  0.00  0.00    -0.570 OA
ATOM     27  H   LIG    1       13.203   6.584  -0.633  0.00  0.00    +0.380 HD
ENDBRANCH  24  26
ENDBRANCH  19  20
ENDBRANCH  18  19
ENDBRANCH   3  18
TORSDOF 8
