REMARK  Name = ZINCvU0000000F5y.0
REMARK                            x       y       z     vdW  Elec       q    Type
REMARK                         _______ _______ _______ _____ _____    ______ ____
ROOT
ATOM      1  C   LIG    1        0.067   4.270   0.037  0.00  0.00    +0.010 C 
ATOM      2  C   LIG    1       -0.672   3.938  -1.260  0.00  0.00    +0.090 C 
ENDROOT
BRANCH   1   3
ATOM      3  C   LIG    1        0.225   5.764   0.157  0.00  0.00    +0.540 C 
ATOM      4  N   LIG    1       -0.768   6.507   0.684  0.00  0.00    -0.660 N 
ATOM      5  H   LIG    1       -1.615   6.092   0.912  0.00  0.00    +0.410 HD
ATOM      6  O   LIG    1        1.246   6.298  -0.222  0.00  0.00    -0.500 OA
BRANCH   4   7
ATOM      7  C   LIG    1       -0.579   7.874   0.901  0.00  0.00    +0.160 A 
ATOM      8  C   LIG    1        0.700   8.380   1.079  0.00  0.00    +0.020 A 
ATOM      9  C   LIG    1        0.886   9.733   1.289  0.00  0.00    +0.040 A 
ATOM     10  C   LIG    1       -0.201  10.589   1.333  0.00  0.00    +0.000 A 
ATOM     11  C   LIG    1       -1.480  10.099   1.163  0.00  0.00    +0.040 A 
ATOM     12  C   LIG    1       -1.680   8.738   0.945  0.00  0.00    -0.080 A 
BRANCH  12  13
ATOM     13  C   LIG    1       -3.052   8.206   0.761  0.00  0.00    -0.050 A 
ATOM     14  C   LIG    1       -3.343   7.381  -0.324  0.00  0.00    +0.010 A 
ATOM     15  C   LIG    1       -4.620   6.886  -0.487  0.00  0.00    +0.010 A 
ATOM     16  C   LIG    1       -5.614   7.214   0.418  0.00  0.00    +0.000 A 
ATOM     17  C   LIG    1       -5.332   8.037   1.494  0.00  0.00    +0.010 A 
ATOM     18  C   LIG    1       -4.057   8.534   1.670  0.00  0.00    +0.030 A 
ENDBRANCH  12  13
ENDBRANCH   4   7
ENDBRANCH   1   3
BRANCH   1  19
ATOM     19  S   LIG    1        1.701   3.491   0.018  0.00  0.00    +0.060 S 
BRANCH  19  24
ATOM     20  N   LIG    1        2.082   0.728   0.018  0.00  0.00    -0.390 N 
ATOM     21  C   LIG    1        1.303  -0.409   0.030  0.00  0.00    +0.140 A 
ATOM     22  C   LIG    1        0.021  -0.006   0.045  0.00  0.00    +0.170 A 
ATOM     23  N   LIG    1       -0.002   1.337   0.043  0.00  0.00    -0.480 NA
ATOM     24  C   LIG    1        1.230   1.793   0.027  0.00  0.00    +0.180 A 
BRANCH  20  28
ATOM     25  C   LIG    1        6.250   0.884  -0.032  0.00  0.00    +0.140 A 
ATOM     26  C   LIG    1        5.597   0.088   0.898  0.00  0.00    +0.000 A 
ATOM     27  C   LIG    1        4.218   0.037   0.915  0.00  0.00    +0.070 A 
ATOM     28  C   LIG    1        3.484   0.781   0.002  0.00  0.00    +0.070 A 
ATOM     29  C   LIG    1        4.138   1.572  -0.933  0.00  0.00    +0.070 A 
ATOM     30  C   LIG    1        5.518   1.628  -0.945  0.00  0.00    -0.050 A 
BRANCH  25  32
ATOM     31  C   LIG    1        8.215   1.775  -1.032  0.00  0.00    +0.250 C 
ATOM     32  O   LIG    1        7.609   0.935  -0.048  0.00  0.00    -0.310 OA
ENDBRANCH  25  32
ENDBRANCH  20  28
ENDBRANCH  19  24
ENDBRANCH   1  19
TORSDOF 7
