REMARK  Name = ZINCtV00000L6jMI.0
REMARK                            x       y       z     vdW  Elec       q    Type
REMARK                         _______ _______ _______ _____ _____    ______ ____
ROOT
ATOM      1  N   LIG    1       -0.078   5.901   0.034  0.00  0.00    -0.410 N 
ATOM      2  C   LIG    1       -0.546   6.718   1.030  0.00  0.00    +0.190 A 
ATOM      3  N   LIG    1       -0.375   7.947   0.634  0.00  0.00    -0.250 NA
ATOM      4  N   LIG    1        0.157   7.967  -0.536  0.00  0.00    -0.280 NA
ATOM      5  C   LIG    1        0.361   6.739  -0.954  0.00  0.00    +0.170 A 
ENDROOT
BRANCH   1  10
ATOM      6 CL   LIG    1        0.002  -0.004   0.002  0.00  0.00    -0.050 Cl
ATOM      7  C   LIG    1       -0.021   1.732   0.012  0.00  0.00    -0.020 A 
ATOM      8  C   LIG    1       -1.230   2.406   0.021  0.00  0.00    +0.060 A 
ATOM      9  C   LIG    1       -1.251   3.787   0.034  0.00  0.00    +0.050 A 
ATOM     10  C   LIG    1       -0.059   4.499   0.027  0.00  0.00    +0.100 A 
ATOM     11  C   LIG    1        1.152   3.820   0.012  0.00  0.00    +0.060 A 
ATOM     12  C   LIG    1        1.168   2.439   0.004  0.00  0.00    +0.060 A 
ENDBRANCH   1  10
BRANCH   2  13
ATOM     13  C   LIG    1       -1.144   6.275   2.340  0.00  0.00    +0.340 C 
BRANCH  13  14
ATOM     14  O   LIG    1       -0.109   6.150   3.318  0.00  0.00    -0.310 OA
BRANCH  14  15
ATOM     15  C   LIG    1       -0.482   5.757   4.564  0.00  0.00    +0.130 A 
ATOM     16  C   LIG    1       -1.817   5.502   4.842  0.00  0.00    -0.080 A 
ATOM     17  C   LIG    1       -2.193   5.097   6.108  0.00  0.00    +0.050 A 
ATOM     18  C   LIG    1       -1.241   4.956   7.101  0.00  0.00    -0.020 A 
ATOM     19  C   LIG    1        0.089   5.214   6.828  0.00  0.00    +0.050 A 
ATOM     20  C   LIG    1        0.471   5.614   5.562  0.00  0.00    -0.020 A 
ENDBRANCH  14  15
ENDBRANCH  13  14
ENDBRANCH   2  13
BRANCH   5  21
ATOM     21  S   LIG    1        1.068   6.261  -2.496  0.00  0.00    +0.030 S 
BRANCH  21  22
ATOM     22  C   LIG    1        1.377   7.892  -3.218  0.00  0.00    +0.150 C 
BRANCH  22  23
ATOM     23  C   LIG    1        1.999   7.727  -4.581  0.00  0.00    -0.080 A 
ATOM     24  C   LIG    1        1.195   7.639  -5.702  0.00  0.00    +0.050 A 
ATOM     25  C   LIG    1        1.765   7.488  -6.952  0.00  0.00    +0.020 A 
ATOM     26  C   LIG    1        3.140   7.425  -7.082  0.00  0.00    +0.040 A 
ATOM     27  C   LIG    1        3.945   7.513  -5.962  0.00  0.00    +0.030 A 
ATOM     28  C   LIG    1        3.376   7.671  -4.712  0.00  0.00    -0.020 A 
ATOM     29 CL   LIG    1        4.386   7.790  -3.305  0.00  0.00    -0.060 Cl
ENDBRANCH  22  23
ENDBRANCH  21  22
ENDBRANCH   5  21
TORSDOF 7
