REMARK  Name = ZINCkj000005jSTZ.0
REMARK                            x       y       z     vdW  Elec       q    Type
REMARK                         _______ _______ _______ _____ _____    ______ ____
ROOT
ATOM      1  C   LIG    1       -2.392  -0.484  -0.712  0.00  0.00    +0.600 C 
ATOM      2  N   LIG    1       -2.766   0.811  -0.703  0.00  0.00    -0.740 N 
ATOM      3  H   LIG    1       -2.115   1.502  -0.503  0.00  0.00    +0.400 HD
ATOM      4  O   LIG    1       -3.185  -1.344  -1.048  0.00  0.00    -0.520 OA
ENDROOT
BRANCH   1  10
ATOM      5  C   LIG    1        3.624   1.943   1.147  0.00  0.00    +0.040 C 
ATOM      6  C   LIG    1        2.251   1.279   1.025  0.00  0.00    -0.020 C 
ATOM      7  C   LIG    1        1.445   1.966  -0.081  0.00  0.00    +0.050 C 
ATOM      8  C   LIG    1       -0.002   1.461  -0.048  0.00  0.00    +0.270 C 
ATOM      9  N   LIG    1        0.010  -0.003  -0.027  0.00  0.00    -0.450 N 
ATOM     10  C   LIG    1       -1.029  -0.857  -0.316  0.00  0.00    -0.110 A 
ATOM     11  C   LIG    1       -0.536  -2.124  -0.161  0.00  0.00    +0.270 A 
ATOM     12  N   LIG    1        0.743  -2.023   0.205  0.00  0.00    -0.490 NA
ATOM     13  C   LIG    1        1.079  -0.764   0.289  0.00  0.00    +0.250 A 
ATOM     14  C   LIG    1        2.428  -0.204   0.673  0.00  0.00    +0.170 C 
ENDBRANCH   1  10
BRANCH   2  15
ATOM     15  C   LIG    1       -4.155   1.174  -0.995  0.00  0.00    +0.280 C 
BRANCH  15  16
ATOM     16  C   LIG    1       -4.311   2.695  -0.920  0.00  0.00    +0.000 C 
ATOM     17  C   LIG    1       -3.509   3.363  -2.050  0.00  0.00    +0.040 C 
ATOM     18  C   LIG    1       -4.526   4.138  -2.914  0.00  0.00    +0.050 C 
ATOM     19  C   LIG    1       -5.716   4.397  -1.957  0.00  0.00    +0.170 C 
ATOM     20  C   LIG    1       -5.787   3.086  -1.136  0.00  0.00    +0.060 C 
BRANCH  19  21
ATOM     21  N   LIG    1       -6.957   4.604  -2.716  0.00  0.00    -0.630 N 
ATOM     22  H   LIG    1       -6.858   5.415  -3.308  0.00  0.00    +0.440 HD
ATOM     23  H   LIG    1       -7.723   4.747  -2.074  0.00  0.00    +0.440 HD
ATOM     24  H   LIG    1       -7.143   3.792  -3.285  0.00  0.00    +0.430 HD
ENDBRANCH  19  21
ENDBRANCH  15  16
ENDBRANCH   2  15
TORSDOF 4
