REMARK  Name = ZINCrD000000B5UJ.0
REMARK                            x       y       z     vdW  Elec       q    Type
REMARK                         _______ _______ _______ _____ _____    ______ ____
ROOT
ATOM      1  O   LIG    1       -3.677   4.519  -4.064  0.00  0.00    -0.580 OA
ATOM      2  C   LIG    1       -3.774   3.385  -3.634  0.00  0.00    +0.710 C 
ATOM      3  N   LIG    1       -3.055   3.008  -2.559  0.00  0.00    -0.630 N 
ATOM      4  C   LIG    1       -2.068   3.920  -1.962  0.00  0.00    +0.290 C 
ATOM      5  C   LIG    1       -0.710   3.208  -1.912  0.00  0.00    +0.300 C 
ATOM      6  N   LIG    1       -0.898   1.878  -1.315  0.00  0.00    -0.990 NA
ATOM      7  C   LIG    1       -1.881   0.965  -1.916  0.00  0.00    +0.300 C 
ATOM      8  C   LIG    1       -3.243   1.679  -1.962  0.00  0.00    +0.270 C 
ATOM      9  N   LIG    1       -4.600   2.506  -4.234  0.00  0.00    -0.750 N 
ATOM     10  H   LIG    1       -4.734   1.625  -3.849  0.00  0.00    +0.400 HD
ENDROOT
BRANCH   6  11
ATOM     11  S   LIG    1       -0.014   1.415   0.006  0.00  0.00    +2.690 S 
ATOM     12  O   LIG    1        1.165   2.208  -0.002  0.00  0.00    -0.930 OA
ATOM     13  O   LIG    1        0.004  -0.006  -0.002  0.00  0.00    -0.940 OA
BRANCH  11  14
ATOM     14  C   LIG    1       -0.925   1.893   1.437  0.00  0.00    -0.670 A 
ATOM     15  C   LIG    1       -1.422   0.928   2.293  0.00  0.00    +0.150 A 
ATOM     16  C   LIG    1       -2.136   1.302   3.416  0.00  0.00    +0.030 A 
ATOM     17  C   LIG    1       -2.354   2.641   3.684  0.00  0.00    +0.110 A 
ATOM     18  C   LIG    1       -1.857   3.607   2.827  0.00  0.00    -0.050 A 
ATOM     19 CL   LIG    1       -2.131   5.288   3.163  0.00  0.00    -0.030 Cl
ATOM     20  C   LIG    1       -1.138   3.233   1.706  0.00  0.00    +0.050 A 
ATOM     21 CL   LIG    1       -0.507   4.444   0.634  0.00  0.00    -0.020 Cl
ENDBRANCH  11  14
ENDBRANCH   6  11
BRANCH   9  22
ATOM     22  C   LIG    1       -5.297   2.879  -5.468  0.00  0.00    +0.280 C 
BRANCH  22  23
ATOM     23  C   LIG    1       -6.165   1.710  -5.937  0.00  0.00    +0.110 C 
BRANCH  23  24
ATOM     24  C   LIG    1       -6.881   2.094  -7.206  0.00  0.00    -0.180 A 
ATOM     25  C   LIG    1       -6.413   1.907  -8.441  0.00  0.00    +0.010 A 
ATOM     26  C   LIG    1       -7.250   2.341  -9.454  0.00  0.00    +0.000 A 
ATOM     27  C   LIG    1       -8.398   2.880  -9.043  0.00  0.00    -0.040 A 
ATOM     28  S   LIG    1       -8.467   2.851  -7.285  0.00  0.00    +0.100 S 
ENDBRANCH  23  24
ENDBRANCH  22  23
ENDBRANCH   9  22
TORSDOF 5
