REMARK  Name = ZINCrH00000tj1ho.0
REMARK                            x       y       z     vdW  Elec       q    Type
REMARK                         _______ _______ _______ _____ _____    ______ ____
ROOT
ATOM      1  C   LIG    1       -0.697   2.534   1.127  0.00  0.00    +0.330 C 
ATOM      2  N   LIG    1       -1.916   3.127   0.571  0.00  0.00    -0.550 N 
ATOM      3  C   LIG    1       -3.107   2.779   1.080  0.00  0.00    +0.590 C 
ATOM      4  N   LIG    1       -4.264   3.273   0.614  0.00  0.00    -0.570 N 
ATOM      5  C   LIG    1       -4.292   4.242  -0.483  0.00  0.00    +0.320 C 
ATOM      6  C   LIG    1       -3.076   4.013  -1.388  0.00  0.00    -0.010 C 
ATOM      7  C   LIG    1       -5.526   2.834   1.216  0.00  0.00    +0.340 C 
ATOM      8  S   LIG    1       -3.153   1.661   2.375  0.00  0.00    -0.620 S 
ATOM      9  C   LIG    1       -1.809   4.087  -0.529  0.00  0.00    +0.320 C 
ENDROOT
BRANCH   9  10
ATOM     10  C   LIG    1       -0.607   3.752  -1.375  0.00  0.00    -0.120 A 
ATOM     11  C   LIG    1       -0.409   2.456  -1.811  0.00  0.00    +0.020 A 
ATOM     12  C   LIG    1        0.696   2.147  -2.583  0.00  0.00    +0.020 A 
ATOM     13  C   LIG    1        1.597   3.138  -2.926  0.00  0.00    +0.030 A 
ATOM     14  C   LIG    1        1.396   4.435  -2.493  0.00  0.00    +0.010 A 
ATOM     15  C   LIG    1        0.294   4.742  -1.718  0.00  0.00    +0.040 A 
ENDBRANCH   9  10
BRANCH   5  16
ATOM     16  C   LIG    1       -5.575   4.058  -1.295  0.00  0.00    +0.430 C 
ATOM     17  F   LIG    1       -5.615   2.761  -1.818  0.00  0.00    -0.160 F 
ATOM     18  F   LIG    1       -5.601   4.985  -2.343  0.00  0.00    -0.160 F 
ATOM     19  F   LIG    1       -6.684   4.261  -0.466  0.00  0.00    -0.170 F 
ENDBRANCH   5  16
BRANCH   6  20
ATOM     20  C   LIG    1       -3.173   2.654  -2.031  0.00  0.00    +0.430 C 
ATOM     21  O   LIG    1       -3.486   1.688  -1.365  0.00  0.00    -0.410 OA
BRANCH  20  22
ATOM     22  C   LIG    1       -2.901   2.504  -3.408  0.00  0.00    -0.310 A 
ATOM     23  C   LIG    1       -2.949   1.323  -4.105  0.00  0.00    +0.130 A 
ATOM     24  C   LIG    1       -2.641   1.466  -5.435  0.00  0.00    -0.010 A 
ATOM     25  C   LIG    1       -2.340   2.714  -5.819  0.00  0.00    -0.040 A 
ATOM     26  S   LIG    1       -2.437   3.798  -4.504  0.00  0.00    +0.230 S 
ENDBRANCH  20  22
ENDBRANCH   6  20
BRANCH   5  27
ATOM     27  O   LIG    1       -4.248   5.567   0.050  0.00  0.00    -0.520 OA
ATOM     28  H   LIG    1       -4.986   5.780   0.636  0.00  0.00    +0.400 HD
ENDBRANCH   5  27
TORSDOF 5
