REMARK  Name = ZINCc70000006kRQ.0
REMARK                            x       y       z     vdW  Elec       q    Type
REMARK                         _______ _______ _______ _____ _____    ______ ____
ROOT
ATOM      1  C   LIG    1        0.002  -0.004   0.002  0.00  0.00    +0.050 A 
ATOM      2  C   LIG    1       -0.017   1.362   0.009  0.00  0.00    +0.200 A 
ATOM      3  N   LIG    1        1.133   2.034   0.002  0.00  0.00    -0.510 NA
ATOM      4  C   LIG    1        2.304   1.437  -0.010  0.00  0.00    +0.340 A 
ATOM      5  C   LIG    1        3.519   2.332  -0.040  0.00  0.00    +0.150 C 
ATOM      6  C   LIG    1        4.766   1.558   0.381  0.00  0.00    +0.030 C 
ATOM      7  C   LIG    1        4.815   0.257  -0.430  0.00  0.00    +0.030 C 
ATOM      8  C   LIG    1        3.661  -0.632   0.025  0.00  0.00    +0.280 C 
ATOM      9  N   LIG    1        2.392   0.096  -0.000  0.00  0.00    -0.500 N 
ATOM     10  C   LIG    1        1.258  -0.652  -0.007  0.00  0.00    +0.500 A 
ATOM     11  O   LIG    1        1.323  -1.871  -0.020  0.00  0.00    -0.540 OA
ENDROOT
BRANCH   1  12
ATOM     12  N   LIG    1       -1.190  -0.741   0.003  0.00  0.00    -0.850 N 
ATOM     13  H   LIG    1       -1.160  -1.711  -0.002  0.00  0.00    +0.410 HD
ATOM     14  H   LIG    1       -2.044  -0.282   0.010  0.00  0.00    +0.410 HD
ENDBRANCH   1  12
TORSDOF 1
