REMARK  Name = ZINCqH0000004mSB.0
REMARK                            x       y       z     vdW  Elec       q    Type
REMARK                         _______ _______ _______ _____ _____    ______ ____
ROOT
ATOM      1  N   LIG    1        4.769  -0.020  -2.654  0.00  0.00    -0.720 N 
ATOM      2  H   LIG    1        4.333   0.214  -3.488  0.00  0.00    +0.400 HD
ATOM      3  C   LIG    1        4.186   0.293  -1.479  0.00  0.00    +0.520 C 
ATOM      4  O   LIG    1        4.731   0.000  -0.435  0.00  0.00    -0.530 OA
ENDROOT
BRANCH   1   5
ATOM      5  C   LIG    1        6.059  -0.713  -2.670  0.00  0.00    +0.290 C 
BRANCH   5   6
ATOM      6  C   LIG    1        6.774  -0.414  -3.963  0.00  0.00    -0.090 A 
ATOM      7  C   LIG    1        6.066  -0.371  -5.149  0.00  0.00    +0.030 A 
ATOM      8  C   LIG    1        6.719  -0.093  -6.335  0.00  0.00    +0.030 A 
ATOM      9  C   LIG    1        8.084   0.133  -6.335  0.00  0.00    -0.030 A 
ATOM     10  C   LIG    1        8.793   0.085  -5.148  0.00  0.00    +0.040 A 
ATOM     11 CL   LIG    1        8.907   0.476  -7.825  0.00  0.00    -0.070 Cl
ATOM     12  C   LIG    1        8.138  -0.189  -3.962  0.00  0.00    +0.050 A 
ENDBRANCH   5   6
BRANCH   5  14
ATOM     13  C   LIG    1        5.218  -2.536  -1.184  0.00  0.00    +0.020 C 
ATOM     14  C   LIG    1        5.830  -2.220  -2.550  0.00  0.00    +0.010 C 
ENDBRANCH   5  14
ENDBRANCH   1   5
BRANCH   3  15
ATOM     15  C   LIG    1        2.859   1.006  -1.462  0.00  0.00    +0.040 C 
BRANCH  15  16
ATOM     16  C   LIG    1        2.423   1.239  -0.015  0.00  0.00    +0.330 C 
BRANCH  16  17
ATOM     17  N   LIG    1        1.132   1.932   0.002  0.00  0.00    -0.550 N 
ATOM     18  C   LIG    1        1.098   3.290   0.009  0.00  0.00    +0.570 A 
ATOM     19  N   LIG    1       -0.005   3.976   0.023  0.00  0.00    -0.520 NA
ATOM     20  C   LIG    1       -1.219   3.371   0.032  0.00  0.00    +0.150 A 
ATOM     21  C   LIG    1       -2.404   4.108   0.047  0.00  0.00    +0.030 A 
ATOM     22  C   LIG    1       -3.615   3.452   0.056  0.00  0.00    +0.070 A 
ATOM     23  C   LIG    1       -3.673   2.065   0.050  0.00  0.00    -0.010 A 
ATOM     24  C   LIG    1       -2.516   1.316   0.035  0.00  0.00    +0.100 A 
ATOM     25  C   LIG    1       -1.281   1.960   0.019  0.00  0.00    -0.200 A 
ATOM     26  C   LIG    1       -0.014   1.213   0.009  0.00  0.00    +0.550 A 
ATOM     27  O   LIG    1        0.002  -0.004   0.002  0.00  0.00    -0.510 OA
ENDBRANCH  16  17
ENDBRANCH  15  16
ENDBRANCH   3  15
TORSDOF 6
