REMARK  Name = ZINCqH0000003QFq.0
REMARK                            x       y       z     vdW  Elec       q    Type
REMARK                         _______ _______ _______ _____ _____    ______ ____
ROOT
ATOM      1  C   LIG    1        4.859   4.242  -0.238  0.00  0.00    +0.360 C 
ENDROOT
BRANCH   1   2
ATOM      2  N   LIG    1        4.572   5.676  -0.325  0.00  0.00    -0.530 N 
ATOM      3  C   LIG    1        4.384   6.253  -1.542  0.00  0.00    +0.610 A 
ATOM      4  N   LIG    1        4.121   7.514  -1.701  0.00  0.00    -0.510 NA
ATOM      5  C   LIG    1        4.025   8.360  -0.644  0.00  0.00    +0.170 A 
ATOM      6  C   LIG    1        3.747   9.718  -0.816  0.00  0.00    -0.020 A 
ATOM      7  C   LIG    1        3.659  10.541   0.286  0.00  0.00    +0.100 A 
ATOM      8  C   LIG    1        3.843  10.036   1.567  0.00  0.00    -0.050 A 
ATOM      9  C   LIG    1        4.117   8.698   1.761  0.00  0.00    +0.130 A 
ATOM     10 CL   LIG    1        3.725  11.098   2.936  0.00  0.00    -0.040 Cl
ATOM     11 CL   LIG    1        3.516  10.366  -2.409  0.00  0.00    -0.020 Cl
ATOM     12  C   LIG    1        4.211   7.850   0.660  0.00  0.00    -0.170 A 
ATOM     13  C   LIG    1        4.502   6.416   0.806  0.00  0.00    +0.560 A 
ATOM     14  O   LIG    1        4.673   5.914   1.901  0.00  0.00    -0.490 OA
ENDBRANCH   1   2
BRANCH   1  17
ATOM     15  N   LIG    1        3.584   2.134  -0.021  0.00  0.00    -0.650 N 
ATOM     16  H   LIG    1        4.430   1.664   0.049  0.00  0.00    +0.420 HD
ATOM     17  C   LIG    1        3.566   3.478  -0.116  0.00  0.00    +0.500 C 
ATOM     18  O   LIG    1        2.508   4.072  -0.103  0.00  0.00    -0.510 OA
BRANCH  15  24
ATOM     19  C   LIG    1        2.319   0.155   0.569  0.00  0.00    +0.100 A 
ATOM     20  C   LIG    1        1.128  -0.551   0.562  0.00  0.00    -0.060 A 
ATOM     21  C   LIG    1        0.004  -0.007  -0.032  0.00  0.00    +0.040 A 
ATOM     22  C   LIG    1        0.065   1.243  -0.620  0.00  0.00    +0.000 A 
ATOM     23  C   LIG    1        1.250   1.954  -0.617  0.00  0.00    +0.060 A 
ATOM     24  C   LIG    1        2.381   1.414  -0.024  0.00  0.00    +0.120 A 
BRANCH  19  25
ATOM     25  O   LIG    1        3.425  -0.380   1.152  0.00  0.00    -0.320 OA
BRANCH  25  27
ATOM     26  C   LIG    1        4.626  -2.107   2.341  0.00  0.00    +0.070 C 
ATOM     27  C   LIG    1        3.287  -1.675   1.739  0.00  0.00    +0.180 C 
ENDBRANCH  25  27
ENDBRANCH  19  25
ENDBRANCH  15  24
ENDBRANCH   1  17
TORSDOF 5
