REMARK  Name = ZINCxy0000000wKW.1
REMARK                            x       y       z     vdW  Elec       q    Type
REMARK                         _______ _______ _______ _____ _____    ______ ____
ROOT
ATOM      1  N   LIG    1        2.345   4.247   0.222  0.00  0.00    -1.100 NA
ATOM      2  C   LIG    1        1.185   3.562   0.271  0.00  0.00    +0.570 C 
ATOM      3  O   LIG    1        0.127   4.149   0.151  0.00  0.00    -0.630 OA
ENDROOT
BRANCH   2   4
ATOM      4  C   LIG    1        1.198   2.097   0.470  0.00  0.00    -0.050 A 
ATOM      5  C   LIG    1        2.411   1.420   0.606  0.00  0.00    -0.040 A 
ATOM      6  C   LIG    1        2.422   0.053   0.791  0.00  0.00    +0.000 A 
ATOM      7  C   LIG    1        1.234  -0.652   0.842  0.00  0.00    -0.170 A 
ATOM      8  C   LIG    1        0.020   0.013   0.706  0.00  0.00    +0.260 A 
ATOM      9  C   LIG    1       -0.001   1.386   0.520  0.00  0.00    -0.010 A 
BRANCH   8  10
ATOM     10  N   LIG    1       -1.178  -0.704   0.758  0.00  0.00    -1.090 NA
BRANCH  10  11
ATOM     11  S   LIG    1       -1.153  -2.345   0.981  0.00  0.00    +2.590 S 
ATOM     12  O   LIG    1       -0.649  -2.564   2.291  0.00  0.00    -1.040 OA
ATOM     13  O   LIG    1       -0.556  -2.898  -0.184  0.00  0.00    -1.040 OA
BRANCH  11  14
ATOM     14  C   LIG    1       -2.826  -2.895   0.993  0.00  0.00    -0.610 A 
ATOM     15  C   LIG    1       -3.525  -2.957   2.184  0.00  0.00    +0.120 A 
ATOM     16  C   LIG    1       -4.840  -3.385   2.192  0.00  0.00    -0.030 A 
ATOM     17  C   LIG    1       -5.452  -3.760   1.012  0.00  0.00    -0.060 A 
ATOM     18  C   LIG    1       -4.752  -3.703  -0.179  0.00  0.00    -0.030 A 
ATOM     19  C   LIG    1       -6.884  -4.231   1.022  0.00  0.00    +0.100 C 
ATOM     20  C   LIG    1       -3.439  -3.271  -0.188  0.00  0.00    +0.120 A 
ENDBRANCH  11  14
ENDBRANCH  10  11
ENDBRANCH   8  10
ENDBRANCH   2   4
BRANCH   1  21
ATOM     21  S   LIG    1        2.329   5.888  -0.000  0.00  0.00    +2.630 S 
ATOM     22  O   LIG    1        1.734   6.445   1.164  0.00  0.00    -1.020 OA
ATOM     23  O   LIG    1        1.828   6.110  -1.311  0.00  0.00    -1.020 OA
BRANCH  21  27
ATOM     24  C   LIG    1        6.639   7.279  -0.025  0.00  0.00    +0.170 A 
ATOM     25  C   LIG    1        6.022   6.904  -1.212  0.00  0.00    -0.020 A 
ATOM     26  C   LIG    1        4.707   6.480  -1.200  0.00  0.00    +0.140 A 
ATOM     27  C   LIG    1        4.006   6.428  -0.010  0.00  0.00    -0.620 A 
ATOM     28  C   LIG    1        4.616   6.806   1.172  0.00  0.00    +0.140 A 
ATOM     29  C   LIG    1        5.931   7.226   1.169  0.00  0.00    -0.040 A 
BRANCH  24  32
ATOM     30  C   LIG    1        9.914   8.749  -1.154  0.00  0.00    +0.100 C 
ATOM     31  C   LIG    1        8.452   8.389  -1.092  0.00  0.00    +0.500 C 
ATOM     32  N   LIG    1        7.970   7.709  -0.033  0.00  0.00    -0.670 N 
ATOM     33  H   LIG    1        8.546   7.518   0.724  0.00  0.00    +0.410 HD
ATOM     34  O   LIG    1        7.709   8.712  -1.995  0.00  0.00    -0.520 OA
ENDBRANCH  24  32
ENDBRANCH  21  27
ENDBRANCH   1  21
TORSDOF 7
