REMARK  Name = ZINCpk00000eaPEs.0
REMARK                            x       y       z     vdW  Elec       q    Type
REMARK                         _______ _______ _______ _____ _____    ______ ____
ROOT
ATOM      1  N   LIG    1       -1.156  -0.694   0.009  0.00  0.00    -0.710 N 
ATOM      2  H   LIG    1       -2.002  -0.220   0.020  0.00  0.00    +0.410 HD
ATOM      3  C   LIG    1        0.002  -0.004   0.002  0.00  0.00    +0.590 C 
ATOM      4  O   LIG    1        1.064  -0.598  -0.011  0.00  0.00    -0.540 OA
ENDROOT
BRANCH   3   5
ATOM      5  C   LIG    1       -0.018   1.466   0.010  0.00  0.00    -0.290 A 
ATOM      6  C   LIG    1        1.088   2.308   0.004  0.00  0.00    +0.360 A 
ATOM      7  N   LIG    1        0.626   3.573   0.015  0.00  0.00    -0.360 N 
ATOM      8  N   LIG    1       -0.773   3.534   0.028  0.00  0.00    -0.270 NA
ATOM      9  C   LIG    1        1.448   4.785   0.013  0.00  0.00    +0.360 C 
ATOM     10  C   LIG    1       -1.166   2.291   0.019  0.00  0.00    +0.300 A 
BRANCH   6  11
ATOM     11  N   LIG    1        2.422   1.917  -0.011  0.00  0.00    -0.390 N 
ATOM     12  C   LIG    1        2.976   0.939   0.768  0.00  0.00    +0.230 A 
ATOM     13  C   LIG    1        4.286   0.851   0.464  0.00  0.00    -0.060 A 
ATOM     14  C   LIG    1        4.557   1.813  -0.530  0.00  0.00    -0.030 A 
ATOM     15  C   LIG    1        3.401   2.451  -0.802  0.00  0.00    +0.120 A 
ENDBRANCH   6  11
ENDBRANCH   3   5
BRANCH   1  16
ATOM     16  C   LIG    1       -1.136  -2.159   0.001  0.00  0.00    +0.270 C 
BRANCH  16  17
ATOM     17  C   LIG    1       -2.571  -2.688   0.012  0.00  0.00    +0.160 C 
ATOM     18  C   LIG    1       -2.551  -4.214   0.130  0.00  0.00    +0.000 C 
BRANCH  17  22
ATOM     19  C   LIG    1       -2.815  -2.318   4.915  0.00  0.00    +0.050 C 
ATOM     20  C   LIG    1       -3.414  -1.850   3.586  0.00  0.00    +0.160 C 
ATOM     21  C   LIG    1       -2.666  -2.512   2.426  0.00  0.00    +0.160 C 
ATOM     22  N   LIG    1       -3.295  -2.119   1.157  0.00  0.00    -0.530 NA
ATOM     23  C   LIG    1       -4.711  -2.511   1.133  0.00  0.00    +0.160 C 
ATOM     24  C   LIG    1       -5.439  -1.849   2.306  0.00  0.00    +0.160 C 
ATOM     25  C   LIG    1       -6.895  -2.317   2.334  0.00  0.00    +0.050 C 
ATOM     26  O   LIG    1       -4.795  -2.218   3.529  0.00  0.00    -0.380 OA
ENDBRANCH  17  22
ENDBRANCH  16  17
ENDBRANCH   1  16
TORSDOF 5
