REMARK  Name = ZINCpk00000ebpJl.0
REMARK                            x       y       z     vdW  Elec       q    Type
REMARK                         _______ _______ _______ _____ _____    ______ ____
ROOT
ATOM      1  C   LIG    1        6.338   7.494  -0.018  0.00  0.00    +0.240 C 
ENDROOT
BRANCH   1   2
ATOM      2  O   LIG    1        5.773   7.956   1.211  0.00  0.00    -0.300 OA
BRANCH   2   6
ATOM      3  C   LIG    1        5.493  12.040   1.724  0.00  0.00    -0.720 A 
ATOM      4  C   LIG    1        5.050  11.188   2.718  0.00  0.00    +0.170 A 
ATOM      5  C   LIG    1        5.142   9.820   2.549  0.00  0.00    -0.030 A 
ATOM      6  C   LIG    1        5.681   9.302   1.380  0.00  0.00    +0.190 A 
ATOM      7  C   LIG    1        6.130  10.159   0.386  0.00  0.00    -0.090 A 
ATOM      8  C   LIG    1        6.030  11.526   0.558  0.00  0.00    +0.170 A 
BRANCH   3   9
ATOM      9  S   LIG    1        5.373  13.784   1.943  0.00  0.00    +2.710 S 
ATOM     10  O   LIG    1        4.340  13.999   2.894  0.00  0.00    -0.960 OA
ATOM     11  O   LIG    1        5.362  14.353   0.640  0.00  0.00    -0.960 OA
BRANCH   9  12
ATOM     12  N   LIG    1        6.780  14.286   2.659  0.00  0.00    -1.250 NA
ATOM     13  H   LIG    1        6.911  15.225   2.866  0.00  0.00    +0.420 HD
ATOM     14  H   LIG    1        7.472  13.641   2.873  0.00  0.00    +0.420 HD
ENDBRANCH   9  12
ENDBRANCH   3   9
ENDBRANCH   2   6
ENDBRANCH   1   2
BRANCH   1  15
ATOM     15  C   LIG    1        6.359   5.964  -0.026  0.00  0.00    +0.260 C 
BRANCH  15  16
ATOM     16  O   LIG    1        4.996   5.462  -0.016  0.00  0.00    -0.350 OA
BRANCH  16  17
ATOM     17  C   LIG    1        4.838   4.129  -0.021  0.00  0.00    +0.470 C 
ATOM     18  O   LIG    1        5.807   3.406  -0.034  0.00  0.00    -0.480 OA
BRANCH  17  19
ATOM     19  C   LIG    1        3.454   3.534  -0.012  0.00  0.00    +0.290 C 
BRANCH  19  20
ATOM     20  O   LIG    1        3.548   2.108  -0.020  0.00  0.00    -0.290 OA
BRANCH  20  21
ATOM     21  C   LIG    1        2.380   1.412  -0.013  0.00  0.00    +0.090 A 
ATOM     22  C   LIG    1        1.170   2.087   0.002  0.00  0.00    -0.040 A 
ATOM     23  C   LIG    1       -0.017   1.378   0.010  0.00  0.00    +0.050 A 
ATOM     24  C   LIG    1        0.002  -0.004   0.002  0.00  0.00    +0.020 A 
ATOM     25  C   LIG    1        1.208  -0.682  -0.013  0.00  0.00    +0.030 A 
ATOM     26  C   LIG    1        2.397   0.023  -0.020  0.00  0.00    +0.080 A 
ATOM     27  F   LIG    1        3.575  -0.639  -0.035  0.00  0.00    -0.130 F 
ENDBRANCH  20  21
ENDBRANCH  19  20
ENDBRANCH  17  19
ENDBRANCH  16  17
ENDBRANCH  15  16
ENDBRANCH   1  15
TORSDOF 10
