REMARK  Name = ZINCrH000004ncdH.0
REMARK                            x       y       z     vdW  Elec       q    Type
REMARK                         _______ _______ _______ _____ _____    ______ ____
ROOT
ATOM      1  C   LIG    1        2.359  -3.004  -2.637  0.00  0.00    +0.520 C 
ATOM      2  N   LIG    1        2.443  -2.332  -1.472  0.00  0.00    -0.730 N 
ATOM      3  H   LIG    1        2.545  -2.818  -0.638  0.00  0.00    +0.400 HD
ATOM      4  O   LIG    1        2.231  -2.396  -3.679  0.00  0.00    -0.530 OA
ENDROOT
BRANCH   1  10
ATOM      5  C   LIG    1        3.306  -9.182  -4.281  0.00  0.00    +0.160 A 
ATOM      6  C   LIG    1        2.608  -8.572  -5.313  0.00  0.00    -0.100 A 
ATOM      7  C   LIG    1        2.296  -7.230  -5.234  0.00  0.00    +0.090 A 
ATOM      8  C   LIG    1        2.676  -6.486  -4.129  0.00  0.00    -0.190 A 
ATOM      9  C   LIG    1        2.318  -5.022  -4.084  0.00  0.00    +0.130 C 
ATOM     10  C   LIG    1        2.422  -4.509  -2.646  0.00  0.00    -0.040 C 
ATOM     11  C   LIG    1        3.764  -4.973  -2.064  0.00  0.00    +0.250 C 
ATOM     12  O   LIG    1        3.753  -6.400  -1.990  0.00  0.00    -0.310 OA
ATOM     13  C   LIG    1        3.370  -7.090  -3.095  0.00  0.00    +0.170 A 
ATOM     14  C   LIG    1        3.687  -8.442  -3.174  0.00  0.00    -0.040 A 
BRANCH   5  16
ATOM     15  C   LIG    1        3.192 -11.204  -5.527  0.00  0.00    +0.250 C 
ATOM     16  O   LIG    1        3.617 -10.503  -4.356  0.00  0.00    -0.310 OA
ENDBRANCH   5  16
ENDBRANCH   1  10
BRANCH   2  17
ATOM     17  C   LIG    1        2.381  -0.869  -1.463  0.00  0.00    +0.260 C 
BRANCH  17  18
ATOM     18  C   LIG    1        2.500  -0.361  -0.024  0.00  0.00    +0.070 C 
BRANCH  18  19
ATOM     19  C   LIG    1        2.436   1.144  -0.016  0.00  0.00    -0.070 A 
ATOM     20  C   LIG    1        3.583   1.877  -0.023  0.00  0.00    +0.010 A 
ATOM     21  C   LIG    1        3.544   3.271  -0.015  0.00  0.00    +0.010 A 
ATOM     22  C   LIG    1        2.358   3.938   0.000  0.00  0.00    +0.030 A 
ATOM     23  C   LIG    1        1.153   3.215   0.008  0.00  0.00    -0.050 A 
ATOM     24  C   LIG    1       -0.090   3.870   0.024  0.00  0.00    +0.030 A 
ATOM     25  C   LIG    1       -1.237   3.137   0.031  0.00  0.00    +0.000 A 
ATOM     26  C   LIG    1       -1.199   1.744   0.017  0.00  0.00    +0.010 A 
ATOM     27  C   LIG    1       -0.013   1.076   0.008  0.00  0.00    +0.020 A 
ATOM     28  C   LIG    1        1.192   1.798   0.000  0.00  0.00    -0.040 A 
ENDBRANCH  18  19
ENDBRANCH  17  18
ENDBRANCH   2  17
TORSDOF 5
