REMARK  Name = ZINCqH0000001Zzh.0
REMARK                            x       y       z     vdW  Elec       q    Type
REMARK                         _______ _______ _______ _____ _____    ______ ____
ROOT
ATOM      1  C   LIG    1        5.430   2.430   0.796  0.00  0.00    +0.040 C 
ATOM      2  C   LIG    1        5.356   1.065   0.109  0.00  0.00    +0.130 C 
ATOM      3  C   LIG    1        4.933   1.245  -1.353  0.00  0.00    +0.230 C 
ATOM      4  O   LIG    1        3.581   1.709  -1.398  0.00  0.00    -0.370 OA
ATOM      5  C   LIG    1        2.631   0.798  -0.842  0.00  0.00    +0.190 C 
ATOM      6  C   LIG    1        2.937   0.595   0.646  0.00  0.00    +0.290 C 
ATOM      7  C   LIG    1        6.725   0.384   0.169  0.00  0.00    +0.070 C 
ATOM      8  N   LIG    1        4.354   0.224   0.782  0.00  0.00    -0.600 N 
ATOM      9  C   LIG    1        4.723  -0.853   1.503  0.00  0.00    +0.610 C 
ATOM     10  O   LIG    1        5.886  -1.208   1.514  0.00  0.00    -0.520 OA
ENDROOT
BRANCH   5  11
ATOM     11  C   LIG    1        1.242   1.361  -0.998  0.00  0.00    -0.070 A 
ATOM     12  C   LIG    1        1.035   2.725  -0.907  0.00  0.00    +0.060 A 
ATOM     13  C   LIG    1       -0.239   3.243  -1.050  0.00  0.00    +0.020 A 
ATOM     14  C   LIG    1       -1.306   2.398  -1.285  0.00  0.00    +0.020 A 
ATOM     15  C   LIG    1       -1.099   1.033  -1.382  0.00  0.00    -0.030 A 
ATOM     16 CL   LIG    1       -2.439  -0.029  -1.685  0.00  0.00    -0.070 Cl
ATOM     17  C   LIG    1        0.175   0.515  -1.233  0.00  0.00    +0.030 A 
ENDBRANCH   5  11
BRANCH   9  18
ATOM     18  C   LIG    1        3.715  -1.603   2.280  0.00  0.00    -0.010 A 
ATOM     19  N   LIG    1        2.453  -1.268   2.457  0.00  0.00    -0.250 NA
ATOM     20  N   LIG    1        1.862  -2.145   3.186  0.00  0.00    -0.290 N 
ATOM     21  C   LIG    1        2.726  -3.123   3.532  0.00  0.00    +0.180 A 
ATOM     22  C   LIG    1        3.920  -2.821   2.970  0.00  0.00    +0.000 A 
BRANCH  20  23
ATOM     23  C   LIG    1        0.453  -2.092   3.584  0.00  0.00    +0.330 C 
BRANCH  23  24
ATOM     24  C   LIG    1        0.169  -0.758   4.277  0.00  0.00    +0.380 C 
ATOM     25  F   LIG    1       -1.145  -0.752   4.758  0.00  0.00    -0.190 F 
ATOM     26  F   LIG    1        0.335   0.288   3.362  0.00  0.00    -0.180 F 
ENDBRANCH  23  24
ENDBRANCH  20  23
ENDBRANCH   9  18
TORSDOF 4
