REMARK  Name = ZINCrD00000F5Lsn.0
REMARK                            x       y       z     vdW  Elec       q    Type
REMARK                         _______ _______ _______ _____ _____    ______ ____
ROOT
ATOM      1  C   LIG    1       -0.113  -0.532  -0.253  0.00  0.00    +0.550 C 
ATOM      2  N   LIG    1       -0.168   0.815  -0.235  0.00  0.00    -0.570 N 
ATOM      3  O   LIG    1        0.938  -1.094  -0.494  0.00  0.00    -0.520 OA
ENDROOT
BRANCH   2   4
ATOM      4  C   LIG    1        1.004   1.564  -0.370  0.00  0.00    +0.180 A 
ATOM      5  C   LIG    1        1.115   2.506  -1.385  0.00  0.00    -0.020 A 
ATOM      6  C   LIG    1        2.271   3.251  -1.516  0.00  0.00    +0.070 A 
ATOM      7  C   LIG    1        3.325   3.054  -0.645  0.00  0.00    -0.130 A 
ATOM      8  C   LIG    1        4.588   3.862  -0.792  0.00  0.00    +0.090 C 
ATOM      9  C   LIG    1        5.189   4.128   0.589  0.00  0.00    +0.070 C 
ATOM     10  C   LIG    1        5.253   2.846   1.375  0.00  0.00    +0.520 C 
ATOM     11  N   LIG    1        4.292   1.912   1.249  0.00  0.00    -0.660 N 
ATOM     12  H   LIG    1        4.342   1.097   1.772  0.00  0.00    +0.410 HD
ATOM     13  O   LIG    1        6.181   2.653   2.132  0.00  0.00    -0.530 OA
ATOM     14  C   LIG    1        3.223   2.110   0.369  0.00  0.00    +0.180 A 
ATOM     15  C   LIG    1        2.062   1.364   0.507  0.00  0.00    -0.030 A 
ENDBRANCH   2   4
BRANCH   1  17
ATOM     16  C   LIG    1       -1.269  -2.650  -0.001  0.00  0.00    +0.160 C 
ATOM     17  C   LIG    1       -1.324  -1.321   0.018  0.00  0.00    -0.090 C 
ENDBRANCH   1  17
BRANCH   2  18
ATOM     18  C   LIG    1       -1.457   1.493  -0.079  0.00  0.00    +0.390 C 
BRANCH  18  19
ATOM     19  C   LIG    1       -1.688   1.807   1.377  0.00  0.00    -0.260 A 
ATOM     20  C   LIG    1       -0.885   1.447   2.405  0.00  0.00    +0.240 A 
ATOM     21  N   LIG    1       -1.438   1.918   3.542  0.00  0.00    -0.370 N 
ATOM     22  N   LIG    1       -2.620   2.588   3.201  0.00  0.00    -0.280 NA
ATOM     23  C   LIG    1       -0.899   1.755   4.895  0.00  0.00    +0.360 C 
ATOM     24  C   LIG    1       -2.765   2.526   1.903  0.00  0.00    +0.100 A 
BRANCH  24  25
ATOM     25  C   LIG    1       -3.900   3.123   1.111  0.00  0.00    +0.010 C 
ATOM     26  C   LIG    1       -3.338   4.066   0.045  0.00  0.00    +0.050 C 
ATOM     27  C   LIG    1       -4.821   3.906   2.050  0.00  0.00    +0.040 C 
ATOM     28  C   LIG    1       -4.694   2.004   0.434  0.00  0.00    +0.050 C 
ENDBRANCH  24  25
ENDBRANCH  18  19
ENDBRANCH   2  18
TORSDOF 5
