REMARK  Name = ZINCtV00001bB3KA.0
REMARK                            x       y       z     vdW  Elec       q    Type
REMARK                         _______ _______ _______ _____ _____    ______ ____
ROOT
ATOM      1  C   LIG    1        0.028   5.597  -0.485  0.00  0.00    +0.280 A 
ATOM      2  N   LIG    1       -0.210   4.343  -0.701  0.00  0.00    -0.450 NA
ATOM      3  C   LIG    1        0.743   3.674  -1.356  0.00  0.00    +0.090 A 
ATOM      4  C   LIG    1        1.826   4.426  -1.708  0.00  0.00    -0.080 A 
ATOM      5  S   LIG    1        1.592   6.030  -1.166  0.00  0.00    +0.170 S 
ENDROOT
BRANCH   1   6
ATOM      6  N   LIG    1       -0.824   6.471   0.178  0.00  0.00    -0.480 N 
ATOM      7  C   LIG    1       -2.008   6.030   0.648  0.00  0.00    +0.520 C 
ATOM      8  O   LIG    1       -2.289   4.853   0.575  0.00  0.00    -0.470 OA
ATOM      9  C   LIG    1       -2.982   7.001   1.265  0.00  0.00    +0.110 C 
BRANCH   6  13
ATOM     10  C   LIG    1        0.280  10.458   0.713  0.00  0.00    +0.150 A 
ATOM     11  C   LIG    1        0.627   9.508   1.663  0.00  0.00    +0.000 A 
ATOM     12  C   LIG    1        0.262   8.189   1.486  0.00  0.00    +0.080 A 
ATOM     13  C   LIG    1       -0.454   7.811   0.358  0.00  0.00    +0.050 A 
ATOM     14  C   LIG    1       -0.796   8.761  -0.595  0.00  0.00    +0.070 A 
ATOM     15  C   LIG    1       -0.435  10.081  -0.415  0.00  0.00    -0.060 A 
BRANCH  10  17
ATOM     16  C   LIG    1        0.249  12.681  -0.131  0.00  0.00    +0.250 C 
ATOM     17  O   LIG    1        0.640  11.757   0.887  0.00  0.00    -0.310 OA
ENDBRANCH  10  17
ENDBRANCH   6  13
ENDBRANCH   1   6
BRANCH   3  18
ATOM     18  C   LIG    1        0.632   2.249  -1.676  0.00  0.00    +0.170 C 
ATOM     19  C   LIG    1       -0.469   1.553  -1.300  0.00  0.00    -0.060 C 
BRANCH  19  20
ATOM     20  C   LIG    1       -0.577   0.178  -1.608  0.00  0.00    +0.420 C 
ATOM     21  O   LIG    1        0.320  -0.383  -2.213  0.00  0.00    -0.440 OA
BRANCH  20  22
ATOM     22  C   LIG    1       -1.778  -0.580  -1.198  0.00  0.00    -0.150 A 
ATOM     23  C   LIG    1       -2.808   0.059  -0.505  0.00  0.00    +0.110 A 
ATOM     24  C   LIG    1       -3.926  -0.653  -0.126  0.00  0.00    +0.030 A 
ATOM     25  C   LIG    1       -4.029  -2.001  -0.430  0.00  0.00    +0.000 A 
ATOM     26  C   LIG    1       -3.012  -2.642  -1.116  0.00  0.00    +0.030 A 
ATOM     27 CL   LIG    1       -5.440  -2.890   0.053  0.00  0.00    -0.050 Cl
ATOM     28  C   LIG    1       -1.890  -1.939  -1.507  0.00  0.00    +0.020 A 
ATOM     29 CL   LIG    1       -0.618  -2.742  -2.374  0.00  0.00    -0.020 Cl
ENDBRANCH  20  22
ENDBRANCH  19  20
ENDBRANCH   3  18
TORSDOF 6
