REMARK  Name = ZINCpe000000Z07w.0
REMARK                            x       y       z     vdW  Elec       q    Type
REMARK                         _______ _______ _______ _____ _____    ______ ____
ROOT
ATOM      1  O   LIG    1       -3.220   5.240   3.745  0.00  0.00    -0.580 OA
ATOM      2  C   LIG    1       -3.501   4.203   3.176  0.00  0.00    +0.720 C 
ATOM      3  N   LIG    1       -2.537   3.489   2.561  0.00  0.00    -0.630 N 
ATOM      4  C   LIG    1       -1.117   3.827   2.741  0.00  0.00    +0.310 C 
ATOM      5  C   LIG    1       -0.467   3.949   1.359  0.00  0.00    +0.190 C 
ATOM      6  N   LIG    1       -0.721   2.721   0.592  0.00  0.00    -0.540 NA
ATOM      7  C   LIG    1       -2.158   2.531   0.352  0.00  0.00    +0.170 C 
ATOM      8  C   LIG    1       -2.877   2.352   1.693  0.00  0.00    +0.290 C 
ATOM      9  N   LIG    1       -4.776   3.768   3.159  0.00  0.00    -0.640 N 
ATOM     10  C   LIG    1       -5.092   2.359   2.873  0.00  0.00    +0.250 C 
ATOM     11  C   LIG    1       -6.032   1.845   3.975  0.00  0.00    +0.220 C 
ATOM     12  O   LIG    1       -7.146   2.734   4.093  0.00  0.00    -0.380 OA
ATOM     13  C   LIG    1       -6.796   4.061   4.491  0.00  0.00    +0.220 C 
ATOM     14  C   LIG    1       -5.894   4.688   3.420  0.00  0.00    +0.270 C 
ENDROOT
BRANCH   6  15
ATOM     15  C   LIG    1        0.028   2.725  -0.671  0.00  0.00    +0.360 C 
BRANCH  15  16
ATOM     16  C   LIG    1       -0.059   1.364  -1.311  0.00  0.00    +0.180 A 
ATOM     17  N   LIG    1       -0.972   0.966  -2.152  0.00  0.00    -0.270 NA
ATOM     18  N   LIG    1       -0.740  -0.252  -2.497  0.00  0.00    -0.260 NA
ATOM     19  C   LIG    1        0.341  -0.678  -1.880  0.00  0.00    +0.250 A 
ATOM     20  O   LIG    1        0.795   0.342  -1.122  0.00  0.00    -0.210 OA
BRANCH  19  21
ATOM     21  C   LIG    1        0.946  -2.013  -2.000  0.00  0.00    +0.030 A 
ATOM     22  C   LIG    1        0.483  -3.035  -2.774  0.00  0.00    +0.060 A 
ATOM     23  C   LIG    1        1.362  -4.117  -2.585  0.00  0.00    -0.060 A 
ATOM     24  C   LIG    1        2.309  -3.710  -1.715  0.00  0.00    +0.220 A 
ATOM     25  O   LIG    1        2.058  -2.438  -1.368  0.00  0.00    -0.160 OA
ENDBRANCH  19  21
ENDBRANCH  15  16
ENDBRANCH   6  15
TORSDOF 3
