REMARK  Name = ZINCqH0000038aA8.0
REMARK                            x       y       z     vdW  Elec       q    Type
REMARK                         _______ _______ _______ _____ _____    ______ ____
ROOT
ATOM      1  C   LIG    1        0.047   0.976  -0.189  0.00  0.00    +0.160 C 
ATOM      2  C   LIG    1       -0.828   1.239   1.040  0.00  0.00    +0.030 C 
ATOM      3  C   LIG    1       -2.218   0.639   0.807  0.00  0.00    +0.170 C 
ATOM      4  N   LIG    1       -2.821   1.247  -0.385  0.00  0.00    -0.550 NA
ATOM      5  C   LIG    1       -2.023   0.968  -1.586  0.00  0.00    +0.190 C 
ATOM      6  C   LIG    1       -0.628   1.577  -1.425  0.00  0.00    +0.060 C 
ENDROOT
BRANCH   1   7
ATOM      7  O   LIG    1        1.327   1.582  -0.002  0.00  0.00    -0.310 OA
BRANCH   7  12
ATOM      8  C   LIG    1        5.179  -1.402   2.823  0.00  0.00    +0.090 C 
ATOM      9  C   LIG    1        4.149  -0.604   2.067  0.00  0.00    -0.130 A 
ATOM     10  C   LIG    1        4.497   0.604   1.492  0.00  0.00    +0.050 A 
ATOM     11  C   LIG    1        3.555   1.335   0.794  0.00  0.00    -0.020 A 
ATOM     12  C   LIG    1        2.257   0.862   0.680  0.00  0.00    +0.130 A 
ATOM     13  C   LIG    1        1.910  -0.351   1.258  0.00  0.00    -0.080 A 
ATOM     14  C   LIG    1        2.856  -1.081   1.950  0.00  0.00    -0.050 A 
ATOM     15  C   LIG    1        2.480  -2.398   2.578  0.00  0.00    +0.090 C 
ENDBRANCH   7  12
ENDBRANCH   1   7
BRANCH   4  16
ATOM     16  C   LIG    1       -4.209   0.798  -0.560  0.00  0.00    +0.490 C 
BRANCH  16  17
ATOM     17  N   LIG    1       -4.804   0.527   0.751  0.00  0.00    -0.550 N 
ATOM     18  C   LIG    1       -4.791  -0.652   1.404  0.00  0.00    +0.640 A 
ATOM     19  O   LIG    1       -5.430  -0.521   2.577  0.00  0.00    -0.230 OA
ATOM     20  C   LIG    1       -5.877   0.753   2.700  0.00  0.00    +0.030 A 
ATOM     21  C   LIG    1       -6.587   1.414   3.690  0.00  0.00    +0.060 A 
ATOM     22  C   LIG    1       -6.908   2.748   3.533  0.00  0.00    +0.030 A 
ATOM     23  C   LIG    1       -6.524   3.430   2.392  0.00  0.00    +0.040 A 
ATOM     24  C   LIG    1       -5.817   2.779   1.399  0.00  0.00    +0.050 A 
ATOM     25  O   LIG    1       -4.279  -1.676   0.994  0.00  0.00    -0.480 OA
ATOM     26  C   LIG    1       -5.491   1.441   1.550  0.00  0.00    +0.070 A 
ENDBRANCH  16  17
ENDBRANCH   4  16
TORSDOF 4
