REMARK  Name = ZINCpk00000eavQc.2
REMARK                            x       y       z     vdW  Elec       q    Type
REMARK                         _______ _______ _______ _____ _____    ______ ____
ROOT
ATOM      1  C   LIG    1        0.084   0.964   0.338  0.00  0.00    +0.180 C 
ATOM      2  C   LIG    1       -0.422   1.622   1.635  0.00  0.00    +0.250 C 
ATOM      3  C   LIG    1        0.668   2.649   2.018  0.00  0.00    +0.040 C 
ATOM      4  C   LIG    1        1.921   2.115   1.281  0.00  0.00    +0.180 C 
ATOM      5  N   LIG    1        1.371   1.609  -0.002  0.00  0.00    -0.480 NA
ENDROOT
BRANCH   1  10
ATOM      6  C   LIG    1       -2.677   0.361  -2.171  0.00  0.00    +0.130 A 
ATOM      7  C   LIG    1       -2.732   1.587  -2.818  0.00  0.00    -0.080 A 
ATOM      8  C   LIG    1       -1.876   2.604  -2.442  0.00  0.00    +0.040 A 
ATOM      9  C   LIG    1       -0.969   2.403  -1.418  0.00  0.00    +0.010 A 
ATOM     10  C   LIG    1       -0.909   1.181  -0.775  0.00  0.00    -0.030 A 
ATOM     11  C   LIG    1       -1.762   0.161  -1.147  0.00  0.00    -0.010 A 
BRANCH   6  13
ATOM     12  C   LIG    1       -4.433  -0.363  -3.601  0.00  0.00    +0.250 C 
ATOM     13  O   LIG    1       -3.518  -0.641  -2.539  0.00  0.00    -0.320 OA
ENDBRANCH   6  13
ENDBRANCH   1  10
BRANCH   2  14
ATOM     14  N   LIG    1       -0.569   0.617   2.691  0.00  0.00    -0.720 N 
ATOM     15  H   LIG    1       -0.044  -0.198   2.662  0.00  0.00    +0.400 HD
ATOM     16  C   LIG    1       -1.434   0.826   3.703  0.00  0.00    +0.530 C 
ATOM     17  O   LIG    1       -2.091   1.844   3.740  0.00  0.00    -0.520 OA
BRANCH  16  18
ATOM     18  C   LIG    1       -1.585  -0.208   4.790  0.00  0.00    +0.190 C 
BRANCH  18  19
ATOM     19  C   LIG    1       -2.606   0.264   5.793  0.00  0.00    +0.240 A 
ATOM     20  N   LIG    1       -2.350   0.973   6.861  0.00  0.00    -0.300 NA
ATOM     21  N   LIG    1       -3.578   1.192   7.506  0.00  0.00    -0.480 N 
ATOM     22  H   LIG    1       -3.723   1.687   8.327  0.00  0.00    +0.440 HD
ATOM     23  C   LIG    1       -4.512   0.573   6.763  0.00  0.00    +0.490 A 
ATOM     24  N   LIG    1       -3.915   0.021   5.738  0.00  0.00    -0.530 NA
ENDBRANCH  18  19
ENDBRANCH  16  18
ENDBRANCH   2  14
BRANCH   5  25
ATOM     25  C   LIG    1        2.291   0.650  -0.628  0.00  0.00    +0.080 C 
ATOM     26  C   LIG    1        3.119   1.139  -1.818  0.00  0.00    +0.030 C 
ATOM     27  C   LIG    1        1.956   0.168  -2.041  0.00  0.00    +0.020 C 
ENDBRANCH   5  25
TORSDOF 6
