REMARK  Name = ZINCrD00000F5Lwv.0
REMARK                            x       y       z     vdW  Elec       q    Type
REMARK                         _______ _______ _______ _____ _____    ______ ____
ROOT
ATOM      1  C   LIG    1        2.192   1.074  -1.917  0.00  0.00    +0.550 C 
ATOM      2  N   LIG    1        1.862   1.085  -0.611  0.00  0.00    -0.570 N 
ATOM      3  O   LIG    1        1.574   1.763  -2.707  0.00  0.00    -0.520 OA
ENDROOT
BRANCH   2   4
ATOM      4  C   LIG    1        0.747   1.810  -0.177  0.00  0.00    +0.150 A 
ATOM      5  C   LIG    1       -0.516   1.233  -0.214  0.00  0.00    +0.020 A 
ATOM      6  C   LIG    1       -1.615   1.953   0.210  0.00  0.00    +0.000 A 
ATOM      7  C   LIG    1       -1.458   3.244   0.681  0.00  0.00    +0.010 A 
ATOM      8  C   LIG    1       -0.202   3.821   0.720  0.00  0.00    +0.020 A 
ATOM      9  C   LIG    1        0.901   3.108   0.292  0.00  0.00    -0.090 A 
BRANCH   9  10
ATOM     10  C   LIG    1        2.269   3.738   0.333  0.00  0.00    +0.340 C 
BRANCH  10  11
ATOM     11  N   LIG    1        2.173   5.077   0.920  0.00  0.00    -0.620 N 
ATOM     12  C   LIG    1        1.961   6.147   0.127  0.00  0.00    +0.510 C 
ATOM     13  O   LIG    1        1.756   5.992  -1.058  0.00  0.00    -0.530 OA
ATOM     14  C   LIG    1        1.978   7.535   0.714  0.00  0.00    +0.080 C 
BRANCH  11  15
ATOM     15  C   LIG    1        2.306   5.254   2.368  0.00  0.00    +0.260 C 
ATOM     16  C   LIG    1        3.750   5.631   2.705  0.00  0.00    +0.020 C 
ENDBRANCH  11  15
ENDBRANCH  10  11
ENDBRANCH   9  10
ENDBRANCH   2   4
BRANCH   1  18
ATOM     17  C   LIG    1        3.624   0.217  -3.679  0.00  0.00    +0.150 C 
ATOM     18  C   LIG    1        3.299   0.228  -2.389  0.00  0.00    -0.090 C 
ENDBRANCH   1  18
BRANCH   2  19
ATOM     19  C   LIG    1        2.670   0.337   0.355  0.00  0.00    +0.370 C 
BRANCH  19  20
ATOM     20  C   LIG    1        2.127  -1.062   0.489  0.00  0.00    -0.260 A 
ATOM     21  C   LIG    1        2.499  -2.134  -0.249  0.00  0.00    +0.240 A 
ATOM     22  N   LIG    1        1.782  -3.195   0.178  0.00  0.00    -0.370 N 
ATOM     23  N   LIG    1        0.943  -2.761   1.212  0.00  0.00    -0.290 NA
ATOM     24  C   LIG    1        1.155  -1.484   1.402  0.00  0.00    +0.250 A 
BRANCH  22  25
ATOM     25  C   LIG    1        1.867  -4.560  -0.347  0.00  0.00    +0.320 C 
BRANCH  25  26
ATOM     26  C   LIG    1        2.161  -5.530   0.799  0.00  0.00    +0.020 C 
ATOM     27  C   LIG    1        2.250  -6.955   0.250  0.00  0.00    +0.030 C 
ENDBRANCH  25  26
ENDBRANCH  22  25
ENDBRANCH  19  20
ENDBRANCH   2  19
TORSDOF 9
