REMARK  Name = ZINCrH000004mu68.1
REMARK                            x       y       z     vdW  Elec       q    Type
REMARK                         _______ _______ _______ _____ _____    ______ ____
ROOT
ATOM      1  C   LIG    1        4.734  -0.551   0.181  0.00  0.00    +0.250 A 
ATOM      2  C   LIG    1        3.534  -1.236   0.334  0.00  0.00    -0.080 A 
ATOM      3  C   LIG    1        2.357  -0.539   0.496  0.00  0.00    +0.150 A 
ATOM      4  C   LIG    1        2.371   0.858   0.507  0.00  0.00    -0.190 A 
ATOM      5  C   LIG    1        3.579   1.543   0.348  0.00  0.00    +0.250 A 
ATOM      6  C   LIG    1        4.752   0.839   0.192  0.00  0.00    -0.720 A 
ENDROOT
BRANCH   4   7
ATOM      7  C   LIG    1        1.112   1.609   0.681  0.00  0.00    +0.560 C 
ATOM      8  N   LIG    1       -0.053   0.946   0.829  0.00  0.00    -0.720 N 
ATOM      9  H   LIG    1       -0.063  -0.024   0.821  0.00  0.00    +0.400 HD
ATOM     10  O   LIG    1        1.126   2.824   0.691  0.00  0.00    -0.530 OA
BRANCH   8  11
ATOM     11  C   LIG    1       -1.303   1.692   0.995  0.00  0.00    +0.260 C 
ATOM     12  C   LIG    1       -1.493   2.046   2.471  0.00  0.00    +0.030 C 
BRANCH  11  13
ATOM     13  C   LIG    1       -2.476   0.831   0.522  0.00  0.00    -0.060 C 
ATOM     14  C   LIG    1       -3.206   1.270  -0.750  0.00  0.00    +0.020 C 
ATOM     15  C   LIG    1       -3.878   1.436   0.615  0.00  0.00    +0.030 C 
ENDBRANCH  11  13
ENDBRANCH   8  11
ENDBRANCH   4   7
BRANCH   6  16
ATOM     16  S   LIG    1        6.276   1.701  -0.003  0.00  0.00    +2.700 S 
ATOM     17  O   LIG    1        5.972   3.084   0.113  0.00  0.00    -0.940 OA
ATOM     18  O   LIG    1        6.912   1.138  -1.142  0.00  0.00    -0.930 OA
BRANCH  16  19
ATOM     19  N   LIG    1        7.225   1.319   1.299  0.00  0.00    -1.050 N 
ATOM     20  H   LIG    1        8.059   0.841   1.168  0.00  0.00    +0.430 HD
BRANCH  19  21
ATOM     21  C   LIG    1        6.825   1.686   2.586  0.00  0.00    +0.160 A 
ATOM     22  C   LIG    1        6.354   2.970   2.829  0.00  0.00    +0.030 A 
ATOM     23  C   LIG    1        5.954   3.328   4.102  0.00  0.00    +0.070 A 
ATOM     24  C   LIG    1        6.032   2.412   5.136  0.00  0.00    -0.100 A 
ATOM     25  C   LIG    1        6.506   1.134   4.898  0.00  0.00    +0.070 A 
ATOM     26 BR   LIG    1        5.490   2.908   6.879  0.00  0.00    -0.050 Br
ATOM     27  C   LIG    1        6.902   0.769   3.627  0.00  0.00    +0.020 A 
ENDBRANCH  19  21
ENDBRANCH  16  19
ENDBRANCH   6  16
BRANCH   1  29
ATOM     28  C   LIG    1        5.820  -2.664   0.137  0.00  0.00    +0.270 C 
ATOM     29  O   LIG    1        5.891  -1.242   0.021  0.00  0.00    -0.310 OA
ENDBRANCH   1  29
TORSDOF 7
