REMARK  Name = ZINCqH0000000oKi.0
REMARK                            x       y       z     vdW  Elec       q    Type
REMARK                         _______ _______ _______ _____ _____    ______ ____
ROOT
ATOM      1  S   LIG    1        2.700   0.902   0.078  0.00  0.00    +2.690 S 
ATOM      2  O   LIG    1        2.435  -0.379   0.633  0.00  0.00    -0.950 OA
ATOM      3  O   LIG    1        3.665   1.797   0.615  0.00  0.00    -0.950 OA
ENDROOT
BRANCH   1  12
ATOM      4  C   LIG    1       -4.938   3.841  -0.101  0.00  0.00    +0.120 C 
ATOM      5  C   LIG    1       -3.610   3.140  -0.224  0.00  0.00    +0.510 C 
ATOM      6  N   LIG    1       -2.469   3.806   0.043  0.00  0.00    -0.560 N 
ATOM      7  C   LIG    1       -2.494   5.248   0.325  0.00  0.00    +0.280 C 
ATOM      8  C   LIG    1       -1.351   5.900  -0.465  0.00  0.00    +0.030 C 
ATOM      9  C   LIG    1       -0.021   5.346   0.044  0.00  0.00    +0.090 C 
ATOM     10  C   LIG    1       -0.045   3.840   0.052  0.00  0.00    -0.140 A 
ATOM     11  C   LIG    1        1.156   3.151   0.058  0.00  0.00    +0.140 A 
ATOM     12  C   LIG    1        1.167   1.769   0.070  0.00  0.00    -0.700 A 
ATOM     13  C   LIG    1       -0.024   1.066   0.076  0.00  0.00    +0.140 A 
ATOM     14  C   LIG    1       -1.225   1.745   0.063  0.00  0.00    +0.000 A 
ATOM     15  C   LIG    1       -1.238   3.135   0.055  0.00  0.00    +0.210 A 
ATOM     16  O   LIG    1       -3.568   1.977  -0.564  0.00  0.00    -0.510 OA
ENDBRANCH   1  12
BRANCH   1  17
ATOM     17  N   LIG    1        3.127   0.648  -1.502  0.00  0.00    -1.110 NA
ATOM     18  H   LIG    1        3.173  -0.256  -1.853  0.00  0.00    +0.420 HD
BRANCH  17  19
ATOM     19  C   LIG    1        3.436   1.787  -2.370  0.00  0.00    +0.290 C 
ATOM     20  C   LIG    1        2.184   2.185  -3.154  0.00  0.00    +0.050 C 
BRANCH  19  21
ATOM     21  C   LIG    1        4.530   1.403  -3.332  0.00  0.00    -0.060 A 
ATOM     22  C   LIG    1        4.724   0.075  -3.664  0.00  0.00    +0.020 A 
ATOM     23  C   LIG    1        5.725  -0.276  -4.551  0.00  0.00    +0.030 A 
ATOM     24  C   LIG    1        6.539   0.698  -5.098  0.00  0.00    +0.020 A 
ATOM     25  C   LIG    1        6.349   2.026  -4.762  0.00  0.00    +0.060 A 
ATOM     26  C   LIG    1        5.345   2.379  -3.879  0.00  0.00    -0.090 A 
ATOM     27 BR   LIG    1        5.085   4.194  -3.419  0.00  0.00    -0.040 Br
ENDBRANCH  19  21
ENDBRANCH  17  19
ENDBRANCH   1  17
TORSDOF 4
