REMARK  Name = ZINCrD000000Ata7.0
REMARK                            x       y       z     vdW  Elec       q    Type
REMARK                         _______ _______ _______ _____ _____    ______ ____
ROOT
ATOM      1  O   LIG    1        7.745  -5.960   0.130  0.00  0.00    -0.440 OA
ATOM      2  C   LIG    1        8.363  -4.922   0.023  0.00  0.00    +0.540 C 
ATOM      3  N   LIG    1        9.709  -4.943  -0.045  0.00  0.00    -0.690 N 
ATOM      4  H   LIG    1       10.203  -4.113  -0.130  0.00  0.00    +0.410 HD
ATOM      5  C   LIG    1       10.367  -6.118   0.005  0.00  0.00    +0.690 C 
ATOM      6  N   LIG    1       11.713  -6.139  -0.063  0.00  0.00    -0.730 N 
ATOM      7  H   LIG    1       12.208  -5.308  -0.148  0.00  0.00    +0.400 HD
ATOM      8  O   LIG    1        9.748  -7.158   0.111  0.00  0.00    -0.520 OA
ENDROOT
BRANCH   6   9
ATOM      9  C   LIG    1       12.430  -7.415  -0.009  0.00  0.00    +0.340 C 
BRANCH   9  10
ATOM     10  C   LIG    1       13.913  -7.164  -0.104  0.00  0.00    -0.110 A 
ATOM     11  C   LIG    1       14.532  -7.139  -1.340  0.00  0.00    +0.030 A 
ATOM     12  C   LIG    1       15.891  -6.904  -1.427  0.00  0.00    +0.010 A 
ATOM     13  C   LIG    1       16.633  -6.703  -0.278  0.00  0.00    +0.010 A 
ATOM     14  C   LIG    1       16.015  -6.733   0.958  0.00  0.00    +0.010 A 
ATOM     15  C   LIG    1       14.654  -6.963   1.045  0.00  0.00    +0.030 A 
ENDBRANCH   9  10
ENDBRANCH   6   9
BRANCH   2  16
ATOM     16  C   LIG    1        7.626  -3.609  -0.032  0.00  0.00    +0.100 C 
BRANCH  16  17
ATOM     17  S   LIG    1        5.841  -3.911   0.082  0.00  0.00    +0.120 S 
BRANCH  17  18
ATOM     18  C   LIG    1        5.158  -2.289   0.002  0.00  0.00    +0.190 A 
ATOM     19  N   LIG    1        5.846  -1.177  -0.113  0.00  0.00    -0.310 NA
ATOM     20  N   LIG    1        4.919  -0.123  -0.146  0.00  0.00    -0.470 N 
ATOM     21  H   LIG    1        5.117   0.823  -0.228  0.00  0.00    +0.440 HD
ATOM     22  C   LIG    1        3.696  -0.688  -0.037  0.00  0.00    +0.330 A 
ATOM     23  N   LIG    1        3.857  -1.993   0.048  0.00  0.00    -0.470 NA
BRANCH  22  24
ATOM     24  C   LIG    1        2.403   0.032  -0.021  0.00  0.00    -0.020 A 
ATOM     25  C   LIG    1        2.378   1.427   0.002  0.00  0.00    +0.040 A 
ATOM     26  C   LIG    1        1.169   2.092   0.017  0.00  0.00    +0.040 A 
ATOM     27  C   LIG    1       -0.017   1.380   0.008  0.00  0.00    +0.050 A 
ATOM     28  C   LIG    1        0.001  -0.004  -0.015  0.00  0.00    +0.050 A 
ATOM     29  C   LIG    1        1.203  -0.682  -0.030  0.00  0.00    -0.050 A 
ATOM     30 BR   LIG    1        1.225  -2.572  -0.062  0.00  0.00    +0.010 Br
ENDBRANCH  22  24
ENDBRANCH  17  18
ENDBRANCH  16  17
ENDBRANCH   2  16
TORSDOF 6
