REMARK  Name = ZINCrD000000Ata7.1
REMARK                            x       y       z     vdW  Elec       q    Type
REMARK                         _______ _______ _______ _____ _____    ______ ____
ROOT
ATOM      1  O   LIG    1        5.527   1.609  -0.040  0.00  0.00    -0.450 OA
ATOM      2  C   LIG    1        5.053   2.725  -0.030  0.00  0.00    +0.540 C 
ATOM      3  N   LIG    1        5.865   3.801  -0.033  0.00  0.00    -0.680 N 
ATOM      4  H   LIG    1        5.486   4.694  -0.025  0.00  0.00    +0.410 HD
ATOM      5  C   LIG    1        7.202   3.636  -0.046  0.00  0.00    +0.700 C 
ATOM      6  N   LIG    1        8.014   4.712  -0.048  0.00  0.00    -0.730 N 
ATOM      7  H   LIG    1        7.635   5.605  -0.040  0.00  0.00    +0.400 HD
ATOM      8  O   LIG    1        7.677   2.517  -0.056  0.00  0.00    -0.520 OA
ENDROOT
BRANCH   6   9
ATOM      9  C   LIG    1        9.468   4.533  -0.062  0.00  0.00    +0.340 C 
BRANCH   9  10
ATOM     10  C   LIG    1       10.140   5.882  -0.062  0.00  0.00    -0.110 A 
ATOM     11  C   LIG    1       10.442   6.504  -1.259  0.00  0.00    +0.030 A 
ATOM     12  C   LIG    1       11.055   7.744  -1.258  0.00  0.00    +0.010 A 
ATOM     13  C   LIG    1       11.374   8.356  -0.061  0.00  0.00    +0.010 A 
ATOM     14  C   LIG    1       11.076   7.732   1.136  0.00  0.00    +0.010 A 
ATOM     15  C   LIG    1       10.459   6.495   1.135  0.00  0.00    +0.030 A 
ENDBRANCH   9  10
ENDBRANCH   6   9
BRANCH   2  16
ATOM     16  C   LIG    1        3.558   2.909  -0.016  0.00  0.00    +0.130 C 
BRANCH  16  17
ATOM     17  S   LIG    1        2.750   1.289  -0.016  0.00  0.00    +0.100 S 
BRANCH  17  18
ATOM     18  C   LIG    1        1.061   1.789   0.002  0.00  0.00    +0.250 A 
ATOM     19  N   LIG    1        0.622   3.029   0.012  0.00  0.00    -0.530 NA
ATOM     20  C   LIG    1       -0.719   3.033   0.025  0.00  0.00    +0.260 A 
ATOM     21  N   LIG    1       -1.147   1.791   0.017  0.00  0.00    -0.260 NA
ATOM     22  N   LIG    1       -0.011   0.966   0.007  0.00  0.00    -0.460 N 
ATOM     23  H   LIG    1        0.002  -0.004   0.002  0.00  0.00    +0.450 HD
BRANCH  20  24
ATOM     24  C   LIG    1       -1.578   4.242   0.040  0.00  0.00    +0.010 A 
ATOM     25  C   LIG    1       -1.001   5.510   0.047  0.00  0.00    +0.070 A 
ATOM     26  C   LIG    1       -1.806   6.632   0.055  0.00  0.00    +0.030 A 
ATOM     27  C   LIG    1       -3.182   6.499   0.068  0.00  0.00    +0.040 A 
ATOM     28  C   LIG    1       -3.761   5.243   0.067  0.00  0.00    +0.050 A 
ATOM     29  C   LIG    1       -2.967   4.114   0.052  0.00  0.00    -0.070 A 
ATOM     30 BR   LIG    1       -3.760   2.397   0.051  0.00  0.00    -0.010 Br
ENDBRANCH  20  24
ENDBRANCH  17  18
ENDBRANCH  16  17
ENDBRANCH   2  16
TORSDOF 6
