REMARK  Name = ZINCrD000000AAL6.0
REMARK                            x       y       z     vdW  Elec       q    Type
REMARK                         _______ _______ _______ _____ _____    ______ ____
ROOT
ATOM      1  C   LIG    1        2.307   1.341  -1.457  0.00  0.00    +0.530 C 
ATOM      2  N   LIG    1        1.391   1.527  -2.428  0.00  0.00    -0.620 N 
ATOM      3  C   LIG    1        1.599   2.286  -3.679  0.00  0.00    +0.250 C 
ATOM      4  C   LIG    1        0.562   1.705  -4.672  0.00  0.00    +0.040 C 
ATOM      5  C   LIG    1       -0.651   1.447  -3.740  0.00  0.00    +0.030 C 
ATOM      6  C   LIG    1        0.015   1.011  -2.418  0.00  0.00    +0.220 C 
ATOM      7  O   LIG    1        2.053   0.622  -0.514  0.00  0.00    -0.530 OA
ENDROOT
BRANCH   1   8
ATOM      8  C   LIG    1        3.647   2.024  -1.544  0.00  0.00    +0.050 C 
BRANCH   8   9
ATOM      9  C   LIG    1        4.492   1.647  -0.326  0.00  0.00    +0.290 C 
BRANCH   9  12
ATOM     10  O   LIG    1        6.457   1.406   1.504  0.00  0.00    -0.520 OA
ATOM     11  C   LIG    1        6.711   2.125   0.561  0.00  0.00    +0.510 C 
ATOM     12  N   LIG    1        5.795   2.312  -0.410  0.00  0.00    -0.740 N 
ATOM     13  H   LIG    1        5.999   2.886  -1.165  0.00  0.00    +0.400 HD
BRANCH  11  14
ATOM     14  C   LIG    1        8.051   2.808   0.474  0.00  0.00    +0.100 C 
BRANCH  14  15
ATOM     15  C   LIG    1        8.884   2.437   1.674  0.00  0.00    -0.070 A 
ATOM     16  C   LIG    1        8.829   3.209   2.819  0.00  0.00    +0.010 A 
ATOM     17  C   LIG    1        9.589   2.866   3.921  0.00  0.00    +0.000 A 
ATOM     18  C   LIG    1       10.411   1.755   3.875  0.00  0.00    +0.000 A 
ATOM     19  C   LIG    1       10.469   0.986   2.728  0.00  0.00    +0.000 A 
ATOM     20  C   LIG    1        9.706   1.326   1.628  0.00  0.00    +0.010 A 
ENDBRANCH  14  15
ENDBRANCH  11  14
ENDBRANCH   9  12
ENDBRANCH   8   9
ENDBRANCH   1   8
BRANCH   6  21
ATOM     21  C   LIG    1       -0.752   1.596  -1.231  0.00  0.00    +0.020 C 
BRANCH  21  22
ATOM     22  C   LIG    1       -2.155   0.987  -1.180  0.00  0.00    +0.060 C 
BRANCH  22  23
ATOM     23  C   LIG    1       -2.867   1.469   0.058  0.00  0.00    -0.080 A 
ATOM     24  C   LIG    1       -2.769   0.751   1.235  0.00  0.00    +0.000 A 
ATOM     25  C   LIG    1       -3.419   1.196   2.372  0.00  0.00    +0.000 A 
ATOM     26  C   LIG    1       -4.174   2.353   2.328  0.00  0.00    -0.010 A 
ATOM     27  C   LIG    1       -4.276   3.068   1.149  0.00  0.00    +0.000 A 
ATOM     28  C   LIG    1       -3.623   2.626   0.014  0.00  0.00    +0.000 A 
ENDBRANCH  22  23
ENDBRANCH  21  22
ENDBRANCH   6  21
TORSDOF 8
