REMARK  Name = ZINCrD000000CSb0.0
REMARK                            x       y       z     vdW  Elec       q    Type
REMARK                         _______ _______ _______ _____ _____    ______ ____
ROOT
ATOM      1  O   LIG    1       -2.573   5.064   0.298  0.00  0.00    -0.440 OA
ATOM      2  C   LIG    1       -2.512   3.876   0.065  0.00  0.00    +0.400 C 
ATOM      3  C   LIG    1       -3.757   3.051  -0.213  0.00  0.00    +0.050 C 
ATOM      4  C   LIG    1       -3.567   1.699   0.474  0.00  0.00    +0.120 C 
ATOM      5  O   LIG    1       -2.387   1.057   0.019  0.00  0.00    -0.290 OA
ATOM      6  C   LIG    1       -1.224   1.752   0.017  0.00  0.00    +0.180 A 
ATOM      7  C   LIG    1       -0.013   1.076   0.008  0.00  0.00    -0.020 A 
ATOM      8  C   LIG    1        1.174   1.782   0.000  0.00  0.00    +0.090 A 
ATOM      9  C   LIG    1        1.173   3.167   0.008  0.00  0.00    -0.030 A 
ATOM     10  C   LIG    1       -0.019   3.860   0.026  0.00  0.00    +0.110 A 
ATOM     11  C   LIG    1       -3.522   1.890   2.006  0.00  0.00    +0.030 C 
ATOM     12  C   LIG    1       -4.035   0.514   2.505  0.00  0.00    +0.290 C 
ATOM     13  N   LIG    1       -5.065   0.117   1.527  0.00  0.00    -1.010 NA
ATOM     14  C   LIG    1       -4.799   0.808   0.255  0.00  0.00    +0.330 C 
ATOM     15  C   LIG    1       -1.226   3.157   0.036  0.00  0.00    -0.250 A 
ENDROOT
BRANCH  13  16
ATOM     16  S   LIG    1       -6.314  -0.932   1.813  0.00  0.00    +2.710 S 
ATOM     17  O   LIG    1       -7.327  -0.617   0.868  0.00  0.00    -0.950 OA
ATOM     18  O   LIG    1       -6.531  -0.924   3.218  0.00  0.00    -0.950 OA
BRANCH  16  19
ATOM     19  C   LIG    1       -5.741  -2.548   1.408  0.00  0.00    -0.680 A 
ATOM     20  C   LIG    1       -5.903  -3.037   0.125  0.00  0.00    +0.130 A 
ATOM     21  C   LIG    1       -5.449  -4.303  -0.194  0.00  0.00    -0.010 A 
ATOM     22  C   LIG    1       -4.842  -5.084   0.772  0.00  0.00    +0.010 A 
ATOM     23  C   LIG    1       -4.685  -4.597   2.056  0.00  0.00    -0.010 A 
ATOM     24  C   LIG    1       -5.135  -3.329   2.374  0.00  0.00    +0.130 A 
BRANCH  22  25
ATOM     25  C   LIG    1       -4.352  -6.466   0.425  0.00  0.00    -0.020 C 
ATOM     26  C   LIG    1       -4.367  -6.872  -1.050  0.00  0.00    +0.030 C 
ATOM     27  C   LIG    1       -5.385  -7.476  -0.080  0.00  0.00    +0.040 C 
ENDBRANCH  22  25
ENDBRANCH  16  19
ENDBRANCH  13  16
TORSDOF 3
