REMARK  Name = ZINCpe000015qX2F.0
REMARK                            x       y       z     vdW  Elec       q    Type
REMARK                         _______ _______ _______ _____ _____    ______ ____
ROOT
ATOM      1  N   LIG    1       -1.156   0.798   2.227  0.00  0.00    -0.710 N 
ATOM      2  H   LIG    1       -1.748   0.034   2.145  0.00  0.00    +0.400 HD
ATOM      3  C   LIG    1       -0.535   1.046   3.397  0.00  0.00    +0.600 C 
ATOM      4  O   LIG    1        0.207   2.005   3.501  0.00  0.00    -0.530 OA
ENDROOT
BRANCH   3   5
ATOM      5  C   LIG    1       -0.753   0.158   4.548  0.00  0.00    -0.290 A 
ATOM      6  C   LIG    1       -0.180   0.283   5.809  0.00  0.00    +0.370 A 
ATOM      7  N   LIG    1       -0.649  -0.732   6.561  0.00  0.00    -0.360 N 
ATOM      8  N   LIG    1       -1.510  -1.505   5.776  0.00  0.00    -0.270 NA
ATOM      9  C   LIG    1       -0.309  -0.986   7.963  0.00  0.00    +0.370 C 
ATOM     10  C   LIG    1       -1.580  -0.988   4.581  0.00  0.00    +0.300 A 
BRANCH   6  11
ATOM     11  N   LIG    1        0.707   1.272   6.218  0.00  0.00    -0.400 N 
ATOM     12  C   LIG    1        1.791   1.714   5.511  0.00  0.00    +0.230 A 
ATOM     13  C   LIG    1        2.399   2.677   6.231  0.00  0.00    -0.050 A 
ATOM     14  C   LIG    1        1.674   2.832   7.430  0.00  0.00    -0.030 A 
ATOM     15  C   LIG    1        0.645   1.962   7.397  0.00  0.00    +0.120 A 
ENDBRANCH   6  11
ENDBRANCH   3   5
BRANCH   1  17
ATOM     16  C   LIG    1       -2.063   1.621   0.029  0.00  0.00    +0.270 C 
ATOM     17  C   LIG    1       -0.939   1.683   1.080  0.00  0.00    +0.260 C 
ATOM     18  C   LIG    1       -0.013   1.086   0.008  0.00  0.00    +0.010 C 
ATOM     19  C   LIG    1       -0.959   1.695  -1.040  0.00  0.00    +0.180 C 
BRANCH  16  23
ATOM     20  C   LIG    1       -3.912   6.209  -0.779  0.00  0.00    +0.110 C 
ATOM     21  C   LIG    1       -3.756   4.787  -0.306  0.00  0.00    -0.240 A 
ATOM     22  C   LIG    1       -2.700   3.977  -0.552  0.00  0.00    +0.220 A 
ATOM     23  N   LIG    1       -2.945   2.790   0.042  0.00  0.00    -0.360 N 
ATOM     24  N   LIG    1       -4.195   2.872   0.670  0.00  0.00    -0.290 NA
ATOM     25  C   LIG    1       -4.678   4.070   0.465  0.00  0.00    +0.230 A 
ENDBRANCH  16  23
BRANCH  19  26
ATOM     26  O   LIG    1       -1.191   0.844  -2.165  0.00  0.00    -0.550 OA
ATOM     27  H   LIG    1       -0.478   0.853  -2.818  0.00  0.00    +0.390 HD
ENDBRANCH  19  26
ENDBRANCH   1  17
TORSDOF 5
