REMARK  Name = ZINCpk00000y6ypf.0
REMARK                            x       y       z     vdW  Elec       q    Type
REMARK                         _______ _______ _______ _____ _____    ______ ____
ROOT
ATOM      1  N   LIG    1        1.419   2.132  -0.099  0.00  0.00    -0.720 N 
ATOM      2  H   LIG    1        2.322   1.779  -0.049  0.00  0.00    +0.400 HD
ATOM      3  C   LIG    1        0.374   1.292  -0.238  0.00  0.00    +0.540 C 
ATOM      4  O   LIG    1       -0.755   1.735  -0.305  0.00  0.00    -0.440 OA
ENDROOT
BRANCH   3   5
ATOM      5  C   LIG    1        0.604  -0.171  -0.316  0.00  0.00    +0.030 A 
ATOM      6  C   LIG    1       -0.473  -1.060  -0.455  0.00  0.00    +0.040 A 
ATOM      7  N   LIG    1       -1.804  -0.921  -0.558  0.00  0.00    -0.500 NA
ATOM      8  C   LIG    1       -2.336  -2.120  -0.680  0.00  0.00    +0.460 A 
ATOM      9  N   LIG    1       -1.390  -3.050  -0.666  0.00  0.00    -0.560 NA
ATOM     10  C   LIG    1       -0.209  -2.455  -0.532  0.00  0.00    +0.230 A 
ATOM     11  N   LIG    1        1.076  -2.901  -0.458  0.00  0.00    -0.460 N 
ATOM     12  H   LIG    1        1.255  -3.854  -0.507  0.00  0.00    +0.430 HD
ATOM     13  C   LIG    1        2.098  -2.044  -0.319  0.00  0.00    +0.330 A 
ATOM     14  C   LIG    1        1.899  -0.697  -0.246  0.00  0.00    -0.030 A 
ENDBRANCH   3   5
BRANCH   1  17
ATOM     15  C   LIG    1        1.654   5.272   1.163  0.00  0.00    +0.160 C 
ATOM     16  C   LIG    1        0.734   4.056   1.365  0.00  0.00    +0.050 C 
ATOM     17  C   LIG    1        1.193   3.577  -0.022  0.00  0.00    +0.170 C 
ATOM     18  C   LIG    1        2.477   4.391   0.209  0.00  0.00    -0.060 C 
ATOM     19  C   LIG    1        2.967   5.130  -1.038  0.00  0.00    +0.070 C 
ATOM     20  C   LIG    1        3.586   3.600   0.907  0.00  0.00    +0.080 C 
BRANCH  17  21
ATOM     21  C   LIG    1        0.342   4.097  -1.152  0.00  0.00    +0.470 C 
ATOM     22  O   LIG    1        0.461   5.241  -1.521  0.00  0.00    -0.470 OA
BRANCH  21  23
ATOM     23  O   LIG    1       -0.548   3.289  -1.748  0.00  0.00    -0.320 OA
ATOM     24  C   LIG    1       -1.334   3.857  -2.829  0.00  0.00    +0.250 C 
ENDBRANCH  21  23
ENDBRANCH  17  21
BRANCH  15  25
ATOM     25  O   LIG    1        1.014   6.373   0.517  0.00  0.00    -0.330 OA
BRANCH  25  27
ATOM     26  C   LIG    1        0.093   8.607   0.579  0.00  0.00    +0.040 C 
ATOM     27  C   LIG    1        0.779   7.493   1.373  0.00  0.00    +0.150 C 
ENDBRANCH  25  27
ENDBRANCH  15  25
ENDBRANCH   1  17
TORSDOF 6
