REMARK  Name = ZINCqH0000004hsO.0
REMARK                            x       y       z     vdW  Elec       q    Type
REMARK                         _______ _______ _______ _____ _____    ______ ____
ROOT
ATOM      1  N   LIG    1       -4.531   3.223  -4.473  0.00  0.00    -1.120 NA
ATOM      2  H   LIG    1       -5.192   2.659  -4.905  0.00  0.00    +0.420 HD
ENDROOT
BRANCH   1   3
ATOM      3  S   LIG    1       -2.932   3.085  -4.880  0.00  0.00    +2.700 S 
ATOM      4  O   LIG    1       -2.852   2.047  -5.847  0.00  0.00    -0.960 OA
ATOM      5  O   LIG    1       -2.462   4.405  -5.116  0.00  0.00    -0.950 OA
BRANCH   3   9
ATOM      6  C   LIG    1       -0.742   1.585  -1.213  0.00  0.00    -0.020 A 
ATOM      7  C   LIG    1       -0.893   2.943  -1.420  0.00  0.00    -0.010 A 
ATOM      8  C   LIG    1       -1.558   3.401  -2.542  0.00  0.00    +0.120 A 
ATOM      9  C   LIG    1       -2.079   2.501  -3.452  0.00  0.00    -0.680 A 
ATOM     10  C   LIG    1       -1.932   1.143  -3.243  0.00  0.00    +0.130 A 
ATOM     11  C   LIG    1       -1.263   0.685  -2.123  0.00  0.00    -0.010 A 
BRANCH   6  12
ATOM     12  C   LIG    1       -0.013   1.086   0.008  0.00  0.00    +0.020 C 
ATOM     13  C   LIG    1        1.423   1.615  -0.003  0.00  0.00    +0.040 C 
BRANCH  12  15
ATOM     14  C   LIG    1       -0.064   0.971   2.503  0.00  0.00    +0.020 C 
ATOM     15  C   LIG    1       -0.729   1.579   1.267  0.00  0.00    +0.010 C 
ENDBRANCH  12  15
ENDBRANCH   6  12
ENDBRANCH   3   9
ENDBRANCH   1   3
BRANCH   1  16
ATOM     16  C   LIG    1       -4.948   4.197  -3.462  0.00  0.00    +0.270 C 
BRANCH  16  17
ATOM     17  C   LIG    1       -6.464   4.393  -3.537  0.00  0.00    +0.080 C 
BRANCH  17  18
ATOM     18  C   LIG    1       -6.893   5.395  -2.496  0.00  0.00    -0.080 A 
ATOM     19  C   LIG    1       -7.248   4.966  -1.231  0.00  0.00    +0.020 A 
ATOM     20  C   LIG    1       -7.638   5.882  -0.271  0.00  0.00    -0.030 A 
ATOM     21  C   LIG    1       -7.683   7.231  -0.580  0.00  0.00    +0.100 A 
ATOM     22  C   LIG    1       -7.330   7.663  -1.855  0.00  0.00    +0.100 A 
ATOM     23  C   LIG    1       -6.935   6.741  -2.810  0.00  0.00    -0.030 A 
BRANCH  22  24
ATOM     24  O   LIG    1       -7.372   8.987  -2.162  0.00  0.00    -0.310 OA
ATOM     25  C   LIG    1       -6.995   9.357  -3.490  0.00  0.00    +0.240 C 
ENDBRANCH  22  24
BRANCH  21  26
ATOM     26  O   LIG    1       -8.072   8.133   0.362  0.00  0.00    -0.310 OA
ATOM     27  C   LIG    1       -8.420   7.618   1.648  0.00  0.00    +0.250 C 
ENDBRANCH  21  26
ENDBRANCH  17  18
ENDBRANCH  16  17
ENDBRANCH   1  16
TORSDOF 9
