REMARK  Name = ZINCrg00000SjSA1.0
REMARK                            x       y       z     vdW  Elec       q    Type
REMARK                         _______ _______ _______ _____ _____    ______ ____
ROOT
ATOM      1  C   LIG    1       -4.030   4.522   5.127  0.00  0.00    +0.190 A 
ATOM      2  C   LIG    1       -3.842   5.398   4.068  0.00  0.00    -0.070 A 
ATOM      3  C   LIG    1       -2.745   5.253   3.240  0.00  0.00    +0.180 A 
ATOM      4  C   LIG    1       -1.843   4.229   3.458  0.00  0.00    -0.710 A 
ATOM      5  C   LIG    1       -2.028   3.354   4.512  0.00  0.00    +0.190 A 
ATOM      6  C   LIG    1       -3.119   3.498   5.348  0.00  0.00    -0.090 A 
ATOM      7 CL   LIG    1       -3.351   2.399   6.672  0.00  0.00    -0.030 Cl
ENDROOT
BRANCH   4   8
ATOM      8  S   LIG    1       -0.449   4.044   2.395  0.00  0.00    +2.700 S 
ATOM      9  O   LIG    1       -0.218   5.318   1.811  0.00  0.00    -0.950 OA
ATOM     10  O   LIG    1        0.534   3.341   3.142  0.00  0.00    -0.950 OA
BRANCH   8  11
ATOM     11  N   LIG    1       -0.905   3.039   1.160  0.00  0.00    -1.000 NA
ATOM     12  C   LIG    1       -0.732   1.581   1.268  0.00  0.00    +0.270 C 
ATOM     13  C   LIG    1       -0.013   1.086   0.008  0.00  0.00    +0.220 C 
ATOM     14  O   LIG    1       -0.706   1.560  -1.149  0.00  0.00    -0.380 OA
ATOM     15  C   LIG    1       -0.736   2.985  -1.270  0.00  0.00    +0.220 C 
ATOM     16  C   LIG    1       -1.493   3.577  -0.076  0.00  0.00    +0.260 C 
ENDBRANCH   8  11
ENDBRANCH   4   8
BRANCH   1  17
ATOM     17  O   LIG    1       -5.105   4.666   5.947  0.00  0.00    -0.270 OA
BRANCH  17  18
ATOM     18  C   LIG    1       -6.000   5.742   5.659  0.00  0.00    +0.230 C 
BRANCH  18  20
ATOM     19  O   LIG    1       -7.152   4.907   7.543  0.00  0.00    -0.510 OA
ATOM     20  C   LIG    1       -7.122   5.745   6.666  0.00  0.00    +0.520 C 
ATOM     21  N   LIG    1       -8.092   6.677   6.591  0.00  0.00    -0.720 N 
ATOM     22  H   LIG    1       -8.068   7.347   5.890  0.00  0.00    +0.410 HD
BRANCH  21  23
ATOM     23  C   LIG    1       -9.183   6.679   7.570  0.00  0.00    +0.270 C 
BRANCH  23  24
ATOM     24  C   LIG    1      -10.141   7.831   7.262  0.00  0.00    +0.160 C 
ATOM     25  C   LIG    1      -11.226   7.916   8.357  0.00  0.00    +0.020 C 
ATOM     26  C   LIG    1      -12.499   8.256   7.532  0.00  0.00    +0.010 C 
ATOM     27  C   LIG    1      -12.218   7.478   6.222  0.00  0.00    +0.200 C 
ATOM     28  O   LIG    1      -10.802   7.594   6.013  0.00  0.00    -0.380 OA
ENDBRANCH  23  24
ENDBRANCH  21  23
ENDBRANCH  18  20
ENDBRANCH  17  18
ENDBRANCH   1  17
TORSDOF 7
