REMARK  Name = ZINCrH000004rhHZ.0
REMARK                            x       y       z     vdW  Elec       q    Type
REMARK                         _______ _______ _______ _____ _____    ______ ____
ROOT
ATOM      1  C   LIG    1       -3.235   0.984  -1.434  0.00  0.00    +0.280 C 
ENDROOT
BRANCH   1   5
ATOM      2  N   LIG    1       -0.753   1.587   1.194  0.00  0.00    -0.470 N 
ATOM      3  C   LIG    1       -0.013   1.086   0.008  0.00  0.00    +0.170 C 
ATOM      4  C   LIG    1       -0.806   1.620  -1.204  0.00  0.00    +0.040 C 
ATOM      5  C   LIG    1       -2.235   1.858  -0.674  0.00  0.00    -0.010 C 
ATOM      6  C   LIG    1       -2.185   1.447   0.813  0.00  0.00    +0.190 C 
BRANCH   2  14
ATOM      7  C   LIG    1        0.425   2.905   3.423  0.00  0.00    +0.100 C 
ATOM      8  C   LIG    1        0.119   1.430   3.439  0.00  0.00    -0.050 A 
ATOM      9  C   LIG    1        0.405   0.677   4.561  0.00  0.00    +0.040 A 
ATOM     10  C   LIG    1        0.131  -0.678   4.575  0.00  0.00    +0.030 A 
ATOM     11  C   LIG    1       -0.438  -1.283   3.467  0.00  0.00    -0.030 A 
ATOM     12  C   LIG    1       -0.732  -0.534   2.344  0.00  0.00    -0.010 A 
ATOM     13 CL   LIG    1       -0.781  -2.985   3.490  0.00  0.00    -0.070 Cl
ATOM     14  C   LIG    1       -0.457   0.827   2.328  0.00  0.00    +0.090 A 
ENDBRANCH   2  14
ENDBRANCH   1   5
BRANCH   1  15
ATOM     15  N   LIG    1       -3.304   1.421  -2.830  0.00  0.00    -0.710 N 
ATOM     16  H   LIG    1       -2.759   2.164  -3.133  0.00  0.00    +0.410 HD
ATOM     17  C   LIG    1       -4.126   0.792  -3.694  0.00  0.00    +0.610 C 
ATOM     18  O   LIG    1       -4.810  -0.139  -3.314  0.00  0.00    -0.530 OA
BRANCH  17  19
ATOM     19  C   LIG    1       -4.195   1.233  -5.099  0.00  0.00    -0.070 A 
ATOM     20  C   LIG    1       -4.974   0.696  -6.077  0.00  0.00    +0.050 A 
ATOM     21  O   LIG    1       -4.731   1.393  -7.199  0.00  0.00    -0.180 OA
ATOM     22  C   LIG    1       -3.822   2.337  -6.916  0.00  0.00    +0.450 A 
ATOM     23  N   LIG    1       -3.497   2.257  -5.661  0.00  0.00    -0.470 NA
BRANCH  20  24
ATOM     24  C   LIG    1       -5.928  -0.462  -5.930  0.00  0.00    +0.280 C 
ATOM     25  C   LIG    1       -5.331  -1.735  -6.570  0.00  0.00    +0.020 C 
ATOM     26  C   LIG    1       -6.549  -2.440  -7.208  0.00  0.00    +0.010 C 
ATOM     27  C   LIG    1       -7.737  -1.510  -6.878  0.00  0.00    +0.210 C 
ATOM     28  O   LIG    1       -7.142  -0.210  -6.671  0.00  0.00    -0.370 OA
ENDBRANCH  20  24
ENDBRANCH  17  19
ENDBRANCH   1  15
TORSDOF 5
