REMARK  Name = ZINCrg000000tO6X.0
REMARK                            x       y       z     vdW  Elec       q    Type
REMARK                         _______ _______ _______ _____ _____    ______ ____
ROOT
ATOM      1  N   LIG    1       -0.487   1.577  -2.514  0.00  0.00    -1.100 NA
ATOM      2  H   LIG    1       -0.145   0.672  -2.447  0.00  0.00    +0.420 HD
ENDROOT
BRANCH   1   8
ATOM      3  O   LIG    1       -4.292   2.407   1.070  0.00  0.00    -0.520 OA
ATOM      4  C   LIG    1       -3.166   2.391   1.529  0.00  0.00    +0.580 C 
ATOM      5  N   LIG    1       -2.110   2.184   0.718  0.00  0.00    -0.620 N 
ATOM      6  C   LIG    1       -0.693   2.253   1.120  0.00  0.00    +0.250 C 
ATOM      7  C   LIG    1        0.149   1.974  -0.143  0.00  0.00    +0.050 C 
ATOM      8  C   LIG    1       -0.825   2.324  -1.299  0.00  0.00    +0.250 C 
ATOM      9  C   LIG    1       -2.181   1.853  -0.717  0.00  0.00    +0.270 C 
BRANCH   4  10
ATOM     10  C   LIG    1       -2.956   2.598   2.978  0.00  0.00    -0.130 A 
ATOM     11  C   LIG    1       -2.005   1.841   3.663  0.00  0.00    +0.040 A 
ATOM     12  C   LIG    1       -1.810   2.043   5.014  0.00  0.00    +0.010 A 
ATOM     13  C   LIG    1       -2.563   2.985   5.692  0.00  0.00    +0.030 A 
ATOM     14  C   LIG    1       -3.513   3.735   5.019  0.00  0.00    +0.010 A 
ATOM     15  C   LIG    1       -3.713   3.547   3.667  0.00  0.00    +0.060 A 
ENDBRANCH   4  10
ENDBRANCH   1   8
BRANCH   1  16
ATOM     16  S   LIG    1       -0.691   2.278  -4.000  0.00  0.00    +2.610 S 
ATOM     17  O   LIG    1       -2.025   2.765  -3.978  0.00  0.00    -0.930 OA
ATOM     18  O   LIG    1       -0.294   1.270  -4.920  0.00  0.00    -0.940 OA
BRANCH  16  19
ATOM     19  C   LIG    1        0.490   3.655  -4.017  0.00  0.00    -0.240 C 
BRANCH  19  20
ATOM     20  C   LIG    1        0.398   4.379  -5.335  0.00  0.00    +0.030 A 
ATOM     21  N   LIG    1        1.085   4.130  -6.420  0.00  0.00    -0.340 NA
ATOM     22  O   LIG    1        0.785   4.884  -7.325  0.00  0.00    +0.130 OA
ATOM     23  C   LIG    1       -0.148   5.747  -6.942  0.00  0.00    -0.010 A 
ATOM     24  C   LIG    1       -0.831   6.861  -7.693  0.00  0.00    +0.150 C 
ATOM     25  C   LIG    1       -2.084   7.258  -6.898  0.00  0.00    +0.250 C 
ATOM     26  O   LIG    1       -1.751   7.429  -5.518  0.00  0.00    -0.370 OA
ATOM     27  C   LIG    1       -1.442   6.208  -4.827  0.00  0.00    +0.330 C 
ATOM     28  C   LIG    1       -0.434   5.458  -5.646  0.00  0.00    -0.240 A 
ENDBRANCH  19  20
ENDBRANCH  16  19
ENDBRANCH   1  16
TORSDOF 5
