REMARK  Name = ZINCtV00000s4l8Y.0
REMARK                            x       y       z     vdW  Elec       q    Type
REMARK                         _______ _______ _______ _____ _____    ______ ____
ROOT
ATOM      1  C   LIG    1       -3.535   0.791  -0.008  0.00  0.00    +0.560 C 
ATOM      2  S   LIG    1       -3.866   2.377  -0.558  0.00  0.00    -0.610 S 
ENDROOT
BRANCH   1   3
ATOM      3  N   LIG    1       -4.543  -0.088   0.162  0.00  0.00    -0.670 N 
ATOM      4  H   LIG    1       -4.355  -0.987   0.474  0.00  0.00    +0.400 HD
BRANCH   3   6
ATOM      5  C   LIG    1       -6.515   1.010   1.103  0.00  0.00    +0.060 C 
ATOM      6  C   LIG    1       -5.922   0.315  -0.124  0.00  0.00    +0.310 C 
BRANCH   6   7
ATOM      7  C   LIG    1       -6.742  -0.904  -0.457  0.00  0.00    -0.100 A 
ATOM      8  C   LIG    1       -7.666  -0.838  -1.455  0.00  0.00    +0.050 A 
ATOM      9  C   LIG    1       -8.429  -1.975  -1.772  0.00  0.00    -0.050 A 
ATOM     10  C   LIG    1       -9.388  -1.947  -2.798  0.00  0.00    +0.030 A 
ATOM     11  C   LIG    1      -10.113  -3.066  -3.073  0.00  0.00    +0.020 A 
ATOM     12  C   LIG    1       -9.919  -4.242  -2.352  0.00  0.00    +0.020 A 
ATOM     13  C   LIG    1       -8.999  -4.306  -1.350  0.00  0.00    +0.020 A 
ATOM     14  C   LIG    1       -8.232  -3.171  -1.037  0.00  0.00    -0.050 A 
ATOM     15  C   LIG    1       -7.273  -3.199  -0.010  0.00  0.00    +0.030 A 
ATOM     16  C   LIG    1       -6.548  -2.080   0.265  0.00  0.00    +0.000 A 
ENDBRANCH   6   7
ENDBRANCH   3   6
ENDBRANCH   1   3
BRANCH   1  17
ATOM     17  N   LIG    1       -2.266   0.420   0.256  0.00  0.00    -0.630 N 
ATOM     18  H   LIG    1       -2.071  -0.496   0.509  0.00  0.00    +0.410 HD
BRANCH  17  19
ATOM     19  C   LIG    1       -1.229   1.357   0.163  0.00  0.00    +0.120 A 
ATOM     20  C   LIG    1       -1.174   2.228  -0.917  0.00  0.00    +0.110 A 
ATOM     21  C   LIG    1       -0.154   3.155  -1.006  0.00  0.00    +0.030 A 
ATOM     22  C   LIG    1        0.818   3.213  -0.017  0.00  0.00    +0.090 A 
ATOM     23  C   LIG    1        0.767   2.340   1.060  0.00  0.00    +0.010 A 
ATOM     24  C   LIG    1       -0.253   1.413   1.149  0.00  0.00    +0.020 A 
BRANCH  22  25
ATOM     25  O   LIG    1        1.822   4.125  -0.105  0.00  0.00    -0.260 OA
BRANCH  25  26
ATOM     26  C   LIG    1        3.059   3.682  -0.450  0.00  0.00    +0.120 A 
ATOM     27  C   LIG    1        3.277   2.329  -0.666  0.00  0.00    -0.070 A 
ATOM     28  C   LIG    1        4.535   1.881  -1.022  0.00  0.00    +0.050 A 
ATOM     29  C   LIG    1        5.578   2.779  -1.151  0.00  0.00    -0.020 A 
ATOM     30  C   LIG    1        5.365   4.127  -0.931  0.00  0.00    +0.050 A 
ATOM     31  C   LIG    1        4.109   4.580  -0.580  0.00  0.00    -0.020 A 
ENDBRANCH  25  26
ENDBRANCH  22  25
ENDBRANCH  17  19
ENDBRANCH   1  17
TORSDOF 7
