REMARK  Name = ZINCrD00000F5LHp.0
REMARK                            x       y       z     vdW  Elec       q    Type
REMARK                         _______ _______ _______ _____ _____    ______ ____
ROOT
ATOM      1  C   LIG    1       -0.967   1.585   0.674  0.00  0.00    +0.190 C 
ATOM      2  N   LIG    1       -0.280   1.492   1.766  0.00  0.00    -0.340 NA
ATOM      3  C   LIG    1       -0.300   1.357  -0.658  0.00  0.00    +0.100 C 
ENDROOT
BRANCH   1   7
ATOM      4  C   LIG    1       -5.103   2.535   0.842  0.00  0.00    +0.160 A 
ATOM      5  C   LIG    1       -4.366   2.435   2.017  0.00  0.00    +0.010 A 
ATOM      6  C   LIG    1       -3.024   2.127   1.966  0.00  0.00    +0.080 A 
ATOM      7  C   LIG    1       -2.404   1.915   0.732  0.00  0.00    -0.070 A 
ATOM      8  C   LIG    1       -3.146   2.022  -0.447  0.00  0.00    +0.070 A 
ATOM      9  C   LIG    1       -4.489   2.325  -0.388  0.00  0.00    -0.020 A 
BRANCH   4  12
ATOM     10  C   LIG    1       -8.412   3.898   2.000  0.00  0.00    +0.110 C 
ATOM     11  C   LIG    1       -6.931   3.651   1.873  0.00  0.00    +0.510 C 
ATOM     12  N   LIG    1       -6.463   2.848   0.897  0.00  0.00    -0.680 N 
ATOM     13  H   LIG    1       -7.071   2.486   0.233  0.00  0.00    +0.410 HD
ATOM     14  O   LIG    1       -6.160   4.174   2.649  0.00  0.00    -0.520 OA
ENDBRANCH   4  12
ENDBRANCH   1   7
BRANCH   2  15
ATOM     15  O   LIG    1        1.099   1.175   1.710  0.00  0.00    -0.210 OA
BRANCH  15  16
ATOM     16  C   LIG    1        1.732   1.105   2.990  0.00  0.00    +0.190 C 
ATOM     17  C   LIG    1        1.530  -0.291   3.582  0.00  0.00    +0.060 C 
BRANCH  16  18
ATOM     18  C   LIG    1        3.206   1.378   2.837  0.00  0.00    +0.530 C 
ATOM     19  N   LIG    1        3.963   1.618   3.925  0.00  0.00    -0.550 N 
ATOM     20  C   LIG    1        3.494   1.531   5.311  0.00  0.00    +0.270 C 
ATOM     21  C   LIG    1        4.715   1.891   6.173  0.00  0.00    +0.090 C 
ATOM     22  C   LIG    1        5.819   2.164   5.176  0.00  0.00    -0.140 A 
ATOM     23  C   LIG    1        7.137   2.531   5.362  0.00  0.00    +0.050 A 
ATOM     24  C   LIG    1        7.969   2.709   4.271  0.00  0.00    -0.010 A 
ATOM     25  C   LIG    1        7.473   2.534   2.993  0.00  0.00    +0.040 A 
ATOM     26  C   LIG    1        6.156   2.173   2.802  0.00  0.00    +0.010 A 
ATOM     27  C   LIG    1        5.313   1.982   3.898  0.00  0.00    +0.140 A 
ATOM     28  O   LIG    1        3.711   1.381   1.734  0.00  0.00    -0.500 OA
ENDBRANCH  16  18
ENDBRANCH  15  16
ENDBRANCH   2  15
TORSDOF 5
