REMARK  Name = ZINCpe000027pH4K.0
REMARK                            x       y       z     vdW  Elec       q    Type
REMARK                         _______ _______ _______ _____ _____    ______ ____
ROOT
ATOM      1  C   LIG    1       -4.202   1.622  -2.517  0.00  0.00    +0.050 C 
ATOM      2  C   LIG    1       -2.752   2.088  -2.376  0.00  0.00    +0.150 C 
ATOM      3  C   LIG    1       -2.089   1.349  -1.211  0.00  0.00    +0.190 C 
ATOM      4  N   LIG    1       -0.708   1.826  -1.053  0.00  0.00    -0.520 NA
ATOM      5  C   LIG    1       -0.681   3.272  -0.792  0.00  0.00    +0.190 C 
ATOM      6  C   LIG    1       -1.343   4.011  -1.956  0.00  0.00    +0.180 C 
ATOM      7  N   LIG    1       -2.724   3.534  -2.114  0.00  0.00    -0.520 NA
ENDROOT
BRANCH   4   8
ATOM      8  C   LIG    1       -0.013   1.086   0.008  0.00  0.00    +0.220 C 
BRANCH   8   9
ATOM      9  C   LIG    1        1.456   1.421  -0.025  0.00  0.00    +0.510 C 
ATOM     10  N   LIG    1        2.276   0.955   0.938  0.00  0.00    -0.720 N 
ATOM     11  H   LIG    1        1.920   0.404   1.653  0.00  0.00    +0.410 HD
ATOM     12  O   LIG    1        1.901   2.111  -0.918  0.00  0.00    -0.500 OA
BRANCH  10  13
ATOM     13  C   LIG    1        3.703   1.282   0.906  0.00  0.00    +0.280 C 
ATOM     14  C   LIG    1        4.348   0.708  -0.372  0.00  0.00    +0.050 C 
ATOM     15  C   LIG    1        5.753   0.242   0.088  0.00  0.00    +0.020 C 
ATOM     16  C   LIG    1        5.478  -0.331   1.500  0.00  0.00    +0.040 C 
ATOM     17  C   LIG    1        4.422   0.622   2.097  0.00  0.00    +0.050 C 
BRANCH  13  18
ATOM     18  C   LIG    1        3.888   2.741   0.953  0.00  0.00    +0.200 C 
ATOM     19  N   LIG    1        4.030   3.868   0.988  0.00  0.00    -0.410 NA
ENDBRANCH  13  18
ENDBRANCH  10  13
ENDBRANCH   8   9
ENDBRANCH   4   8
BRANCH   7  20
ATOM     20  C   LIG    1       -3.420   4.274  -3.175  0.00  0.00    +0.330 C 
BRANCH  20  21
ATOM     21  C   LIG    1       -2.780   3.966  -4.504  0.00  0.00    +0.170 A 
ATOM     22  N   LIG    1       -3.123   2.996  -5.307  0.00  0.00    -0.480 NA
ATOM     23  C   LIG    1       -2.339   3.024  -6.395  0.00  0.00    +0.140 A 
ATOM     24  C   LIG    1       -1.477   4.050  -6.261  0.00  0.00    +0.110 A 
ATOM     25  N   LIG    1       -1.760   4.651  -5.065  0.00  0.00    -0.450 N 
ATOM     26  C   LIG    1       -1.081   5.818  -4.496  0.00  0.00    +0.330 C 
ENDBRANCH  20  21
ENDBRANCH   7  20
TORSDOF 6
