REMARK  Name = ZINCrg000000s6Hk.0
REMARK                            x       y       z     vdW  Elec       q    Type
REMARK                         _______ _______ _______ _____ _____    ______ ____
ROOT
ATOM      1  C   LIG    1       -1.240   2.207  -0.140  0.00  0.00    +0.180 C 
ENDROOT
BRANCH   1   2
ATOM      2  C   LIG    1       -1.622   2.662   1.245  0.00  0.00    +0.530 C 
ATOM      3  N   LIG    1       -2.692   3.462   1.420  0.00  0.00    -0.620 N 
ATOM      4  C   LIG    1       -3.096   3.919   2.761  0.00  0.00    +0.300 C 
ATOM      5  C   LIG    1       -2.955   5.446   2.791  0.00  0.00    +0.100 C 
ATOM      6  C   LIG    1       -3.578   6.063   1.569  0.00  0.00    -0.230 A 
ATOM      7  C   LIG    1       -3.813   5.378   0.424  0.00  0.00    +0.160 A 
ATOM      8  N   LIG    1       -4.339   6.014  -0.633  0.00  0.00    -0.540 NA
ATOM      9  C   LIG    1       -4.649   7.280  -0.593  0.00  0.00    +0.590 A 
ATOM     10  N   LIG    1       -4.455   8.013   0.521  0.00  0.00    -0.630 N 
ATOM     11  H   LIG    1       -4.697   8.953   0.534  0.00  0.00    +0.420 HD
ATOM     12  C   LIG    1       -3.921   7.436   1.616  0.00  0.00    +0.520 A 
ATOM     13  O   LIG    1       -3.738   8.086   2.632  0.00  0.00    -0.530 OA
ATOM     14  C   LIG    1       -3.506   3.908   0.284  0.00  0.00    +0.370 C 
ATOM     15  O   LIG    1       -0.967   2.308   2.202  0.00  0.00    -0.520 OA
ENDBRANCH   1   2
BRANCH   1  19
ATOM     16  N   LIG    1        2.025   0.600  -0.022  0.00  0.00    -0.240 N 
ATOM     17  N   LIG    1        1.226  -0.401   0.110  0.00  0.00    -0.070 NA
ATOM     18  N   LIG    1        0.004   0.000   0.091  0.00  0.00    -0.250 NA
ATOM     19  C   LIG    1       -0.018   1.329  -0.060  0.00  0.00    -0.000 A 
ATOM     20  C   LIG    1        1.273   1.730  -0.135  0.00  0.00    +0.000 A 
ATOM     21  C   LIG    1        1.776   3.139  -0.308  0.00  0.00    +0.170 C 
BRANCH  16  26
ATOM     22  C   LIG    1        7.694   0.347  -0.118  0.00  0.00    +0.100 C 
ATOM     23  C   LIG    1        6.189   0.414  -0.093  0.00  0.00    -0.070 A 
ATOM     24  C   LIG    1        5.555   1.420   0.613  0.00  0.00    +0.040 A 
ATOM     25  C   LIG    1        4.176   1.484   0.638  0.00  0.00    +0.030 A 
ATOM     26  C   LIG    1        3.426   0.538  -0.046  0.00  0.00    +0.110 A 
ATOM     27  C   LIG    1        4.065  -0.474  -0.749  0.00  0.00    +0.050 A 
ATOM     28  C   LIG    1        5.445  -0.530  -0.775  0.00  0.00    +0.030 A 
ENDBRANCH  16  26
ENDBRANCH   1  19
TORSDOF 3
