REMARK  Name = ZINCrH00000tj14J.1
REMARK                            x       y       z     vdW  Elec       q    Type
REMARK                         _______ _______ _______ _____ _____    ______ ____
ROOT
ATOM      1  N   LIG    1        1.258   1.940   0.366  0.00  0.00    -0.600 N 
ATOM      2  C   LIG    1        0.220   1.101   0.177  0.00  0.00    +0.530 C 
ATOM      3  O   LIG    1        0.400  -0.099   0.197  0.00  0.00    -0.510 OA
ATOM      4  C   LIG    1        1.041   3.389   0.342  0.00  0.00    +0.290 C 
ENDROOT
BRANCH   2   5
ATOM      5  C   LIG    1       -1.161   1.652  -0.065  0.00  0.00    +0.170 C 
ATOM      6  C   LIG    1       -1.591   2.497   1.136  0.00  0.00    +0.030 C 
BRANCH   5   7
ATOM      7  N   LIG    1       -2.107   0.542  -0.245  0.00  0.00    -0.660 NA
ATOM      8  H   LIG    1       -2.451   0.212   0.644  0.00  0.00    +0.350 HD
BRANCH   7   9
ATOM      9  C   LIG    1       -3.214   0.932  -1.128  0.00  0.00    +0.190 C 
ATOM     10  C   LIG    1       -4.471   0.149  -0.746  0.00  0.00    +0.050 C 
BRANCH   9  11
ATOM     11  C   LIG    1       -2.848   0.628  -2.558  0.00  0.00    -0.080 A 
ATOM     12  C   LIG    1       -2.168  -0.536  -2.864  0.00  0.00    +0.070 A 
ATOM     13  C   LIG    1       -1.837  -0.818  -4.176  0.00  0.00    +0.020 A 
ATOM     14  C   LIG    1       -2.177   0.070  -5.181  0.00  0.00    -0.030 A 
ATOM     15  C   LIG    1       -2.853   1.237  -4.873  0.00  0.00    +0.020 A 
ATOM     16 CL   LIG    1       -1.755  -0.280  -6.829  0.00  0.00    -0.070 Cl
ATOM     17  C   LIG    1       -3.188   1.516  -3.562  0.00  0.00    +0.020 A 
ENDBRANCH   9  11
ENDBRANCH   7   9
ENDBRANCH   5   7
ENDBRANCH   2   5
BRANCH   1  18
ATOM     18  C   LIG    1        2.602   1.405   0.595  0.00  0.00    +0.330 C 
BRANCH  18  21
ATOM     19  N   LIG    1        4.564   0.752  -0.762  0.00  0.00    -0.670 N 
ATOM     20  H   LIG    1        5.039   0.573   0.065  0.00  0.00    +0.410 HD
ATOM     21  C   LIG    1        3.306   1.234  -0.726  0.00  0.00    +0.500 C 
ATOM     22  O   LIG    1        2.741   1.531  -1.758  0.00  0.00    -0.510 OA
BRANCH  19  27
ATOM     23  C   LIG    1        7.086  -0.232  -5.747  0.00  0.00    +0.100 C 
ATOM     24  C   LIG    1        6.416   0.029  -4.423  0.00  0.00    -0.100 A 
ATOM     25  C   LIG    1        5.551   1.099  -4.287  0.00  0.00    +0.020 A 
ATOM     26  C   LIG    1        4.936   1.342  -3.075  0.00  0.00    +0.020 A 
ATOM     27  C   LIG    1        5.186   0.509  -1.992  0.00  0.00    +0.140 A 
ATOM     28  C   LIG    1        6.059  -0.562  -2.131  0.00  0.00    -0.010 A 
ATOM     29  C   LIG    1        6.667  -0.802  -3.347  0.00  0.00    +0.030 A 
ENDBRANCH  19  27
ENDBRANCH  18  21
ENDBRANCH   1  18
TORSDOF 7
