REMARK  Name = ZINCvU0000000DwU.0
REMARK                            x       y       z     vdW  Elec       q    Type
REMARK                         _______ _______ _______ _____ _____    ______ ____
ROOT
ATOM      1  N   LIG    1        4.391   5.516  -0.674  0.00  0.00    -0.500 N 
ATOM      2  C   LIG    1        4.793   4.239  -0.510  0.00  0.00    +0.570 C 
ATOM      3  C   LIG    1        3.635   3.374  -0.234  0.00  0.00    +0.100 A 
ATOM      4  C   LIG    1        2.510   4.150  -0.238  0.00  0.00    -0.240 A 
ATOM      5  C   LIG    1        1.186   3.564  -0.003  0.00  0.00    +0.460 A 
ATOM      6  C   LIG    1        1.186   2.079   0.002  0.00  0.00    -0.200 A 
ATOM      7  C   LIG    1       -0.017   1.373   0.010  0.00  0.00    +0.120 A 
ATOM      8  C   LIG    1        0.002  -0.004   0.002  0.00  0.00    -0.100 A 
ATOM      9  C   LIG    1        1.212  -0.683  -0.012  0.00  0.00    +0.100 A 
ATOM     10  C   LIG    1        2.406   0.003  -0.017  0.00  0.00    +0.020 A 
ATOM     11  C   LIG    1       -1.293  -0.774   0.010  0.00  0.00    +0.100 C 
ATOM     12  C   LIG    1        2.414   1.397  -0.008  0.00  0.00    +0.130 A 
ATOM     13  O   LIG    1        0.182   4.231   0.172  0.00  0.00    -0.420 OA
ATOM     14  O   LIG    1        3.601   2.046  -0.007  0.00  0.00    -0.180 OA
ATOM     15  O   LIG    1        5.945   3.858  -0.581  0.00  0.00    -0.440 OA
ATOM     16  C   LIG    1        2.928   5.557  -0.514  0.00  0.00    +0.380 C 
ENDROOT
BRANCH  16  17
ATOM     17  C   LIG    1        2.556   6.448   0.643  0.00  0.00    -0.080 A 
ATOM     18  C   LIG    1        1.445   7.265   0.555  0.00  0.00    +0.090 A 
ATOM     19  C   LIG    1        1.102   8.083   1.616  0.00  0.00    +0.060 A 
ATOM     20  C   LIG    1        1.871   8.083   2.766  0.00  0.00    -0.020 A 
ATOM     21  C   LIG    1        2.984   7.264   2.853  0.00  0.00    -0.030 A 
ATOM     22 CL   LIG    1        3.950   7.263   4.296  0.00  0.00    -0.040 Cl
ATOM     23 CL   LIG    1        1.441   9.109   4.098  0.00  0.00    -0.040 Cl
ATOM     24  C   LIG    1        3.323   6.443   1.793  0.00  0.00    +0.050 A 
ENDBRANCH  16  17
BRANCH   1  28
ATOM     25  C   LIG    1        6.943   8.300  -1.424  0.00  0.00    +0.020 A 
ATOM     26  N   LIG    1        5.714   8.699  -1.349  0.00  0.00    -0.230 NA
ATOM     27  N   LIG    1        4.827   7.835  -1.111  0.00  0.00    -0.270 NA
ATOM     28  C   LIG    1        5.212   6.602  -0.946  0.00  0.00    +0.250 A 
ATOM     29  S   LIG    1        6.966   6.559  -1.139  0.00  0.00    +0.150 S 
BRANCH  25  31
ATOM     30  C   LIG    1        8.708   9.697  -0.383  0.00  0.00    +0.040 C 
ATOM     31  C   LIG    1        8.142   9.170  -1.703  0.00  0.00    +0.150 C 
ENDBRANCH  25  31
ENDBRANCH   1  28
TORSDOF 3
