REMARK  Name = ZINCkj00000y7DRh.0
REMARK                            x       y       z     vdW  Elec       q    Type
REMARK                         _______ _______ _______ _____ _____    ______ ____
ROOT
ATOM      1  N   LIG    1        0.393   2.432   1.988  0.00  0.00    -0.460 NA
ATOM      2  C   LIG    1       -0.634   1.605   1.318  0.00  0.00    +0.230 C 
ATOM      3  C   LIG    1       -0.013   1.086   0.008  0.00  0.00    +0.010 C 
ATOM      4  C   LIG    1        1.430   1.642  -0.003  0.00  0.00    +0.100 C 
ATOM      5  C   LIG    1        1.701   1.929   1.495  0.00  0.00    +0.220 C 
ENDROOT
BRANCH   1   9
ATOM      6  C   LIG    1       -2.126   3.035   6.169  0.00  0.00    +0.200 C 
ATOM      7  C   LIG    1       -0.893   2.594   5.423  0.00  0.00    +0.190 C 
ATOM      8  C   LIG    1       -0.843   2.727   4.051  0.00  0.00    +0.020 C 
ATOM      9  C   LIG    1        0.303   2.315   3.372  0.00  0.00    +0.230 C 
ATOM     10  C   LIG    1        1.354   1.777   4.114  0.00  0.00    -0.010 C 
ATOM     11  C   LIG    1        1.227   1.683   5.484  0.00  0.00    +0.370 C 
ATOM     12  N   LIG    1        0.126   2.084   6.091  0.00  0.00    -0.470 NA
ATOM     13  H   LIG    1        0.063   2.003   7.055  0.00  0.00    +0.450 HD
ENDBRANCH   1   9
BRANCH   4  14
ATOM     14  C   LIG    1        2.394   0.612  -0.532  0.00  0.00    -0.250 A 
ATOM     15  C   LIG    1        3.181   0.745  -1.625  0.00  0.00    +0.250 A 
ATOM     16  N   LIG    1        3.896  -0.391  -1.758  0.00  0.00    -0.370 N 
ATOM     17  N   LIG    1        3.531  -1.255  -0.717  0.00  0.00    -0.290 NA
ATOM     18  C   LIG    1        4.877  -0.674  -2.809  0.00  0.00    +0.350 C 
ATOM     19  C   LIG    1        2.631  -0.652   0.017  0.00  0.00    +0.230 A 
ENDBRANCH   4  14
BRANCH   3  20
ATOM     20  C   LIG    1       -0.794   1.612  -1.198  0.00  0.00    +0.180 C 
BRANCH  20  21
ATOM     21  O   LIG    1       -2.095   1.022  -1.217  0.00  0.00    -0.580 OA
ATOM     22  H   LIG    1       -2.647   1.311  -1.956  0.00  0.00    +0.390 HD
ENDBRANCH  20  21
ENDBRANCH   3  20
TORSDOF 4
