REMARK  Name = ZINCnE000001JE3B.1
REMARK                            x       y       z     vdW  Elec       q    Type
REMARK                         _______ _______ _______ _____ _____    ______ ____
ROOT
ATOM      1  N   LIG    1        2.451   2.947  -0.006  0.00  0.00    -0.680 NA
ATOM      2  C   LIG    1        3.797   2.863  -0.019  0.00  0.00    +0.470 C 
ATOM      3  O   LIG    1        4.337   1.778  -0.030  0.00  0.00    -0.550 OA
ENDROOT
BRANCH   1   7
ATOM      4  C   LIG    1        0.002  -0.004   0.002  0.00  0.00    -0.410 A 
ATOM      5  C   LIG    1        1.311  -0.403  -0.013  0.00  0.00    +0.360 A 
ATOM      6  N   LIG    1        2.168   0.584  -0.015  0.00  0.00    -0.560 NA
ATOM      7  C   LIG    1        1.687   1.793  -0.004  0.00  0.00    +0.350 A 
ATOM      8  S   LIG    1       -0.022   1.758   0.012  0.00  0.00    +0.080 S 
BRANCH   4   9
ATOM      9  C   LIG    1       -1.166  -0.882   0.009  0.00  0.00    +0.560 C 
ATOM     10  O   LIG    1       -1.020  -2.089   0.001  0.00  0.00    -0.540 OA
BRANCH   9  12
ATOM     11  C   LIG    1       -3.504  -1.269   0.028  0.00  0.00    +0.230 C 
ATOM     12  O   LIG    1       -2.408  -0.352   0.023  0.00  0.00    -0.360 OA
ENDBRANCH   9  12
ENDBRANCH   4   9
ENDBRANCH   1   7
BRANCH   2  13
ATOM     13  C   LIG    1        4.629   4.119  -0.021  0.00  0.00    +0.030 C 
BRANCH  13  14
ATOM     14  C   LIG    1        6.113   3.747  -0.037  0.00  0.00    -0.030 C 
ATOM     15  C   LIG    1        6.421   2.930  -1.293  0.00  0.00    +0.030 C 
ATOM     16  C   LIG    1        7.905   2.558  -1.309  0.00  0.00    -0.020 C 
ATOM     17  C   LIG    1        8.236   1.728  -0.067  0.00  0.00    +0.010 C 
ATOM     18  C   LIG    1        7.929   2.546   1.189  0.00  0.00    -0.020 C 
ATOM     19  C   LIG    1        8.774   3.821   1.187  0.00  0.00    +0.000 C 
ATOM     20  C   LIG    1        8.443   4.651  -0.055  0.00  0.00    -0.020 C 
ATOM     21  C   LIG    1        8.750   3.833  -1.311  0.00  0.00    +0.000 C 
ATOM     22  C   LIG    1        6.445   2.917   1.205  0.00  0.00    +0.030 C 
ATOM     23  C   LIG    1        6.959   5.022  -0.039  0.00  0.00    +0.020 C 
ENDBRANCH  13  14
ENDBRANCH   2  13
TORSDOF 5
