REMARK  Name = ZINCrD000000CWIv.0
REMARK                            x       y       z     vdW  Elec       q    Type
REMARK                         _______ _______ _______ _____ _____    ______ ____
ROOT
ATOM      1  N   LIG    1        2.403   4.264  -0.228  0.00  0.00    -0.670 N 
ATOM      2  H   LIG    1        2.553   5.216  -0.331  0.00  0.00    +0.410 HD
ATOM      3  C   LIG    1        3.448   3.435  -0.033  0.00  0.00    +0.530 C 
ATOM      4  O   LIG    1        3.278   2.234  -0.039  0.00  0.00    -0.510 OA
ENDROOT
BRANCH   1   9
ATOM      5  C   LIG    1       -1.248   3.986   0.146  0.00  0.00    +0.200 A 
ATOM      6  C   LIG    1       -1.470   2.727  -0.399  0.00  0.00    -0.040 A 
ATOM      7  C   LIG    1       -0.408   1.981  -0.874  0.00  0.00    +0.060 A 
ATOM      8  C   LIG    1        0.875   2.489  -0.821  0.00  0.00    +0.010 A 
ATOM      9  C   LIG    1        1.103   3.750  -0.282  0.00  0.00    +0.170 A 
ATOM     10  C   LIG    1        0.040   4.498   0.202  0.00  0.00    -0.020 A 
BRANCH   5  16
ATOM     11  O   LIG    1       -1.185   6.552   1.311  0.00  0.00    -0.500 OA
ATOM     12  C   LIG    1       -2.237   5.958   1.180  0.00  0.00    +0.640 C 
ATOM     13  O   LIG    1       -3.414   6.463   1.564  0.00  0.00    -0.320 OA
ATOM     14  C   LIG    1       -4.472   5.505   1.275  0.00  0.00    +0.260 C 
ATOM     15  C   LIG    1       -3.732   4.314   0.634  0.00  0.00    +0.260 C 
ATOM     16  N   LIG    1       -2.324   4.737   0.633  0.00  0.00    -0.570 N 
ENDBRANCH   5  16
ENDBRANCH   1   9
BRANCH   3  17
ATOM     17  C   LIG    1        4.826   4.000   0.193  0.00  0.00    -0.030 C 
ATOM     18  C   LIG    1        5.191   4.938  -0.962  0.00  0.00    +0.030 C 
ATOM     19  C   LIG    1        5.239   4.133  -2.265  0.00  0.00    +0.210 C 
ATOM     20  O   LIG    1        6.183   3.068  -2.132  0.00  0.00    -0.380 OA
ATOM     21  C   LIG    1        5.868   2.135  -1.098  0.00  0.00    +0.220 C 
ATOM     22  C   LIG    1        5.845   2.858   0.251  0.00  0.00    +0.040 C 
BRANCH  17  23
ATOM     23  C   LIG    1        4.851   4.765   1.491  0.00  0.00    -0.080 A 
ATOM     24  C   LIG    1        4.660   4.101   2.688  0.00  0.00    +0.010 A 
ATOM     25  C   LIG    1        4.688   4.802   3.879  0.00  0.00    +0.010 A 
ATOM     26  C   LIG    1        4.896   6.168   3.873  0.00  0.00    +0.010 A 
ATOM     27  C   LIG    1        5.082   6.833   2.675  0.00  0.00    +0.020 A 
ATOM     28  C   LIG    1        5.060   6.131   1.484  0.00  0.00    +0.020 A 
ENDBRANCH  17  23
ENDBRANCH   3  17
TORSDOF 4
