REMARK  Name = ZINCpe00000MJKBM.1
REMARK                            x       y       z     vdW  Elec       q    Type
REMARK                         _______ _______ _______ _____ _____    ______ ____
ROOT
ATOM      1  N   LIG    1       -0.709   1.564   1.212  0.00  0.00    -0.590 N 
ATOM      2  C   LIG    1       -0.001   1.088   0.014  0.00  0.00    +0.340 C 
ATOM      3  C   LIG    1       -0.746   1.590  -1.228  0.00  0.00    +0.200 C 
ATOM      4  N   LIG    1       -0.909   3.048  -1.141  0.00  0.00    -0.490 N 
ATOM      5  C   LIG    1       -1.738   3.423   0.012  0.00  0.00    +0.210 C 
ATOM      6  C   LIG    1       -1.034   2.996   1.304  0.00  0.00    +0.300 C 
ENDROOT
BRANCH   1  11
ATOM      7  O   LIG    1       -2.469   0.797   5.384  0.00  0.00    -0.520 OA
ATOM      8  C   LIG    1       -1.972   0.363   4.360  0.00  0.00    +0.600 A 
ATOM      9  N   LIG    1       -1.615   1.194   3.355  0.00  0.00    -0.670 N 
ATOM     10  H   LIG    1       -1.756   2.149   3.447  0.00  0.00    +0.410 HD
ATOM     11  C   LIG    1       -1.060   0.695   2.214  0.00  0.00    +0.680 A 
ATOM     12  N   LIG    1       -0.854  -0.591   2.042  0.00  0.00    -0.600 NA
ATOM     13  C   LIG    1       -1.176  -1.478   2.993  0.00  0.00    +0.390 A 
ATOM     14  N   LIG    1       -1.078  -2.831   3.092  0.00  0.00    -0.460 N 
ATOM     15  H   LIG    1       -0.718  -3.426   2.416  0.00  0.00    +0.450 HD
ATOM     16  N   LIG    1       -1.587  -3.218   4.338  0.00  0.00    -0.280 NA
ATOM     17  C   LIG    1       -1.986  -2.164   4.993  0.00  0.00    +0.350 A 
ATOM     18  C   LIG    1       -1.752  -1.028   4.192  0.00  0.00    -0.380 A 
ENDBRANCH   1  11
BRANCH   4  19
ATOM     19  C   LIG    1       -1.436   3.564  -2.326  0.00  0.00    +0.160 A 
ATOM     20  C   LIG    1       -1.725   2.715  -3.387  0.00  0.00    -0.020 A 
ATOM     21  C   LIG    1       -2.252   3.228  -4.556  0.00  0.00    +0.140 A 
ATOM     22  C   LIG    1       -2.481   4.587  -4.676  0.00  0.00    -0.070 A 
ATOM     23  C   LIG    1       -2.189   5.435  -3.623  0.00  0.00    +0.130 A 
ATOM     24  C   LIG    1       -1.668   4.928  -2.449  0.00  0.00    +0.010 A 
BRANCH  22  25
ATOM     25  N   LIG    1       -3.039   5.134  -5.932  0.00  0.00    +0.030 N 
ATOM     26  O   LIG    1       -3.296   4.388  -6.860  0.00  0.00    -0.160 OA
ATOM     27  O   LIG    1       -3.241   6.330  -6.039  0.00  0.00    -0.160 OA
ENDBRANCH  22  25
ENDBRANCH   4  19
TORSDOF 3
