REMARK  Name = ZINCpe00000MJKBM.0
REMARK                            x       y       z     vdW  Elec       q    Type
REMARK                         _______ _______ _______ _____ _____    ______ ____
ROOT
ATOM      1  N   LIG    1        0.842  -0.466   1.117  0.00  0.00    -0.600 N 
ATOM      2  C   LIG    1       -0.064   0.169   0.148  0.00  0.00    +0.310 C 
ATOM      3  C   LIG    1        0.107   1.688   0.244  0.00  0.00    +0.200 C 
ATOM      4  N   LIG    1        1.527   2.029   0.082  0.00  0.00    -0.480 N 
ATOM      5  C   LIG    1        2.339   1.457   1.164  0.00  0.00    +0.210 C 
ATOM      6  C   LIG    1        2.259  -0.072   1.106  0.00  0.00    +0.340 C 
ENDROOT
BRANCH   1  11
ATOM      7  O   LIG    1       -2.598  -3.102   2.624  0.00  0.00    -0.510 OA
ATOM      8  C   LIG    1       -1.444  -2.734   2.732  0.00  0.00    +0.610 A 
ATOM      9  N   LIG    1       -0.918  -1.816   1.889  0.00  0.00    -0.670 N 
ATOM     10  H   LIG    1       -1.472  -1.444   1.185  0.00  0.00    +0.410 HD
ATOM     11  C   LIG    1        0.378  -1.402   2.009  0.00  0.00    +0.670 A 
ATOM     12  N   LIG    1        1.203  -1.846   2.919  0.00  0.00    -0.560 NA
ATOM     13  C   LIG    1        0.814  -2.768   3.839  0.00  0.00    +0.330 A 
ATOM     14  N   LIG    1        1.394  -3.382   4.843  0.00  0.00    -0.280 NA
ATOM     15  N   LIG    1        0.474  -4.251   5.442  0.00  0.00    -0.450 N 
ATOM     16  H   LIG    1        0.659  -4.820   6.205  0.00  0.00    +0.450 HD
ATOM     17  C   LIG    1       -0.703  -4.180   4.801  0.00  0.00    +0.380 A 
ATOM     18  C   LIG    1       -0.569  -3.269   3.781  0.00  0.00    -0.380 A 
ENDBRANCH   1  11
BRANCH   4  19
ATOM     19  C   LIG    1        1.704   3.412  -0.001  0.00  0.00    +0.170 A 
ATOM     20  C   LIG    1        0.606   4.259   0.068  0.00  0.00    -0.020 A 
ATOM     21  C   LIG    1        0.785   5.626  -0.009  0.00  0.00    +0.140 A 
ATOM     22  C   LIG    1        2.055   6.151  -0.164  0.00  0.00    -0.070 A 
ATOM     23  C   LIG    1        3.150   5.310  -0.238  0.00  0.00    +0.130 A 
ATOM     24  C   LIG    1        2.979   3.942  -0.157  0.00  0.00    +0.010 A 
BRANCH  22  25
ATOM     25  N   LIG    1        2.243   7.617  -0.252  0.00  0.00    +0.030 N 
ATOM     26  O   LIG    1        1.279   8.359  -0.188  0.00  0.00    -0.160 OA
ATOM     27  O   LIG    1        3.360   8.081  -0.390  0.00  0.00    -0.160 OA
ENDBRANCH  22  25
ENDBRANCH   4  19
TORSDOF 3
