REMARK  Name = ZINCvU0000000FRp.0
REMARK                            x       y       z     vdW  Elec       q    Type
REMARK                         _______ _______ _______ _____ _____    ______ ____
ROOT
ATOM      1  O   LIG    1        3.793  -2.177   0.274  0.00  0.00    -0.510 OA
ATOM      2  C   LIG    1        2.792  -2.848   0.119  0.00  0.00    +0.560 C 
ATOM      3  N   LIG    1        1.593  -2.247  -0.016  0.00  0.00    -0.650 N 
ATOM      4  H   LIG    1        0.787  -2.783  -0.091  0.00  0.00    +0.430 HD
ENDROOT
BRANCH   2   5
ATOM      5  C   LIG    1        2.888  -4.322   0.079  0.00  0.00    -0.120 A 
ATOM      6  C   LIG    1        1.739  -5.095  -0.093  0.00  0.00    +0.050 A 
ATOM      7  C   LIG    1        1.833  -6.471  -0.138  0.00  0.00    +0.030 A 
ATOM      8  C   LIG    1        3.062  -7.089   0.001  0.00  0.00    +0.050 A 
ATOM      9  C   LIG    1        4.211  -6.329   0.179  0.00  0.00    +0.080 A 
ATOM     10  C   LIG    1        4.128  -4.947   0.218  0.00  0.00    +0.070 A 
BRANCH   9  11
ATOM     11  O   LIG    1        5.417  -6.941   0.315  0.00  0.00    -0.250 OA
BRANCH  11  12
ATOM     12  C   LIG    1        6.053  -6.839   1.511  0.00  0.00    +0.120 A 
ATOM     13  C   LIG    1        5.423  -6.223   2.583  0.00  0.00    -0.060 A 
ATOM     14  C   LIG    1        6.071  -6.125   3.799  0.00  0.00    +0.050 A 
ATOM     15  C   LIG    1        7.349  -6.631   3.946  0.00  0.00    -0.020 A 
ATOM     16  C   LIG    1        7.981  -7.241   2.878  0.00  0.00    +0.050 A 
ATOM     17  C   LIG    1        7.336  -7.346   1.661  0.00  0.00    -0.010 A 
ENDBRANCH  11  12
ENDBRANCH   9  11
ENDBRANCH   2   5
BRANCH   3  18
ATOM     18  C   LIG    1        1.509  -0.851  -0.047  0.00  0.00    +0.160 A 
ATOM     19  C   LIG    1        2.476  -0.082   0.584  0.00  0.00    +0.110 A 
ATOM     20  C   LIG    1        2.391   1.297   0.552  0.00  0.00    -0.160 A 
ATOM     21  C   LIG    1        1.344   1.915  -0.107  0.00  0.00    +0.090 A 
ATOM     22  C   LIG    1        0.377   1.156  -0.739  0.00  0.00    +0.040 A 
ATOM     23  C   LIG    1        0.454  -0.228  -0.712  0.00  0.00    +0.150 A 
BRANCH  23  24
ATOM     24  N   LIG    1       -0.528  -0.999  -1.352  0.00  0.00    -0.330 N 
ATOM     25  C   LIG    1       -1.656  -0.549  -1.934  0.00  0.00    +0.510 A 
ATOM     26  N   LIG    1       -2.301  -1.580  -2.419  0.00  0.00    -0.530 NA
ATOM     27  C   LIG    1       -1.625  -2.699  -2.160  0.00  0.00    +0.460 A 
ATOM     28  N   LIG    1       -0.532  -2.395  -1.509  0.00  0.00    -0.340 NA
ENDBRANCH  23  24
BRANCH  20  29
ATOM     29  C   LIG    1        3.442   2.130   1.239  0.00  0.00    +0.510 C 
ATOM     30  F   LIG    1        3.951   1.427   2.337  0.00  0.00    -0.170 F 
ATOM     31  F   LIG    1        2.873   3.331   1.677  0.00  0.00    -0.170 F 
ATOM     32  F   LIG    1        4.479   2.406   0.341  0.00  0.00    -0.170 F 
ENDBRANCH  20  29
ENDBRANCH   3  18
TORSDOF 6
