REMARK  Name = ZINCvU00000005Jc.0
REMARK                            x       y       z     vdW  Elec       q    Type
REMARK                         _______ _______ _______ _____ _____    ______ ____
ROOT
ATOM      1  C   LIG    1       -0.507  -2.336   5.046  0.00  0.00    +0.180 C 
ENDROOT
BRANCH   1   2
ATOM      2  N   LIG    1       -0.300  -3.298   6.137  0.00  0.00    -0.520 NA
ATOM      3  C   LIG    1        0.980  -4.001   5.982  0.00  0.00    +0.180 C 
ATOM      4  C   LIG    1        1.230  -4.885   7.206  0.00  0.00    +0.060 C 
ATOM      5  C   LIG    1        0.085  -5.893   7.343  0.00  0.00    +0.080 C 
ATOM      6  C   LIG    1       -1.241  -5.136   7.455  0.00  0.00    +0.060 C 
ATOM      7  C   LIG    1       -1.419  -4.245   6.223  0.00  0.00    +0.180 C 
BRANCH   5   8
ATOM      8  C   LIG    1        0.294  -6.727   8.581  0.00  0.00    +0.100 A 
ATOM      9  N   LIG    1        0.374  -6.250   9.765  0.00  0.00    -0.460 NA
ATOM     10  C   LIG    1        0.558  -7.114  10.781  0.00  0.00    +0.080 A 
ATOM     11  C   LIG    1        0.675  -6.868  12.164  0.00  0.00    +0.080 A 
ATOM     12  C   LIG    1        0.867  -7.897  13.034  0.00  0.00    +0.030 A 
ATOM     13  C   LIG    1        0.951  -9.206  12.580  0.00  0.00    +0.040 A 
ATOM     14  C   LIG    1        0.840  -9.477  11.234  0.00  0.00    +0.060 A 
ATOM     15  C   LIG    1        0.643  -8.436  10.329  0.00  0.00    -0.180 A 
ATOM     16  S   LIG    1        0.463  -8.425   8.578  0.00  0.00    +0.090 S 
ENDBRANCH   5   8
ENDBRANCH   1   2
BRANCH   1  17
ATOM     17  C   LIG    1        0.523  -1.240   5.140  0.00  0.00    +0.420 C 
ATOM     18  O   LIG    1        1.350  -1.259   6.029  0.00  0.00    -0.440 OA
BRANCH  17  21
ATOM     19  N   LIG    1       -0.020   1.094   2.454  0.00  0.00    -0.460 N 
ATOM     20  C   LIG    1       -0.339  -0.025   3.131  0.00  0.00    +0.310 A 
ATOM     21  C   LIG    1        0.528  -0.188   4.191  0.00  0.00    -0.260 A 
ATOM     22  C   LIG    1        1.460   0.955   4.138  0.00  0.00    -0.060 A 
ATOM     23  C   LIG    1        2.543   1.356   4.915  0.00  0.00    +0.060 A 
ATOM     24  C   LIG    1        3.227   2.508   4.591  0.00  0.00    +0.000 A 
ATOM     25  C   LIG    1        2.839   3.266   3.496  0.00  0.00    +0.030 A 
ATOM     26  C   LIG    1        1.769   2.880   2.718  0.00  0.00    +0.000 A 
ATOM     27  C   LIG    1        1.069   1.718   3.027  0.00  0.00    +0.080 A 
BRANCH  19  28
ATOM     28  C   LIG    1       -0.729   1.579   1.267  0.00  0.00    +0.320 C 
BRANCH  28  29
ATOM     29  C   LIG    1       -0.013   1.086   0.008  0.00  0.00    +0.200 C 
BRANCH  29  31
ATOM     30  N   LIG    1       -1.274   1.950  -2.105  0.00  0.00    -0.410 NA
ATOM     31  C   LIG    1       -0.725   1.573  -1.185  0.00  0.00    +0.200 C 
ENDBRANCH  29  31
ENDBRANCH  28  29
ENDBRANCH  19  28
ENDBRANCH  17  21
ENDBRANCH   1  17
TORSDOF 7
