REMARK  Name = ZINCpe00000gMGsO.0
REMARK                            x       y       z     vdW  Elec       q    Type
REMARK                         _______ _______ _______ _____ _____    ______ ____
ROOT
ATOM      1  C   LIG    1        2.475   1.077  -0.016  0.00  0.00    +0.520 C 
ATOM      2  O   LIG    1        2.495  -0.138  -0.022  0.00  0.00    -0.500 OA
ENDROOT
BRANCH   1   3
ATOM      3  C   LIG    1        1.186   1.794   0.000  0.00  0.00    -0.120 A 
ATOM      4  C   LIG    1        1.162   3.192   0.008  0.00  0.00    +0.110 A 
ATOM      5  C   LIG    1       -0.040   3.863   0.022  0.00  0.00    +0.020 A 
ATOM      6  C   LIG    1       -1.233   3.152   0.030  0.00  0.00    +0.130 A 
ATOM      7  N   LIG    1       -2.567   3.538   0.044  0.00  0.00    -0.640 N 
ATOM      8  H   LIG    1       -2.893   4.451   0.052  0.00  0.00    +0.440 HD
ATOM      9  C   LIG    1       -3.332   2.430   0.030  0.00  0.00    +0.680 A 
ATOM     10  N   LIG    1       -2.547   1.336   0.021  0.00  0.00    -0.540 N 
ATOM     11  C   LIG    1       -3.011  -0.053   0.015  0.00  0.00    +0.350 C 
ATOM     12  O   LIG    1       -4.549   2.419   0.036  0.00  0.00    -0.550 OA
ATOM     13  C   LIG    1       -1.217   1.753   0.017  0.00  0.00    +0.080 A 
ATOM     14  C   LIG    1       -0.013   1.076   0.008  0.00  0.00    +0.120 A 
ENDBRANCH   1   3
BRANCH   1  15
ATOM     15  O   LIG    1        3.631   1.770  -0.023  0.00  0.00    -0.320 OA
BRANCH  15  17
ATOM     16  C   LIG    1        5.307   0.721   1.398  0.00  0.00    +0.070 C 
ATOM     17  C   LIG    1        4.861   1.000  -0.039  0.00  0.00    +0.200 C 
BRANCH  17  18
ATOM     18  C   LIG    1        5.933   1.780  -0.755  0.00  0.00    +0.510 C 
ATOM     19  N   LIG    1        7.138   1.218  -0.982  0.00  0.00    -0.640 N 
ATOM     20  H   LIG    1        7.314   0.312  -0.684  0.00  0.00    +0.430 HD
ATOM     21  O   LIG    1        5.712   2.912  -1.128  0.00  0.00    -0.440 OA
BRANCH  19  22
ATOM     22  C   LIG    1        8.126   1.937  -1.643  0.00  0.00    +0.540 A 
ATOM     23  N   LIG    1        7.866   3.171  -2.047  0.00  0.00    -0.510 NA
ATOM     24  C   LIG    1        8.786   3.885  -2.675  0.00  0.00    +0.350 A 
ATOM     25  C   LIG    1       10.030   3.322  -2.916  0.00  0.00    -0.110 A 
ATOM     26  C   LIG    1       10.266   2.027  -2.483  0.00  0.00    +0.360 A 
ATOM     27  N   LIG    1        9.303   1.371  -1.857  0.00  0.00    -0.550 NA
ENDBRANCH  19  22
ENDBRANCH  17  18
ENDBRANCH  15  17
ENDBRANCH   1  15
TORSDOF 5
