REMARK  Name = ZINCrD00000hQ6Bd.0
REMARK                            x       y       z     vdW  Elec       q    Type
REMARK                         _______ _______ _______ _____ _____    ______ ____
ROOT
ATOM      1  C   LIG    1        1.511  -0.172  -7.584  0.00  0.00    +0.550 C 
ATOM      2  N   LIG    1        1.139   0.253  -6.361  0.00  0.00    -0.620 N 
ATOM      3  C   LIG    1        0.007   1.144  -6.013  0.00  0.00    +0.280 C 
ATOM      4  C   LIG    1       -0.583   0.542  -4.721  0.00  0.00    -0.080 C 
ATOM      5  C   LIG    1       -0.881   1.678  -3.728  0.00  0.00    +0.270 C 
ATOM      6  N   LIG    1       -0.288   1.272  -2.443  0.00  0.00    -0.620 N 
ATOM      7  C   LIG    1        0.899   0.464  -2.764  0.00  0.00    +0.280 C 
ATOM      8  C   LIG    1       -0.742   1.585  -1.213  0.00  0.00    +0.530 C 
ATOM      9  O   LIG    1       -1.736   2.268  -1.088  0.00  0.00    -0.530 OA
ATOM     10  C   LIG    1       -1.818  -0.317  -4.999  0.00  0.00    +0.050 C 
ATOM     11  C   LIG    1        0.584  -0.259  -4.088  0.00  0.00    -0.080 C 
ATOM     12  C   LIG    1        0.235  -1.736  -3.896  0.00  0.00    +0.060 C 
ATOM     13  C   LIG    1        1.768  -0.064  -5.058  0.00  0.00    +0.280 C 
ATOM     14  O   LIG    1        0.888   0.179  -8.564  0.00  0.00    -0.530 OA
ENDROOT
BRANCH   1  18
ATOM     15  C   LIG    1        5.058  -2.656  -9.862  0.00  0.00    +0.040 C 
ATOM     16  C   LIG    1        4.520  -1.322  -9.340  0.00  0.00    +0.140 C 
ATOM     17  C   LIG    1        2.984  -1.381  -9.228  0.00  0.00    +0.050 C 
ATOM     18  C   LIG    1        2.701  -1.084  -7.735  0.00  0.00    -0.030 C 
ATOM     19  C   LIG    1        4.004  -0.370  -7.293  0.00  0.00    +0.230 C 
ATOM     20  O   LIG    1        5.036  -1.070  -8.022  0.00  0.00    -0.370 OA
ENDBRANCH   1  18
BRANCH   8  21
ATOM     21  C   LIG    1       -0.013   1.086   0.008  0.00  0.00    +0.040 C 
BRANCH  21  22
ATOM     22  C   LIG    1       -0.729   1.579   1.267  0.00  0.00    +0.030 C 
BRANCH  22  23
ATOM     23  C   LIG    1        0.011   1.072   2.506  0.00  0.00    +0.010 C 
BRANCH  23  24
ATOM     24  C   LIG    1       -0.705   1.566   3.765  0.00  0.00    -0.070 C 
ATOM     25  C   LIG    1       -0.726   3.096   3.774  0.00  0.00    +0.010 C 
ATOM     26  C   LIG    1        0.035   1.059   5.005  0.00  0.00    +0.010 C 
ATOM     27  C   LIG    1       -2.140   1.036   3.776  0.00  0.00    +0.010 C 
ENDBRANCH  23  24
ENDBRANCH  22  23
ENDBRANCH  21  22
ENDBRANCH   8  21
TORSDOF 5
