REMARK  Name = ZINCrg00001Jdv0V.0
REMARK                            x       y       z     vdW  Elec       q    Type
REMARK                         _______ _______ _______ _____ _____    ______ ____
ROOT
ATOM      1  C   LIG    1       -0.986  -0.803  -0.446  0.00  0.00    +0.560 C 
ATOM      2  N   LIG    1        0.002  -0.004   0.002  0.00  0.00    -0.610 N 
ATOM      3  C   LIG    1       -0.018   1.483   0.010  0.00  0.00    +0.270 C 
ATOM      4  C   LIG    1        1.465   1.856  -0.002  0.00  0.00    -0.020 C 
ATOM      5  C   LIG    1        1.847   3.215   0.548  0.00  0.00    +0.250 C 
ATOM      6  O   LIG    1        3.285   3.269   0.545  0.00  0.00    -0.380 OA
ATOM      7  C   LIG    1        3.970   2.263   1.283  0.00  0.00    +0.210 C 
ATOM      8  C   LIG    1        3.529   0.845   0.875  0.00  0.00    +0.040 C 
ATOM      9  C   LIG    1        2.020   0.806   1.007  0.00  0.00    -0.100 C 
ATOM     10  C   LIG    1        1.295  -0.458   0.570  0.00  0.00    +0.290 C 
ATOM     11  O   LIG    1       -0.857  -2.011  -0.403  0.00  0.00    -0.520 OA
ENDROOT
BRANCH   1  13
ATOM     12  C   LIG    1       -3.210  -1.008  -1.435  0.00  0.00    +0.060 C 
ATOM     13  C   LIG    1       -2.226  -0.212  -0.989  0.00  0.00    +0.040 C 
BRANCH  12  14
ATOM     14  C   LIG    1       -4.448  -0.417  -1.978  0.00  0.00    +0.490 C 
ATOM     15  O   LIG    1       -4.577   0.790  -2.020  0.00  0.00    -0.500 OA
BRANCH  14  17
ATOM     16  C   LIG    1       -6.626  -0.566  -2.946  0.00  0.00    +0.290 C 
ATOM     17  O   LIG    1       -5.436  -1.217  -2.425  0.00  0.00    -0.350 OA
ENDBRANCH  14  17
ENDBRANCH  12  14
ENDBRANCH   1  13
BRANCH   9  18
ATOM     18  C   LIG    1        1.614   1.172   2.436  0.00  0.00    +0.280 C 
BRANCH  18  19
ATOM     19  N   LIG    1        1.998   0.090   3.346  0.00  0.00    -0.730 N 
ATOM     20  H   LIG    1        2.440  -0.701   2.999  0.00  0.00    +0.400 HD
ATOM     21  C   LIG    1        1.738   0.193   4.664  0.00  0.00    +0.560 C 
ATOM     22  O   LIG    1        1.184   1.184   5.098  0.00  0.00    -0.530 OA
BRANCH  21  23
ATOM     23  C   LIG    1        2.126  -0.899   5.582  0.00  0.00    -0.140 A 
ATOM     24  C   LIG    1        2.757  -2.041   5.086  0.00  0.00    +0.030 A 
ATOM     25  C   LIG    1        3.121  -3.054   5.948  0.00  0.00    +0.000 A 
ATOM     26  C   LIG    1        2.853  -2.945   7.301  0.00  0.00    +0.040 A 
ATOM     27  C   LIG    1        2.222  -1.818   7.799  0.00  0.00    +0.000 A 
ATOM     28  C   LIG    1        1.858  -0.795   6.948  0.00  0.00    +0.080 A 
ENDBRANCH  21  23
ENDBRANCH  18  19
ENDBRANCH   9  18
TORSDOF 6
