REMARK  Name = ZINCtV00000L6k6U.0
REMARK                            x       y       z     vdW  Elec       q    Type
REMARK                         _______ _______ _______ _____ _____    ______ ____
ROOT
ATOM      1  N   LIG    1       -0.099   6.499  -1.344  0.00  0.00    -0.470 N 
ATOM      2  C   LIG    1        1.002   6.796  -2.122  0.00  0.00    +0.060 A 
ATOM      3  C   LIG    1        2.374   6.731  -1.921  0.00  0.00    +0.010 A 
ATOM      4  C   LIG    1        3.231   7.104  -2.935  0.00  0.00    +0.040 A 
ATOM      5  C   LIG    1        2.732   7.538  -4.154  0.00  0.00    +0.000 A 
ATOM      6  C   LIG    1        1.384   7.603  -4.372  0.00  0.00    +0.070 A 
ATOM      7  C   LIG    1        0.497   7.230  -3.359  0.00  0.00    +0.040 A 
ATOM      8  N   LIG    1       -0.858   7.185  -3.271  0.00  0.00    -0.460 NA
ATOM      9  C   LIG    1       -1.205   6.758  -2.092  0.00  0.00    +0.280 A 
ENDROOT
BRANCH   1  10
ATOM     10  C   LIG    1       -0.079   6.003   0.035  0.00  0.00    +0.370 C 
BRANCH  10  15
ATOM     11 CL   LIG    1        0.002  -0.004   0.002  0.00  0.00    -0.060 Cl
ATOM     12  C   LIG    1       -0.021   1.732   0.012  0.00  0.00    -0.020 A 
ATOM     13  C   LIG    1       -1.229   2.407   0.021  0.00  0.00    +0.030 A 
ATOM     14  C   LIG    1       -1.247   3.789   0.034  0.00  0.00    +0.040 A 
ATOM     15  C   LIG    1       -0.059   4.497   0.026  0.00  0.00    -0.110 A 
ATOM     16  C   LIG    1        1.148   3.822   0.012  0.00  0.00    +0.050 A 
ATOM     17  C   LIG    1        1.167   2.440   0.004  0.00  0.00    +0.030 A 
ENDBRANCH  10  15
ENDBRANCH   1  10
BRANCH   9  18
ATOM     18  C   LIG    1       -2.626   6.575  -1.624  0.00  0.00    +0.320 C 
BRANCH  18  19
ATOM     19  O   LIG    1       -3.087   7.785  -1.020  0.00  0.00    -0.310 OA
BRANCH  19  20
ATOM     20  C   LIG    1       -4.359   7.790  -0.542  0.00  0.00    +0.130 A 
ATOM     21  C   LIG    1       -4.852   8.917   0.051  0.00  0.00    -0.010 A 
ATOM     22  C   LIG    1       -6.168   8.924   0.542  0.00  0.00    -0.010 A 
ATOM     23  C   LIG    1       -6.711  10.067   1.154  0.00  0.00    +0.010 A 
ATOM     24  C   LIG    1       -7.988  10.037   1.624  0.00  0.00    +0.020 A 
ATOM     25  C   LIG    1       -8.768   8.888   1.508  0.00  0.00    -0.010 A 
ATOM     26  C   LIG    1       -8.276   7.763   0.921  0.00  0.00    +0.040 A 
ATOM     27  C   LIG    1       -6.962   7.755   0.424  0.00  0.00    -0.080 A 
ATOM     28  C   LIG    1       -6.420   6.611  -0.187  0.00  0.00    +0.070 A 
ATOM     29  C   LIG    1       -5.144   6.638  -0.657  0.00  0.00    -0.060 A 
ENDBRANCH  19  20
ENDBRANCH  18  19
ENDBRANCH   9  18
TORSDOF 5
