REMARK  Name = ZINCqH00000343rD.0
REMARK                            x       y       z     vdW  Elec       q    Type
REMARK                         _______ _______ _______ _____ _____    ______ ____
ROOT
ATOM      1  N   LIG    1       -0.011   0.966   0.007  0.00  0.00    -0.730 N 
ATOM      2  H   LIG    1        0.002  -0.004   0.002  0.00  0.00    +0.400 HD
ATOM      3  C   LIG    1       -1.187   1.624   0.017  0.00  0.00    +0.560 C 
ATOM      4  O   LIG    1       -1.204   2.839   0.023  0.00  0.00    -0.530 OA
ENDROOT
BRANCH   3   5
ATOM      5  C   LIG    1       -2.458   0.867   0.018  0.00  0.00    -0.130 A 
ATOM      6  C   LIG    1       -2.442  -0.528   0.005  0.00  0.00    +0.040 A 
ATOM      7  C   LIG    1       -3.631  -1.228   0.012  0.00  0.00    +0.030 A 
ATOM      8  C   LIG    1       -4.837  -0.550   0.021  0.00  0.00    -0.090 A 
ATOM      9  C   LIG    1       -4.859   0.834   0.029  0.00  0.00    +0.020 A 
ATOM     10  C   LIG    1       -3.677   1.546   0.028  0.00  0.00    +0.080 A 
BRANCH   8  11
ATOM     11  C   LIG    1       -6.131  -1.321   0.024  0.00  0.00    +0.340 C 
BRANCH  11  12
ATOM     12  N   LIG    1       -6.558  -1.563  -1.357  0.00  0.00    -0.620 N 
ATOM     13  C   LIG    1       -7.424  -0.662  -2.126  0.00  0.00    +0.260 C 
ATOM     14  C   LIG    1       -7.240  -1.079  -3.604  0.00  0.00    +0.040 C 
ATOM     15  C   LIG    1       -6.821  -2.561  -3.461  0.00  0.00    +0.050 C 
ATOM     16  C   LIG    1       -6.211  -2.643  -2.079  0.00  0.00    +0.520 C 
ATOM     17  O   LIG    1       -5.513  -3.550  -1.681  0.00  0.00    -0.530 OA
ENDBRANCH  11  12
ENDBRANCH   8  11
ENDBRANCH   3   5
BRANCH   1  18
ATOM     18  C   LIG    1        1.248   1.716  -0.001  0.00  0.00    +0.270 C 
BRANCH  18  19
ATOM     19  C   LIG    1        2.424   0.737  -0.017  0.00  0.00    +0.030 C 
BRANCH  19  20
ATOM     20  C   LIG    1        3.716   1.504   0.099  0.00  0.00    -0.070 A 
ATOM     21  C   LIG    1        4.053   2.440  -0.861  0.00  0.00    +0.010 A 
ATOM     22  C   LIG    1        5.236   3.146  -0.753  0.00  0.00    +0.000 A 
ATOM     23  C   LIG    1        6.087   2.909   0.310  0.00  0.00    +0.000 A 
ATOM     24  C   LIG    1        5.753   1.970   1.268  0.00  0.00    +0.000 A 
ATOM     25  C   LIG    1        4.568   1.266   1.161  0.00  0.00    +0.010 A 
ENDBRANCH  19  20
BRANCH  19  27
ATOM     26  C   LIG    1        3.513  -1.114  -1.293  0.00  0.00    +0.020 C 
ATOM     27  C   LIG    1        2.414  -0.051  -1.329  0.00  0.00    +0.010 C 
ENDBRANCH  19  27
ENDBRANCH  18  19
ENDBRANCH   1  18
TORSDOF 7
