REMARK  Name = ZINCrg000000qTOK.0
REMARK                            x       y       z     vdW  Elec       q    Type
REMARK                         _______ _______ _______ _____ _____    ______ ____
ROOT
ATOM      1  C   LIG    1        4.109  11.094   1.231  0.00  0.00    +0.140 A 
ATOM      2  C   LIG    1        2.899  10.978   1.899  0.00  0.00    -0.080 A 
ATOM      3  C   LIG    1        2.205   9.786   1.868  0.00  0.00    +0.060 A 
ATOM      4  C   LIG    1        2.710   8.700   1.170  0.00  0.00    -0.120 A 
ATOM      5  C   LIG    1        1.932   7.412   1.159  0.00  0.00    +0.270 C 
ATOM      6  N   LIG    1        2.304   6.575   0.016  0.00  0.00    -0.450 N 
ATOM      7  C   LIG    1        3.755   6.316   0.000  0.00  0.00    +0.290 C 
ATOM      8  C   LIG    1        4.463   7.648  -0.274  0.00  0.00    -0.100 C 
ATOM      9  C   LIG    1        5.963   7.614  -0.553  0.00  0.00    +0.040 C 
ATOM     10  C   LIG    1        4.979   7.903  -1.688  0.00  0.00    +0.050 C 
ATOM     11  C   LIG    1        3.913   8.819   0.501  0.00  0.00    +0.010 A 
ATOM     12  C   LIG    1        4.614  10.009   0.531  0.00  0.00    -0.020 A 
ENDROOT
BRANCH   6  13
ATOM     13  C   LIG    1        1.593   5.397   0.015  0.00  0.00    +0.470 A 
ATOM     14  N   LIG    1        2.121   4.189   0.004  0.00  0.00    -0.520 NA
ATOM     15  C   LIG    1        1.154   3.270   0.008  0.00  0.00    +0.340 A 
ATOM     16  C   LIG    1       -0.064   3.942   0.023  0.00  0.00    -0.160 A 
ATOM     17  C   LIG    1       -1.257   3.199   0.030  0.00  0.00    +0.600 A 
ATOM     18  N   LIG    1       -1.197   1.851   0.018  0.00  0.00    -0.650 N 
ATOM     19  H   LIG    1       -2.018   1.336   0.019  0.00  0.00    +0.440 HD
ATOM     20  C   LIG    1       -0.014   1.212   0.009  0.00  0.00    +0.710 A 
ATOM     21  O   LIG    1        0.002  -0.004   0.002  0.00  0.00    -0.530 OA
ATOM     22  O   LIG    1       -2.336   3.767   0.044  0.00  0.00    -0.520 OA
ATOM     23  N   LIG    1        1.152   1.885   0.001  0.00  0.00    -0.510 N 
ATOM     24  C   LIG    1        2.420   1.151  -0.014  0.00  0.00    +0.350 C 
ATOM     25  N   LIG    1        0.238   5.297   0.027  0.00  0.00    -0.420 N 
ATOM     26  C   LIG    1       -0.720   6.406   0.042  0.00  0.00    +0.350 C 
ENDBRANCH   6  13
BRANCH   1  28
ATOM     27  C   LIG    1        4.215  13.340   2.005  0.00  0.00    +0.250 C 
ATOM     28  O   LIG    1        4.797  12.266   1.263  0.00  0.00    -0.320 OA
ENDBRANCH   1  28
TORSDOF 2
