REMARK  Name = ZINCrH000004rsW4.0
REMARK                            x       y       z     vdW  Elec       q    Type
REMARK                         _______ _______ _______ _____ _____    ______ ____
ROOT
ATOM      1  C   LIG    1        1.120   3.619   0.011  0.00  0.00    +0.320 C 
ENDROOT
BRANCH   1   4
ATOM      2  N   LIG    1        2.762   5.468   0.005  0.00  0.00    -0.720 N 
ATOM      3  H   LIG    1        2.017   6.089   0.015  0.00  0.00    +0.410 HD
ATOM      4  C   LIG    1        2.534   4.140   0.000  0.00  0.00    +0.510 C 
ATOM      5  O   LIG    1        3.466   3.365  -0.013  0.00  0.00    -0.530 OA
BRANCH   2   6
ATOM      6  C   LIG    1        4.137   5.976  -0.005  0.00  0.00    +0.290 C 
BRANCH   6   7
ATOM      7  C   LIG    1        4.116   7.505   0.003  0.00  0.00    +0.200 C 
BRANCH   7   8
ATOM      8  O   LIG    1        3.552   7.967   1.232  0.00  0.00    -0.310 OA
BRANCH   8  13
ATOM      9  C   LIG    1        3.171  13.543   1.935  0.00  0.00    +0.100 C 
ATOM     10  C   LIG    1        3.272  12.051   1.746  0.00  0.00    -0.120 A 
ATOM     11  C   LIG    1        2.830  11.198   2.741  0.00  0.00    +0.050 A 
ATOM     12  C   LIG    1        2.922   9.831   2.571  0.00  0.00    -0.020 A 
ATOM     13  C   LIG    1        3.460   9.313   1.401  0.00  0.00    +0.120 A 
ATOM     14  C   LIG    1        3.909  10.171   0.408  0.00  0.00    -0.070 A 
ATOM     15  C   LIG    1        3.808  11.537   0.580  0.00  0.00    +0.050 A 
ENDBRANCH   8  13
ENDBRANCH   7   8
ENDBRANCH   6   7
ENDBRANCH   2   6
ENDBRANCH   1   4
BRANCH   1  16
ATOM     16  N   LIG    1        1.140   2.154   0.003  0.00  0.00    -0.710 N 
ATOM     17  H   LIG    1        1.987   1.680  -0.008  0.00  0.00    +0.410 HD
ATOM     18  C   LIG    1       -0.018   1.464   0.010  0.00  0.00    +0.590 C 
ATOM     19  O   LIG    1       -1.080   2.058   0.018  0.00  0.00    -0.500 OA
BRANCH  18  20
ATOM     20  C   LIG    1        0.002  -0.004   0.002  0.00  0.00    -0.230 A 
ATOM     21  C   LIG    1       -1.088  -0.780   0.008  0.00  0.00    +0.040 A 
ATOM     22  C   LIG    1       -0.846  -2.164  -0.002  0.00  0.00    -0.090 A 
ATOM     23  C   LIG    1       -1.779  -3.228   0.000  0.00  0.00    +0.070 A 
ATOM     24  C   LIG    1       -1.353  -4.520  -0.012  0.00  0.00    +0.020 A 
ATOM     25  C   LIG    1        0.004  -4.818  -0.027  0.00  0.00    +0.060 A 
ATOM     26  C   LIG    1        0.934  -3.807  -0.030  0.00  0.00    +0.050 A 
ATOM     27  C   LIG    1        0.520  -2.471  -0.018  0.00  0.00    -0.120 A 
ATOM     28 CL   LIG    1       -2.694  -0.121   0.028  0.00  0.00    -0.010 Cl
ATOM     29  S   LIG    1        1.459  -0.982  -0.025  0.00  0.00    +0.170 S 
ENDBRANCH  18  20
ENDBRANCH   1  16
TORSDOF 7
