REMARK  Name = ZINCqH0000006Lqv.0
REMARK                            x       y       z     vdW  Elec       q    Type
REMARK                         _______ _______ _______ _____ _____    ______ ____
ROOT
ATOM      1  C   LIG    1        2.450   4.206   0.495  0.00  0.00    +0.510 C 
ATOM      2  N   LIG    1        1.397   3.520   0.008  0.00  0.00    -0.730 N 
ATOM      3  H   LIG    1        0.626   3.997  -0.338  0.00  0.00    +0.400 HD
ATOM      4  O   LIG    1        3.414   3.610   0.926  0.00  0.00    -0.520 OA
ENDROOT
BRANCH   2   5
ATOM      5  C   LIG    1        1.417   2.055  -0.000  0.00  0.00    +0.240 C 
ATOM      6  C   LIG    1        2.133   1.562  -1.259  0.00  0.00    +0.010 C 
ATOM      7  C   LIG    1        2.154   0.032  -1.268  0.00  0.00    +0.020 C 
ATOM      8  C   LIG    1        0.718  -0.497  -1.257  0.00  0.00    -0.010 C 
ATOM      9  C   LIG    1       -0.022   0.009  -2.496  0.00  0.00    +0.010 C 
ATOM     10  C   LIG    1       -1.457  -0.520  -2.486  0.00  0.00    +0.000 C 
ATOM     11  C   LIG    1       -2.173  -0.027  -1.227  0.00  0.00    +0.000 C 
ATOM     12  C   LIG    1       -1.433  -0.534   0.013  0.00  0.00    +0.010 C 
ATOM     13  C   LIG    1        0.002  -0.004   0.002  0.00  0.00    -0.010 C 
ATOM     14  C   LIG    1       -0.019   1.526   0.010  0.00  0.00    +0.020 C 
ENDBRANCH   2   5
BRANCH   1  15
ATOM     15  C   LIG    1        2.430   5.713   0.503  0.00  0.00    +0.120 C 
BRANCH  15  18
ATOM     16  C   LIG    1        5.986   6.954   0.813  0.00  0.00    +0.150 A 
ATOM     17  C   LIG    1        4.800   6.478   0.274  0.00  0.00    -0.090 A 
ATOM     18  C   LIG    1        3.716   6.229   1.094  0.00  0.00    +0.010 A 
ATOM     19  C   LIG    1        3.807   6.458   2.454  0.00  0.00    -0.090 A 
ATOM     20  C   LIG    1        4.990   6.928   3.002  0.00  0.00    +0.150 A 
ATOM     21  C   LIG    1        6.083   7.180   2.181  0.00  0.00    +0.030 A 
BRANCH  16  23
ATOM     22  C   LIG    1        6.881   6.943  -1.390  0.00  0.00    +0.240 C 
ATOM     23  O   LIG    1        7.052   7.199   0.005  0.00  0.00    -0.300 OA
ENDBRANCH  16  23
BRANCH  20  24
ATOM     24  O   LIG    1        5.080   7.148   4.342  0.00  0.00    -0.300 OA
ATOM     25  C   LIG    1        3.918   6.867   5.125  0.00  0.00    +0.240 C 
ENDBRANCH  20  24
BRANCH  21  26
ATOM     26  O   LIG    1        7.244   7.647   2.715  0.00  0.00    -0.310 OA
ATOM     27  C   LIG    1        7.394   9.066   2.800  0.00  0.00    +0.210 C 
ENDBRANCH  21  26
ENDBRANCH  15  18
ENDBRANCH   1  15
TORSDOF 6
