REMARK  Name = ZINCrH000004joPd.0
REMARK                            x       y       z     vdW  Elec       q    Type
REMARK                         _______ _______ _______ _____ _____    ______ ____
ROOT
ATOM      1  C   LIG    1       -2.409  -3.008   0.010  0.00  0.00    +0.320 C 
ATOM      2  C   LIG    1       -1.889  -4.460   0.023  0.00  0.00    +0.060 C 
ATOM      3  C   LIG    1       -0.454  -4.310   0.594  0.00  0.00    +0.040 C 
ATOM      4  C   LIG    1       -0.017  -2.954  -0.020  0.00  0.00    +0.290 C 
ATOM      5  N   LIG    1       -1.235  -2.123   0.003  0.00  0.00    -0.580 N 
ATOM      6  C   LIG    1       -1.266  -0.776   0.011  0.00  0.00    +0.590 C 
ATOM      7  O   LIG    1       -2.332  -0.193   0.024  0.00  0.00    -0.520 OA
ENDROOT
BRANCH   1  16
ATOM      8  N   LIG    1       -4.593  -2.674  -1.251  0.00  0.00    -0.480 N 
ATOM      9  C   LIG    1       -4.967  -2.457  -2.562  0.00  0.00    +0.050 A 
ATOM     10  C   LIG    1       -6.184  -2.280  -3.204  0.00  0.00    +0.010 A 
ATOM     11  C   LIG    1       -6.215  -2.080  -4.568  0.00  0.00    +0.030 A 
ATOM     12  C   LIG    1       -5.038  -2.055  -5.301  0.00  0.00    +0.000 A 
ATOM     13  C   LIG    1       -3.830  -2.228  -4.687  0.00  0.00    +0.070 A 
ATOM     14  C   LIG    1       -3.774  -2.432  -3.306  0.00  0.00    +0.050 A 
ATOM     15  N   LIG    1       -2.757  -2.624  -2.428  0.00  0.00    -0.480 NA
ATOM     16  C   LIG    1       -3.236  -2.771  -1.227  0.00  0.00    +0.280 A 
BRANCH   8  18
ATOM     17  C   LIG    1       -5.705  -1.390   0.509  0.00  0.00    +0.040 C 
ATOM     18  C   LIG    1       -5.491  -2.778  -0.098  0.00  0.00    +0.290 C 
ENDBRANCH   8  18
ENDBRANCH   1  16
BRANCH   6  19
ATOM     19  C   LIG    1        0.002  -0.004   0.002  0.00  0.00    +0.140 A 
ATOM     20  C   LIG    1       -0.017   1.391   0.010  0.00  0.00    -0.020 A 
ATOM     21  C   LIG    1        1.197   2.065   0.002  0.00  0.00    +0.340 A 
ATOM     22  N   LIG    1        2.320   1.368  -0.013  0.00  0.00    -0.500 NA
ATOM     23  C   LIG    1        2.302   0.049  -0.020  0.00  0.00    +0.350 A 
ATOM     24  N   LIG    1        1.176  -0.631  -0.013  0.00  0.00    -0.490 NA
BRANCH  23  25
ATOM     25  C   LIG    1        3.609  -0.700  -0.036  0.00  0.00    +0.020 C 
ATOM     26  C   LIG    1        4.891   0.111   0.159  0.00  0.00    +0.060 C 
ATOM     27  C   LIG    1        4.548  -0.457  -1.219  0.00  0.00    +0.060 C 
ENDBRANCH  23  25
ENDBRANCH   6  19
TORSDOF 4
