REMARK  Name = ZINCqH00000089bT.1
REMARK                            x       y       z     vdW  Elec       q    Type
REMARK                         _______ _______ _______ _____ _____    ______ ____
ROOT
ATOM      1  N   LIG    1        8.457   2.222   0.313  0.00  0.00    -0.520 NA
ATOM      2  C   LIG    1        7.723   1.590  -0.791  0.00  0.00    +0.190 C 
ATOM      3  C   LIG    1        6.254   1.418  -0.396  0.00  0.00    +0.050 C 
ATOM      4  C   LIG    1        6.167   0.551   0.863  0.00  0.00    +0.100 C 
ATOM      5  C   LIG    1        6.980   1.206   1.983  0.00  0.00    +0.060 C 
ATOM      6  C   LIG    1        8.427   1.384   1.519  0.00  0.00    +0.170 C 
ENDROOT
BRANCH   4   7
ATOM      7  C   LIG    1        4.727   0.428   1.291  0.00  0.00    +0.260 A 
ATOM      8  N   LIG    1        3.961   1.426   1.613  0.00  0.00    -0.470 NA
ATOM      9  C   LIG    1        2.732   0.946   1.945  0.00  0.00    +0.020 A 
ATOM     10  C   LIG    1        1.541   1.544   2.361  0.00  0.00    +0.080 A 
ATOM     11  C   LIG    1        0.440   0.760   2.626  0.00  0.00    +0.020 A 
ATOM     12  C   LIG    1        0.508  -0.618   2.483  0.00  0.00    +0.050 A 
ATOM     13  C   LIG    1        1.678  -1.222   2.072  0.00  0.00    +0.050 A 
ATOM     14  C   LIG    1        2.796  -0.448   1.801  0.00  0.00    +0.010 A 
ATOM     15  O   LIG    1        4.053  -0.728   1.393  0.00  0.00    -0.220 OA
ENDBRANCH   4   7
BRANCH   1  17
ATOM     16  C   LIG    1        9.829   3.478  -1.280  0.00  0.00    +0.080 C 
ATOM     17  C   LIG    1        9.839   2.528  -0.081  0.00  0.00    +0.120 C 
BRANCH  17  18
ATOM     18  C   LIG    1       10.557   3.181   1.072  0.00  0.00    +0.510 C 
ATOM     19  N   LIG    1       11.896   3.070   1.182  0.00  0.00    -0.610 N 
ATOM     20  C   LIG    1       12.567   3.796   2.236  0.00  0.00    +0.270 C 
ATOM     21  C   LIG    1       12.959   5.203   1.738  0.00  0.00    +0.000 C 
ATOM     22  C   LIG    1       14.060   5.112   0.767  0.00  0.00    +0.000 C 
ATOM     23  C   LIG    1       13.714   4.342  -0.504  0.00  0.00    +0.000 C 
ATOM     24  C   LIG    1       13.925   2.867  -0.268  0.00  0.00    +0.020 C 
ATOM     25  C   LIG    1       12.617   2.217   0.217  0.00  0.00    +0.250 C 
ATOM     26  O   LIG    1        9.930   3.807   1.901  0.00  0.00    -0.510 OA
ENDBRANCH  17  18
ENDBRANCH   1  17
TORSDOF 3
