REMARK  Name = ZINCpe000027pHod.0
REMARK                            x       y       z     vdW  Elec       q    Type
REMARK                         _______ _______ _______ _____ _____    ______ ____
ROOT
ATOM      1  C   LIG    1       -2.363   1.189   3.682  0.00  0.00    +0.060 C 
ATOM      2  C   LIG    1       -0.927   1.718   3.671  0.00  0.00    +0.250 C 
ENDROOT
BRANCH   2   3
ATOM      3  C   LIG    1       -0.222   1.232   2.431  0.00  0.00    +0.520 C 
ATOM      4  N   LIG    1       -0.698   1.558   1.213  0.00  0.00    -0.720 N 
ATOM      5  H   LIG    1       -1.495   2.106   1.135  0.00  0.00    +0.410 HD
ATOM      6  O   LIG    1        0.774   0.548   2.529  0.00  0.00    -0.520 OA
BRANCH   4   7
ATOM      7  C   LIG    1       -0.013   1.086   0.008  0.00  0.00    +0.430 C 
BRANCH   7   8
ATOM      8  C   LIG    1       -0.742   1.585  -1.213  0.00  0.00    +0.160 A 
ATOM      9  N   LIG    1       -0.524   2.711  -1.848  0.00  0.00    -0.280 NA
ATOM     10  N   LIG    1       -1.348   2.775  -2.837  0.00  0.00    -0.070 NA
ATOM     11  N   LIG    1       -2.085   1.720  -2.849  0.00  0.00    -0.080 NA
ATOM     12  N   LIG    1       -1.738   0.959  -1.866  0.00  0.00    -0.270 N 
BRANCH  12  13
ATOM     13  C   LIG    1       -2.321  -0.341  -1.524  0.00  0.00    +0.200 C 
ATOM     14  C   LIG    1       -3.306  -0.957  -2.519  0.00  0.00    +0.090 C 
ATOM     15  C   LIG    1       -3.815  -0.380  -1.196  0.00  0.00    +0.070 C 
ENDBRANCH  12  13
ENDBRANCH   7   8
ENDBRANCH   4   7
ENDBRANCH   2   3
BRANCH   2  16
ATOM     16  N   LIG    1       -0.219   1.233   4.858  0.00  0.00    -0.710 N 
ATOM     17  H   LIG    1        0.323   0.430   4.805  0.00  0.00    +0.410 HD
ATOM     18  C   LIG    1       -0.320   1.902   6.024  0.00  0.00    +0.550 C 
ATOM     19  O   LIG    1       -0.999   2.909   6.090  0.00  0.00    -0.540 OA
BRANCH  18  20
ATOM     20  C   LIG    1        0.389   1.417   7.210  0.00  0.00    -0.090 C 
ATOM     21  C   LIG    1        0.288   2.086   8.376  0.00  0.00    +0.130 C 
BRANCH  21  22
ATOM     22  C   LIG    1        1.000   1.599   9.568  0.00  0.00    -0.080 A 
ATOM     23  C   LIG    1        1.777   0.439   9.497  0.00  0.00    +0.030 A 
ATOM     24  C   LIG    1        2.446  -0.009  10.617  0.00  0.00    +0.010 A 
ATOM     25  C   LIG    1        2.339   0.681  11.813  0.00  0.00    +0.020 A 
ATOM     26  C   LIG    1        1.567   1.827  11.892  0.00  0.00    +0.010 A 
ATOM     27  C   LIG    1        0.898   2.290  10.779  0.00  0.00    +0.040 A 
ENDBRANCH  21  22
ENDBRANCH  18  20
ENDBRANCH   2  16
TORSDOF 7
