REMARK  Name = ZINCpe000000YaNv.0
REMARK                            x       y       z     vdW  Elec       q    Type
REMARK                         _______ _______ _______ _____ _____    ______ ____
ROOT
ATOM      1  C   LIG    1       -0.280   1.364   0.859  0.00  0.00    +0.250 C 
ATOM      2  C   LIG    1        0.721   0.960  -0.226  0.00  0.00    +0.080 C 
ENDROOT
BRANCH   1   3
ATOM      3  C   LIG    1        0.237   0.931   2.206  0.00  0.00    +0.510 C 
ATOM      4  N   LIG    1        0.472  -0.374   2.450  0.00  0.00    -0.650 N 
ATOM      5  H   LIG    1        0.236  -1.041   1.787  0.00  0.00    +0.410 HD
ATOM      6  O   LIG    1        0.442   1.756   3.071  0.00  0.00    -0.480 OA
BRANCH   4   7
ATOM      7  C   LIG    1        1.054  -0.764   3.655  0.00  0.00    +0.310 A 
ATOM      8  C   LIG    1        1.873  -0.005   4.437  0.00  0.00    -0.240 A 
ATOM      9  C   LIG    1        2.523   1.358   4.526  0.00  0.00    +0.120 C 
ATOM     10  C   LIG    1        3.655   1.199   5.563  0.00  0.00    +0.030 C 
ATOM     11  C   LIG    1        3.146   0.039   6.445  0.00  0.00    +0.140 C 
ATOM     12  C   LIG    1        2.234  -0.770   5.549  0.00  0.00    +0.060 A 
ATOM     13  N   LIG    1        1.658  -1.943   5.444  0.00  0.00    -0.270 NA
ATOM     14  N   LIG    1        0.905  -1.962   4.264  0.00  0.00    -0.380 N 
ATOM     15  C   LIG    1        0.101  -3.084   3.773  0.00  0.00    +0.360 C 
ENDBRANCH   4   7
ENDBRANCH   1   3
BRANCH   1  16
ATOM     16  N   LIG    1       -0.452   2.819   0.847  0.00  0.00    -1.100 NA
ATOM     17  H   LIG    1        0.166   3.385   1.336  0.00  0.00    +0.430 HD
BRANCH  16  18
ATOM     18  S   LIG    1       -1.700   3.498  -0.004  0.00  0.00    +2.730 S 
ATOM     19  O   LIG    1       -1.676   2.905  -1.295  0.00  0.00    -0.940 OA
ATOM     20  O   LIG    1       -1.614   4.901   0.209  0.00  0.00    -0.940 OA
BRANCH  18  27
ATOM     21  C   LIG    1       -3.673   0.784  -0.590  0.00  0.00    +0.180 C 
ATOM     22  C   LIG    1       -3.969   1.823   0.461  0.00  0.00    +0.100 A 
ATOM     23  N   LIG    1       -4.984   1.840   1.276  0.00  0.00    -0.360 NA
ATOM     24  O   LIG    1       -4.954   2.805   2.004  0.00  0.00    +0.100 OA
ATOM     25  C   LIG    1       -3.881   3.572   1.762  0.00  0.00    +0.130 A 
ATOM     26  C   LIG    1       -3.509   4.851   2.466  0.00  0.00    +0.220 C 
ATOM     27  C   LIG    1       -3.198   2.970   0.759  0.00  0.00    -0.810 A 
ENDBRANCH  18  27
ENDBRANCH  16  18
ENDBRANCH   1  16
TORSDOF 5
