REMARK  Name = ZINCrD00000F5Lze.0
REMARK                            x       y       z     vdW  Elec       q    Type
REMARK                         _______ _______ _______ _____ _____    ______ ____
ROOT
ATOM      1  C   LIG    1        6.019   2.021   0.530  0.00  0.00    +0.110 C 
ATOM      2  C   LIG    1        7.168   1.318   0.474  0.00  0.00    +0.070 C 
ENDROOT
BRANCH   1  10
ATOM      3  O   LIG    1       -1.075   2.098   0.018  0.00  0.00    -0.500 OA
ATOM      4  C   LIG    1       -0.018   1.503   0.010  0.00  0.00    +0.490 C 
ATOM      5  C   LIG    1        0.002  -0.004   0.002  0.00  0.00    +0.300 C 
ATOM      6  O   LIG    1        1.151  -0.465  -0.713  0.00  0.00    -0.300 OA
ATOM      7  C   LIG    1        2.336   0.130  -0.414  0.00  0.00    +0.090 A 
ATOM      8  C   LIG    1        3.519  -0.591  -0.470  0.00  0.00    +0.040 A 
ATOM      9  C   LIG    1        4.717   0.020  -0.165  0.00  0.00    +0.050 A 
ATOM     10  C   LIG    1        4.742   1.369   0.203  0.00  0.00    -0.070 A 
ATOM     11  C   LIG    1        3.548   2.098   0.261  0.00  0.00    +0.040 A 
ATOM     12  C   LIG    1        2.353   1.478  -0.047  0.00  0.00    +0.090 A 
ATOM     13  N   LIG    1        1.145   2.189   0.003  0.00  0.00    -0.660 N 
ATOM     14  H   LIG    1        1.146   3.159   0.032  0.00  0.00    +0.420 HD
ENDBRANCH   1  10
BRANCH   2  15
ATOM     15  C   LIG    1        8.440   1.967   0.799  0.00  0.00    +0.210 A 
ATOM     16  N   LIG    1        9.642   1.407   0.788  0.00  0.00    -0.470 NA
ATOM     17  C   LIG    1       10.493   2.377   1.151  0.00  0.00    +0.180 A 
ATOM     18  N   LIG    1        9.797   3.456   1.362  0.00  0.00    -0.380 NA
ATOM     19  O   LIG    1        8.619   3.249   1.162  0.00  0.00    +0.080 OA
BRANCH  17  20
ATOM     20  C   LIG    1       11.987   2.242   1.290  0.00  0.00    +0.100 C 
ATOM     21  C   LIG    1       12.681   3.218   0.336  0.00  0.00    +0.010 C 
ATOM     22  C   LIG    1       14.198   3.106   0.507  0.00  0.00    +0.220 C 
ATOM     23  O   LIG    1       14.548   3.409   1.860  0.00  0.00    -0.360 OA
ATOM     24  C   LIG    1       13.926   2.560   2.822  0.00  0.00    +0.090 C 
ATOM     25  C   LIG    1       14.454   2.757   4.249  0.00  0.00    +0.050 C 
ATOM     26  C   LIG    1       14.382   1.228   4.400  0.00  0.00    +0.020 C 
ATOM     27  C   LIG    1       14.523   1.147   2.870  0.00  0.00    +0.000 C 
ATOM     28  C   LIG    1       12.401   2.570   2.730  0.00  0.00    +0.040 C 
ENDBRANCH  17  20
ENDBRANCH   2  15
TORSDOF 3
