REMARK  Name = ZINCqH00000059em.0
REMARK                            x       y       z     vdW  Elec       q    Type
REMARK                         _______ _______ _______ _____ _____    ______ ____
ROOT
ATOM      1  C   LIG    1        0.161   1.178   4.915  0.00  0.00    +0.210 C 
ENDROOT
BRANCH   1   2
ATOM      2  C   LIG    1       -0.402   2.065   3.834  0.00  0.00    +0.510 C 
ATOM      3  N   LIG    1        0.051   1.956   2.569  0.00  0.00    -0.740 N 
ATOM      4  H   LIG    1        0.739   1.306   2.355  0.00  0.00    +0.400 HD
ATOM      5  O   LIG    1       -1.261   2.877   4.102  0.00  0.00    -0.510 OA
BRANCH   3   6
ATOM      6  C   LIG    1       -0.495   2.818   1.518  0.00  0.00    +0.270 C 
BRANCH   6   7
ATOM      7  C   LIG    1        0.185   2.493   0.187  0.00  0.00    +0.080 C 
BRANCH   7   8
ATOM      8  C   LIG    1       -0.378   3.379  -0.894  0.00  0.00    -0.060 A 
ATOM      9  C   LIG    1       -1.409   2.925  -1.694  0.00  0.00    +0.040 A 
ATOM     10  C   LIG    1       -1.929   3.740  -2.682  0.00  0.00    +0.040 A 
ATOM     11  C   LIG    1       -1.411   5.006  -2.879  0.00  0.00    +0.040 A 
ATOM     12  C   LIG    1       -0.374   5.460  -2.083  0.00  0.00    -0.030 A 
ATOM     13 CL   LIG    1        0.278   7.050  -2.330  0.00  0.00    -0.040 Cl
ATOM     14  C   LIG    1        0.143   4.646  -1.090  0.00  0.00    -0.030 A 
ATOM     15 CL   LIG    1        1.443   5.215  -0.090  0.00  0.00    -0.040 Cl
ENDBRANCH   7   8
ENDBRANCH   6   7
ENDBRANCH   3   6
ENDBRANCH   1   2
BRANCH   1  17
ATOM     16  C   LIG    1       -1.849   0.930   6.242  0.00  0.00    +0.200 C 
ATOM     17  N   LIG    1       -0.492   1.490   6.193  0.00  0.00    -0.510 NA
BRANCH  17  18
ATOM     18  C   LIG    1        0.314   1.017   7.326  0.00  0.00    +0.180 C 
BRANCH  18  19
ATOM     19  C   LIG    1       -0.415   1.298   8.614  0.00  0.00    -0.080 A 
ATOM     20  C   LIG    1       -1.093   2.492   8.778  0.00  0.00    +0.040 A 
ATOM     21  C   LIG    1       -1.765   2.748   9.959  0.00  0.00    +0.000 A 
ATOM     22  C   LIG    1       -1.752   1.815  10.978  0.00  0.00    +0.000 A 
ATOM     23  C   LIG    1       -1.069   0.624  10.816  0.00  0.00    +0.000 A 
ATOM     24  C   LIG    1       -0.401   0.365   9.634  0.00  0.00    +0.000 A 
ENDBRANCH  18  19
BRANCH  18  25
ATOM     25  C   LIG    1        1.661   1.744   7.332  0.00  0.00    +0.040 C 
BRANCH  25  26
ATOM     26  C   LIG    1        2.540   1.179   8.450  0.00  0.00    +0.170 C 
BRANCH  26  27
ATOM     27  O   LIG    1        3.836   1.778   8.386  0.00  0.00    -0.570 OA
ATOM     28  H   LIG    1        4.447   1.466   9.066  0.00  0.00    +0.380 HD
ENDBRANCH  26  27
ENDBRANCH  25  26
ENDBRANCH  18  25
ENDBRANCH  17  18
ENDBRANCH   1  17
TORSDOF 10
