REMARK  Name = ZINCrD00000463oT.1
REMARK                            x       y       z     vdW  Elec       q    Type
REMARK                         _______ _______ _______ _____ _____    ______ ____
ROOT
ATOM      1  N   LIG    1        4.078   2.455  -1.407  0.00  0.00    -0.530 NA
ATOM      2  C   LIG    1        2.942   2.927  -2.209  0.00  0.00    +0.180 C 
ATOM      3  C   LIG    1        3.365   3.048  -3.674  0.00  0.00    +0.050 C 
ATOM      4  C   LIG    1        4.535   4.030  -3.783  0.00  0.00    +0.080 C 
ATOM      5  C   LIG    1        5.687   3.541  -2.901  0.00  0.00    +0.050 C 
ATOM      6  C   LIG    1        5.196   3.405  -1.458  0.00  0.00    +0.180 C 
ENDROOT
BRANCH   4   7
ATOM      7  C   LIG    1        4.996   4.110  -5.216  0.00  0.00    +0.180 A 
ATOM      8  N   LIG    1        5.452   3.121  -5.942  0.00  0.00    -0.290 NA
ATOM      9  N   LIG    1        5.749   3.548  -7.121  0.00  0.00    -0.290 NA
ATOM     10  C   LIG    1        5.506   4.821  -7.195  0.00  0.00    +0.170 A 
ATOM     11  C   LIG    1        5.699   5.748  -8.368  0.00  0.00    +0.160 C 
ATOM     12  C   LIG    1        4.908   7.035  -8.096  0.00  0.00    +0.030 C 
ATOM     13  C   LIG    1        5.229   7.537  -6.685  0.00  0.00    +0.030 C 
ATOM     14  C   LIG    1        4.627   6.579  -5.650  0.00  0.00    +0.280 C 
ATOM     15  N   LIG    1        5.023   5.213  -5.988  0.00  0.00    -0.470 N 
ENDBRANCH   4   7
BRANCH   1  16
ATOM     16  C   LIG    1        3.671   2.195  -0.020  0.00  0.00    +0.240 C 
BRANCH  16  23
ATOM     17  F   LIG    1       -0.499  -2.301  -1.808  0.00  0.00    -0.150 F 
ATOM     18  C   LIG    1       -0.403  -2.159  -0.419  0.00  0.00    +0.570 C 
ATOM     19  O   LIG    1       -1.007  -0.923   0.006  0.00  0.00    -0.290 OA
ATOM     20  C   LIG    1        0.002  -0.004   0.002  0.00  0.00    +0.030 A 
ATOM     21  C   LIG    1       -0.017   1.381   0.010  0.00  0.00    +0.070 A 
ATOM     22  C   LIG    1        1.171   2.089   0.002  0.00  0.00    +0.040 A 
ATOM     23  C   LIG    1        2.379   1.418  -0.012  0.00  0.00    -0.070 A 
ATOM     24  C   LIG    1        2.405   0.035  -0.020  0.00  0.00    +0.090 A 
ATOM     25  C   LIG    1        1.220  -0.680  -0.013  0.00  0.00    +0.030 A 
ATOM     26  F   LIG    1       -0.998  -3.248   0.228  0.00  0.00    -0.120 F 
ATOM     27  O   LIG    1        0.973  -2.023  -0.019  0.00  0.00    -0.290 OA
ENDBRANCH  16  23
ENDBRANCH   1  16
TORSDOF 3
