REMARK  Name = ZINCnE000001So1Z.1
REMARK                            x       y       z     vdW  Elec       q    Type
REMARK                         _______ _______ _______ _____ _____    ______ ____
ROOT
ATOM      1  O   LIG    1        5.261   4.797  -0.022  0.00  0.00    -0.540 OA
ATOM      2  C   LIG    1        4.351   5.599  -0.009  0.00  0.00    +0.520 C 
ATOM      3  N   LIG    1        3.074   5.169   0.001  0.00  0.00    -0.530 N 
ATOM      4  H   LIG    1        2.346   5.810   0.011  0.00  0.00    +0.360 HD
ENDROOT
BRANCH   3   5
ATOM      5  N   LIG    1        2.797   3.795  -0.004  0.00  0.00    -0.500 NA
ATOM      6  C   LIG    1        1.520   3.365   0.006  0.00  0.00    +0.450 C 
ATOM      7  O   LIG    1        0.607   4.170   0.019  0.00  0.00    -0.680 OA
BRANCH   6   8
ATOM      8  C   LIG    1        1.231   1.928   0.001  0.00  0.00    -0.150 A 
ATOM      9  C   LIG    1       -0.017   1.371   0.010  0.00  0.00    +0.010 A 
ATOM     10  C   LIG    1        0.002  -0.004   0.002  0.00  0.00    -0.010 A 
ATOM     11  C   LIG    1        1.221  -0.555  -0.013  0.00  0.00    -0.140 A 
ATOM     12  S   LIG    1        2.434   0.645  -0.018  0.00  0.00    +0.210 S 
ENDBRANCH   6   8
ENDBRANCH   3   5
BRANCH   2  13
ATOM     13  C   LIG    1        4.649   7.076  -0.004  0.00  0.00    +0.080 C 
BRANCH  13  14
ATOM     14  S   LIG    1        6.444   7.332  -0.020  0.00  0.00    -0.020 S 
BRANCH  14  15
ATOM     15  C   LIG    1        6.595   9.087  -0.012  0.00  0.00    -0.090 A 
ATOM     16  C   LIG    1        7.847   9.664  -0.015  0.00  0.00    +0.030 A 
ATOM     17  C   LIG    1        7.963  11.064  -0.015  0.00  0.00    -0.030 A 
ATOM     18  C   LIG    1        9.222  11.690  -0.023  0.00  0.00    +0.020 A 
ATOM     19  C   LIG    1        9.298  13.049  -0.015  0.00  0.00    +0.000 A 
ATOM     20  C   LIG    1        8.145  13.831   0.001  0.00  0.00    -0.010 A 
ATOM     21  C   LIG    1        6.910  13.260   0.009  0.00  0.00    +0.020 A 
ATOM     22  C   LIG    1        6.790  11.860   0.002  0.00  0.00    -0.060 A 
ATOM     23  C   LIG    1        5.529  11.238   0.010  0.00  0.00    +0.040 A 
ATOM     24  C   LIG    1        5.442   9.882   0.003  0.00  0.00    +0.000 A 
ENDBRANCH  14  15
ENDBRANCH  13  14
ENDBRANCH   2  13
TORSDOF 5
