REMARK  Name = ZINCrH000004rIEr.0
REMARK                            x       y       z     vdW  Elec       q    Type
REMARK                         _______ _______ _______ _____ _____    ______ ____
ROOT
ATOM      1  C   LIG    1       -3.059   1.442   1.780  0.00  0.00    +0.090 C 
ATOM      2  C   LIG    1       -3.167   2.955   1.982  0.00  0.00    +0.040 C 
ATOM      3  C   LIG    1       -1.769   3.576   1.956  0.00  0.00    +0.030 C 
ATOM      4  C   LIG    1       -1.122   3.314   0.597  0.00  0.00    +0.270 C 
ATOM      5  N   LIG    1       -1.147   1.870   0.326  0.00  0.00    -0.600 N 
ATOM      6  C   LIG    1       -0.014   1.211   0.009  0.00  0.00    +0.560 C 
ATOM      7  O   LIG    1       -0.057   0.030  -0.276  0.00  0.00    -0.510 OA
ATOM      8  C   LIG    1       -2.428   1.156   0.413  0.00  0.00    +0.290 C 
ENDROOT
BRANCH   1  16
ATOM      9  C   LIG    1       -9.460  -1.828   3.559  0.00  0.00    +0.100 C 
ATOM     10  C   LIG    1       -8.389  -1.143   2.750  0.00  0.00    -0.090 A 
ATOM     11  C   LIG    1       -8.609  -0.875   1.407  0.00  0.00    +0.030 A 
ATOM     12  C   LIG    1       -7.640  -0.248   0.652  0.00  0.00    +0.010 A 
ATOM     13  C   LIG    1       -6.437   0.115   1.242  0.00  0.00    +0.040 A 
ATOM     14  N   LIG    1       -5.294   0.743   0.787  0.00  0.00    -0.600 N 
ATOM     15  H   LIG    1       -5.134   1.063  -0.115  0.00  0.00    +0.420 HD
ATOM     16  C   LIG    1       -4.434   0.827   1.837  0.00  0.00    +0.290 A 
ATOM     17  N   LIG    1       -4.973   0.304   2.900  0.00  0.00    -0.480 NA
ATOM     18  C   LIG    1       -6.215  -0.157   2.603  0.00  0.00    +0.050 A 
ATOM     19  C   LIG    1       -7.211  -0.792   3.348  0.00  0.00    +0.060 A 
ENDBRANCH   1  16
BRANCH   6  20
ATOM     20  C   LIG    1        1.279   1.927   0.000  0.00  0.00    -0.070 A 
ATOM     21  C   LIG    1        1.409   3.132  -0.692  0.00  0.00    +0.070 A 
ATOM     22  C   LIG    1        2.618   3.798  -0.691  0.00  0.00    +0.100 A 
ATOM     23  C   LIG    1        3.702   3.268  -0.015  0.00  0.00    -0.030 A 
ATOM     24  C   LIG    1        3.582   2.070   0.668  0.00  0.00    +0.110 A 
ATOM     25  C   LIG    1        2.378   1.397   0.680  0.00  0.00    +0.090 A 
BRANCH  23  26
ATOM     26  N   LIG    1        4.997   3.984  -0.023  0.00  0.00    +0.020 N 
ATOM     27  O   LIG    1        5.106   5.038  -0.624  0.00  0.00    -0.150 OA
ATOM     28  O   LIG    1        5.954   3.520   0.570  0.00  0.00    -0.150 OA
ENDBRANCH  23  26
ENDBRANCH   6  20
TORSDOF 3
