REMARK  Name = ZINCrH000004rIEr.1
REMARK                            x       y       z     vdW  Elec       q    Type
REMARK                         _______ _______ _______ _____ _____    ______ ____
ROOT
ATOM      1  C   LIG    1        1.632   1.949   0.579  0.00  0.00    +0.090 C 
ATOM      2  C   LIG    1        2.677   1.309  -0.338  0.00  0.00    +0.040 C 
ATOM      3  C   LIG    1        2.650  -0.211  -0.162  0.00  0.00    +0.040 C 
ATOM      4  C   LIG    1        1.269  -0.742  -0.559  0.00  0.00    +0.270 C 
ATOM      5  N   LIG    1        0.246  -0.027   0.217  0.00  0.00    -0.600 N 
ATOM      6  C   LIG    1       -0.668  -0.705   0.938  0.00  0.00    +0.560 C 
ATOM      7  O   LIG    1       -1.442  -0.104   1.658  0.00  0.00    -0.510 OA
ATOM      8  C   LIG    1        0.239   1.442   0.191  0.00  0.00    +0.300 C 
ENDROOT
BRANCH   1  15
ATOM      9  C   LIG    1        1.066   9.152  -1.203  0.00  0.00    +0.100 C 
ATOM     10  C   LIG    1        1.454   7.872  -0.508  0.00  0.00    -0.060 A 
ATOM     11  C   LIG    1        2.294   7.915   0.595  0.00  0.00    +0.000 A 
ATOM     12  C   LIG    1        2.657   6.765   1.239  0.00  0.00    +0.070 A 
ATOM     13  C   LIG    1        2.180   5.533   0.786  0.00  0.00    +0.040 A 
ATOM     14  N   LIG    1        2.349   4.252   1.204  0.00  0.00    -0.480 NA
ATOM     15  C   LIG    1        1.682   3.448   0.429  0.00  0.00    +0.290 A 
ATOM     16  N   LIG    1        1.031   4.157  -0.532  0.00  0.00    -0.600 N 
ATOM     17  H   LIG    1        0.463   3.793  -1.229  0.00  0.00    +0.420 HD
ATOM     18  C   LIG    1        1.328   5.490  -0.331  0.00  0.00    +0.050 A 
ATOM     19  C   LIG    1        0.970   6.668  -0.972  0.00  0.00    +0.000 A 
ENDBRANCH   1  15
BRANCH   6  20
ATOM     20  C   LIG    1       -0.730  -2.180   0.853  0.00  0.00    -0.080 A 
ATOM     21  C   LIG    1       -0.590  -2.818  -0.380  0.00  0.00    +0.070 A 
ATOM     22  C   LIG    1       -0.643  -4.194  -0.451  0.00  0.00    +0.100 A 
ATOM     23  C   LIG    1       -0.848  -4.942   0.695  0.00  0.00    -0.020 A 
ATOM     24  C   LIG    1       -0.993  -4.316   1.920  0.00  0.00    +0.100 A 
ATOM     25  C   LIG    1       -0.936  -2.940   2.006  0.00  0.00    +0.100 A 
BRANCH  23  26
ATOM     26  N   LIG    1       -0.910  -6.418   0.610  0.00  0.00    +0.020 N 
ATOM     27  O   LIG    1       -0.783  -6.972  -0.467  0.00  0.00    -0.150 OA
ATOM     28  O   LIG    1       -1.090  -7.079   1.617  0.00  0.00    -0.150 OA
ENDBRANCH  23  26
ENDBRANCH   6  20
TORSDOF 3
