REMARK  Name = ZINCrH000004tMmr.0
REMARK                            x       y       z     vdW  Elec       q    Type
REMARK                         _______ _______ _______ _____ _____    ______ ____
ROOT
ATOM      1  N   LIG    1        0.001  -0.001  -0.016  0.00  0.00    -0.520 NA
ATOM      2  C   LIG    1       -0.019   1.469  -0.019  0.00  0.00    +0.190 C 
ATOM      3  C   LIG    1        1.418   1.996  -0.032  0.00  0.00    +0.180 C 
ATOM      4  N   LIG    1        2.135   1.485   1.145  0.00  0.00    -0.530 NA
ATOM      5  C   LIG    1        2.155   0.016   1.148  0.00  0.00    +0.190 C 
ATOM      6  C   LIG    1        0.718  -0.512   1.161  0.00  0.00    +0.190 C 
ENDROOT
BRANCH   1   7
ATOM      7  C   LIG    1       -1.361  -0.546  -0.080  0.00  0.00    +0.220 C 
BRANCH   7   9
ATOM      8  O   LIG    1       -0.222  -2.583  -0.429  0.00  0.00    -0.500 OA
ATOM      9  C   LIG    1       -1.297  -2.032  -0.321  0.00  0.00    +0.520 C 
ATOM     10  N   LIG    1       -2.434  -2.749  -0.417  0.00  0.00    -0.670 N 
ATOM     11  H   LIG    1       -3.290  -2.325  -0.251  0.00  0.00    +0.410 HD
BRANCH  10  12
ATOM     12  C   LIG    1       -2.379  -4.107  -0.756  0.00  0.00    +0.120 A 
ATOM     13  C   LIG    1       -1.300  -4.601  -1.475  0.00  0.00    +0.050 A 
ATOM     14  C   LIG    1       -1.248  -5.941  -1.807  0.00  0.00    +0.020 A 
ATOM     15  C   LIG    1       -2.270  -6.791  -1.425  0.00  0.00    +0.020 A 
ATOM     16  C   LIG    1       -3.348  -6.303  -0.709  0.00  0.00    +0.010 A 
ATOM     17  C   LIG    1       -3.403  -4.964  -0.367  0.00  0.00    +0.060 A 
ATOM     18  F   LIG    1       -4.453  -4.489   0.337  0.00  0.00    -0.140 F 
ENDBRANCH  10  12
ENDBRANCH   7   9
ENDBRANCH   1   7
BRANCH   4  19
ATOM     19  C   LIG    1        3.497   2.030   1.209  0.00  0.00    +0.250 C 
BRANCH  19  20
ATOM     20  C   LIG    1        3.433   3.517   1.450  0.00  0.00    -0.070 A 
ATOM     21  C   LIG    1        3.582   4.399   0.482  0.00  0.00    -0.020 A 
ATOM     22  S   LIG    1        3.450   6.040   1.087  0.00  0.00    +0.080 S 
ATOM     23  C   LIG    1        3.190   5.483   2.735  0.00  0.00    -0.140 A 
ATOM     24  C   LIG    1        2.986   6.203   3.916  0.00  0.00    +0.040 A 
ATOM     25  C   LIG    1        2.802   5.540   5.107  0.00  0.00    +0.030 A 
ATOM     26  C   LIG    1        2.818   4.153   5.143  0.00  0.00    +0.010 A 
ATOM     27  C   LIG    1        3.016   3.433   4.005  0.00  0.00    +0.060 A 
ATOM     28  C   LIG    1        3.207   4.086   2.769  0.00  0.00    -0.060 A 
ENDBRANCH  19  20
ENDBRANCH   4  19
TORSDOF 5
