REMARK  Name = ZINCrg000000rG2A.0
REMARK                            x       y       z     vdW  Elec       q    Type
REMARK                         _______ _______ _______ _____ _____    ______ ____
ROOT
ATOM      1  N   LIG    1       -2.266   3.786   5.822  0.00  0.00    -0.710 N 
ATOM      2  H   LIG    1       -1.486   4.250   5.479  0.00  0.00    +0.410 HD
ATOM      3  C   LIG    1       -2.545   3.818   7.140  0.00  0.00    +0.600 C 
ATOM      4  O   LIG    1       -3.523   3.236   7.569  0.00  0.00    -0.520 OA
ENDROOT
BRANCH   3   5
ATOM      5  C   LIG    1       -1.662   4.558   8.063  0.00  0.00    +0.050 A 
ATOM      6  N   LIG    1       -0.606   5.188   7.609  0.00  0.00    -0.200 NA
ATOM      7  N   LIG    1        0.208   5.850   8.341  0.00  0.00    -0.360 N 
ATOM      8  C   LIG    1        0.072   5.979   9.677  0.00  0.00    +0.510 A 
ATOM      9  C   LIG    1       -1.070   5.325  10.331  0.00  0.00    -0.140 A 
ATOM     10  C   LIG    1       -1.299   5.398  11.701  0.00  0.00    +0.090 A 
ATOM     11  C   LIG    1       -2.405   4.771  12.235  0.00  0.00    +0.030 A 
ATOM     12  C   LIG    1       -3.277   4.057  11.424  0.00  0.00    +0.050 A 
ATOM     13  C   LIG    1       -3.064   3.968  10.064  0.00  0.00    +0.070 A 
ATOM     14  O   LIG    1        0.877   6.622  10.326  0.00  0.00    -0.490 OA
ATOM     15  C   LIG    1        1.348   6.504   7.694  0.00  0.00    +0.360 C 
ATOM     16  C   LIG    1       -1.961   4.603   9.504  0.00  0.00    -0.040 A 
ENDBRANCH   3   5
BRANCH   1  18
ATOM     17  C   LIG    1       -4.310   3.947   4.488  0.00  0.00    +0.040 C 
ATOM     18  C   LIG    1       -3.142   3.052   4.905  0.00  0.00    +0.290 C 
BRANCH  18  19
ATOM     19  C   LIG    1       -2.361   2.643   3.683  0.00  0.00    -0.030 A 
ATOM     20  C   LIG    1       -2.559   1.395   3.122  0.00  0.00    +0.010 A 
ATOM     21  C   LIG    1       -1.843   1.021   2.000  0.00  0.00    +0.140 A 
ATOM     22  C   LIG    1       -0.930   1.894   1.440  0.00  0.00    -0.680 A 
ATOM     23  C   LIG    1       -0.728   3.140   2.004  0.00  0.00    +0.140 A 
ATOM     24  C   LIG    1       -1.447   3.516   3.123  0.00  0.00    -0.010 A 
BRANCH  22  25
ATOM     25  S   LIG    1       -0.017   1.417   0.010  0.00  0.00    +2.700 S 
ATOM     26  O   LIG    1        1.162   2.210   0.003  0.00  0.00    -0.960 OA
ATOM     27  O   LIG    1        0.002  -0.004   0.002  0.00  0.00    -0.960 OA
BRANCH  25  28
ATOM     28  N   LIG    1       -0.900   1.880  -1.312  0.00  0.00    -1.250 NA
ATOM     29  H   LIG    1       -0.565   1.704  -2.205  0.00  0.00    +0.420 HD
ATOM     30  H   LIG    1       -1.753   2.326  -1.194  0.00  0.00    +0.420 HD
ENDBRANCH  25  28
ENDBRANCH  22  25
ENDBRANCH  18  19
ENDBRANCH   1  18
TORSDOF 5
