REMARK  Name = ZINCqH000003822b.0
REMARK                            x       y       z     vdW  Elec       q    Type
REMARK                         _______ _______ _______ _____ _____    ______ ____
ROOT
ATOM      1  C   LIG    1        1.182   1.786   0.000  0.00  0.00    +0.090 A 
ATOM      2  C   LIG    1       -0.013   1.076   0.008  0.00  0.00    +0.050 A 
ATOM      3  C   LIG    1       -1.215   1.747   0.017  0.00  0.00    +0.070 A 
ATOM      4  C   LIG    1       -1.233   3.144   0.029  0.00  0.00    -0.120 A 
ATOM      5  C   LIG    1       -0.029   3.855   0.022  0.00  0.00    +0.120 A 
ATOM      6  C   LIG    1        1.169   3.176   0.008  0.00  0.00    +0.030 A 
ENDROOT
BRANCH   4   7
ATOM      7  C   LIG    1       -2.519   3.868   0.044  0.00  0.00    +0.560 C 
ATOM      8  N   LIG    1       -3.678   3.181   0.051  0.00  0.00    -0.630 N 
ATOM      9  H   LIG    1       -3.667   2.211   0.046  0.00  0.00    +0.420 HD
ATOM     10  O   LIG    1       -2.532   5.084   0.051  0.00  0.00    -0.460 OA
BRANCH   8  11
ATOM     11  C   LIG    1       -4.889   3.862   0.066  0.00  0.00    +0.260 A 
ATOM     12  N   LIG    1       -5.015   5.152   0.079  0.00  0.00    -0.480 NA
ATOM     13  C   LIG    1       -6.244   5.632   0.087  0.00  0.00    +0.250 A 
ATOM     14  C   LIG    1       -7.203   4.703   0.091  0.00  0.00    -0.090 A 
ATOM     15  S   LIG    1       -6.429   3.120   0.076  0.00  0.00    +0.130 S 
ENDBRANCH   8  11
ENDBRANCH   4   7
BRANCH   1  16
ATOM     16  O   LIG    1        2.365   1.121  -0.014  0.00  0.00    -0.660 OA
BRANCH  16  17
ATOM     17  S   LIG    1        2.892   0.824  -1.411  0.00  0.00    +2.670 S 
ATOM     18  O   LIG    1        1.761   0.486  -2.202  0.00  0.00    -0.950 OA
ATOM     19  O   LIG    1        4.010  -0.037  -1.244  0.00  0.00    -0.920 OA
BRANCH  17  25
ATOM     20  C   LIG    1        2.279   5.283  -4.070  0.00  0.00    +0.090 C 
ATOM     21  C   LIG    1        3.184   4.364  -3.290  0.00  0.00    -0.110 A 
ATOM     22  C   LIG    1        4.508   4.707  -3.087  0.00  0.00    +0.080 A 
ATOM     23  C   LIG    1        5.338   3.864  -2.371  0.00  0.00    +0.000 A 
ATOM     24  C   LIG    1        4.844   2.678  -1.860  0.00  0.00    +0.020 A 
ATOM     25  C   LIG    1        3.520   2.336  -2.063  0.00  0.00    -0.700 A 
ATOM     26  C   LIG    1        5.749   1.759  -1.080  0.00  0.00    +0.120 C 
ATOM     27  C   LIG    1        2.692   3.176  -2.782  0.00  0.00    +0.130 A 
ENDBRANCH  17  25
ENDBRANCH  16  17
ENDBRANCH   1  16
TORSDOF 5
