REMARK  Name = ZINCpe000000Yz0x.0
REMARK                            x       y       z     vdW  Elec       q    Type
REMARK                         _______ _______ _______ _____ _____    ______ ____
ROOT
ATOM      1  C   LIG    1        2.393   1.394  -0.036  0.00  0.00    -0.150 A 
ATOM      2  C   LIG    1        2.396   0.044  -0.389  0.00  0.00    +0.100 A 
ATOM      3  C   LIG    1        1.212  -0.666  -0.400  0.00  0.00    +0.000 A 
ATOM      4  C   LIG    1        0.025  -0.042  -0.062  0.00  0.00    +0.150 A 
ATOM      5  C   LIG    1        0.015   1.297   0.289  0.00  0.00    -0.680 A 
ATOM      6  C   LIG    1        1.191   2.018   0.304  0.00  0.00    +0.180 A 
ENDROOT
BRANCH   1  12
ATOM      7  C   LIG    1        6.460   1.189   2.820  0.00  0.00    -0.010 C 
ATOM      8  C   LIG    1        6.363   2.587   2.205  0.00  0.00    +0.050 C 
ATOM      9  C   LIG    1        5.967   2.465   0.730  0.00  0.00    +0.280 C 
ATOM     10  N   LIG    1        4.730   1.678   0.636  0.00  0.00    -0.610 N 
ATOM     11  C   LIG    1        4.683   0.357   1.278  0.00  0.00    +0.280 C 
ATOM     12  C   LIG    1        3.657   2.160  -0.021  0.00  0.00    +0.560 C 
ATOM     13  O   LIG    1        3.729   3.226  -0.602  0.00  0.00    -0.520 OA
ATOM     14  C   LIG    1        5.095   0.500   2.742  0.00  0.00    +0.030 C 
BRANCH   7  18
ATOM     15  N   LIG    1        7.034   0.192   5.010  0.00  0.00    -0.860 N 
ATOM     16  H   LIG    1        7.306   0.266   5.938  0.00  0.00    +0.400 HD
ATOM     17  H   LIG    1        6.871  -0.681   4.620  0.00  0.00    +0.400 HD
ATOM     18  C   LIG    1        6.882   1.303   4.262  0.00  0.00    +0.520 C 
ATOM     19  O   LIG    1        7.086   2.395   4.750  0.00  0.00    -0.540 OA
ENDBRANCH   7  18
ENDBRANCH   1  12
BRANCH   5  20
ATOM     20  S   LIG    1       -1.504   2.084   0.711  0.00  0.00    +2.710 S 
ATOM     21  O   LIG    1       -2.534   1.326   0.091  0.00  0.00    -0.950 OA
ATOM     22  O   LIG    1       -1.314   3.473   0.479  0.00  0.00    -0.940 OA
BRANCH  20  23
ATOM     23  N   LIG    1       -1.711   1.906   2.344  0.00  0.00    -1.010 NA
ATOM     24  C   LIG    1       -2.407   0.791   3.003  0.00  0.00    +0.270 C 
ATOM     25  C   LIG    1       -2.372   1.063   4.522  0.00  0.00    +0.030 C 
ATOM     26  C   LIG    1       -2.163   2.599   4.593  0.00  0.00    +0.040 C 
ATOM     27  C   LIG    1       -1.234   2.843   3.378  0.00  0.00    +0.270 C 
ENDBRANCH  20  23
ENDBRANCH   5  20
TORSDOF 4
