REMARK  Name = ZINCvU0000000G8l.0
REMARK                            x       y       z     vdW  Elec       q    Type
REMARK                         _______ _______ _______ _____ _____    ______ ____
ROOT
ATOM      1  C   LIG    1       -0.922  -5.412  -3.026  0.00  0.00    +0.580 C 
ATOM      2  N   LIG    1       -0.406  -6.600  -2.655  0.00  0.00    -0.610 N 
ATOM      3  C   LIG    1        0.616  -6.804  -1.612  0.00  0.00    +0.260 C 
ATOM      4  C   LIG    1        1.297  -8.146  -1.982  0.00  0.00    +0.040 C 
ATOM      5  C   LIG    1        0.093  -8.970  -2.510  0.00  0.00    +0.060 C 
ATOM      6  C   LIG    1       -0.772  -7.907  -3.219  0.00  0.00    +0.260 C 
ATOM      7  O   LIG    1       -0.462  -4.381  -2.575  0.00  0.00    -0.530 OA
ENDROOT
BRANCH   6   8
ATOM      8  C   LIG    1       -2.233  -8.182  -2.968  0.00  0.00    -0.100 A 
ATOM      9  C   LIG    1       -2.852  -7.653  -1.851  0.00  0.00    +0.030 A 
ATOM     10  C   LIG    1       -4.194  -7.897  -1.617  0.00  0.00    +0.020 A 
ATOM     11  C   LIG    1       -4.913  -8.682  -2.502  0.00  0.00    +0.070 A 
ATOM     12  O   LIG    1       -6.235  -8.934  -2.281  0.00  0.00    -0.320 OA
ATOM     13  C   LIG    1       -6.567 -10.284  -1.951  0.00  0.00    +0.220 C 
ATOM     14  C   LIG    1       -6.732 -11.122  -3.209  0.00  0.00    -0.010 C 
ATOM     15  C   LIG    1       -5.434 -11.258  -3.989  0.00  0.00    +0.220 C 
ATOM     16  O   LIG    1       -5.008  -9.988  -4.488  0.00  0.00    -0.310 OA
ATOM     17  C   LIG    1       -4.290  -9.217  -3.622  0.00  0.00    +0.080 A 
ATOM     18  C   LIG    1       -2.949  -8.967  -3.855  0.00  0.00    +0.030 A 
ENDBRANCH   6   8
BRANCH   1  21
ATOM     19  C   LIG    1       -3.853  -4.150  -5.008  0.00  0.00    +0.110 A 
ATOM     20  C   LIG    1       -2.800  -4.192  -4.115  0.00  0.00    +0.010 A 
ATOM     21  C   LIG    1       -2.048  -5.362  -3.980  0.00  0.00    -0.090 A 
ATOM     22  C   LIG    1       -2.362  -6.484  -4.750  0.00  0.00    +0.040 A 
ATOM     23  C   LIG    1       -3.418  -6.437  -5.637  0.00  0.00    -0.030 A 
ATOM     24 CL   LIG    1       -3.813  -7.835  -6.588  0.00  0.00    -0.030 Cl
ATOM     25  C   LIG    1       -4.162  -5.273  -5.774  0.00  0.00    +0.110 A 
BRANCH  19  27
ATOM     26  C   LIG    1       -4.214  -1.901  -4.325  0.00  0.00    +0.250 C 
ATOM     27  O   LIG    1       -4.587  -3.013  -5.141  0.00  0.00    -0.300 OA
ENDBRANCH  19  27
BRANCH  25  28
ATOM     28  O   LIG    1       -5.197  -5.229  -6.653  0.00  0.00    -0.310 OA
BRANCH  28  29
ATOM     29  C   LIG    1       -4.901  -4.805  -7.984  0.00  0.00    +0.150 C 
ATOM     30  C   LIG    1       -4.532  -6.020  -8.837  0.00  0.00    +0.030 C 
ATOM     31  C   LIG    1       -6.127  -4.114  -8.585  0.00  0.00    +0.060 C 
ENDBRANCH  28  29
ENDBRANCH  25  28
ENDBRANCH   1  21
TORSDOF 5
