REMARK  Name = ZINCah0000001hNc.0
REMARK                            x       y       z     vdW  Elec       q    Type
REMARK                         _______ _______ _______ _____ _____    ______ ____
ROOT
ATOM      1  N   LIG    1       -2.733   2.090   2.223  0.00  0.00    -0.380 N 
ATOM      2  C   LIG    1       -2.609   3.165   1.425  0.00  0.00    +0.480 A 
ATOM      3  N   LIG    1       -1.644   2.929   0.573  0.00  0.00    -0.540 NA
ATOM      4  C   LIG    1       -1.137   1.716   0.789  0.00  0.00    +0.250 A 
ATOM      5  N   LIG    1       -1.768   1.164   1.791  0.00  0.00    -0.310 NA
ENDROOT
BRANCH   4   6
ATOM      6  C   LIG    1       -0.013   1.086   0.008  0.00  0.00    +0.050 C 
ATOM      7  C   LIG    1        0.460   1.806  -1.256  0.00  0.00    +0.060 C 
ATOM      8  C   LIG    1        1.335   1.811  -0.001  0.00  0.00    +0.040 C 
ENDBRANCH   4   6
BRANCH   1  10
ATOM      9  C   LIG    1       -5.015   1.405   2.772  0.00  0.00    +0.040 C 
ATOM     10  C   LIG    1       -3.684   1.918   3.324  0.00  0.00    +0.320 C 
ENDBRANCH   1  10
TORSDOF 2
