REMARK  Name = ZINCvU0000000JpO.0
REMARK                            x       y       z     vdW  Elec       q    Type
REMARK                         _______ _______ _______ _____ _____    ______ ____
ROOT
ATOM      1  C   LIG    1        3.366   0.318  -4.613  0.00  0.00    +0.130 A 
ATOM      2  C   LIG    1        2.104   0.460  -5.173  0.00  0.00    +0.090 A 
ATOM      3  C   LIG    1        0.979   0.232  -4.405  0.00  0.00    +0.020 A 
ATOM      4  C   LIG    1        1.109  -0.142  -3.080  0.00  0.00    +0.110 A 
ATOM      5  C   LIG    1        2.365  -0.279  -2.517  0.00  0.00    -0.660 A 
ATOM      6  C   LIG    1        3.494  -0.053  -3.280  0.00  0.00    +0.100 A 
ENDROOT
BRANCH   1   8
ATOM      7  C   LIG    1        4.499   0.250  -6.703  0.00  0.00    +0.610 C 
ATOM      8  N   LIG    1        4.507   0.547  -5.388  0.00  0.00    -0.670 N 
ATOM      9  H   LIG    1        5.304   0.919  -4.980  0.00  0.00    +0.410 HD
ATOM     10  O   LIG    1        3.535  -0.306  -7.196  0.00  0.00    -0.500 OA
BRANCH   7  13
ATOM     11  C   LIG    1        4.709  -0.335  -9.692  0.00  0.00    +0.180 C 
ATOM     12  C   LIG    1        5.778   0.348  -8.878  0.00  0.00    +0.180 A 
ATOM     13  C   LIG    1        5.651   0.595  -7.538  0.00  0.00    -0.330 A 
ATOM     14  S   LIG    1        7.124   1.395  -6.996  0.00  0.00    +0.190 S 
ATOM     15  C   LIG    1        7.756   1.333  -8.583  0.00  0.00    +0.140 A 
ATOM     16  N   LIG    1        6.907   0.761  -9.391  0.00  0.00    -0.480 NA
BRANCH  15  17
ATOM     17  C   LIG    1        9.077   1.854  -8.982  0.00  0.00    -0.080 A 
ATOM     18  C   LIG    1        9.547   1.790 -10.244  0.00  0.00    +0.000 A 
ATOM     19  S   LIG    1       11.101   2.483 -10.352  0.00  0.00    +0.200 S 
ATOM     20  C   LIG    1       11.124   2.874  -8.640  0.00  0.00    -0.040 A 
ATOM     21  C   LIG    1        9.991   2.487  -8.062  0.00  0.00    +0.030 A 
ENDBRANCH  15  17
ENDBRANCH   7  13
ENDBRANCH   1   8
BRANCH   5  22
ATOM     22  S   LIG    1        2.525  -0.750  -0.827  0.00  0.00    +2.690 S 
ATOM     23  O   LIG    1        1.323  -1.425  -0.483  0.00  0.00    -0.940 OA
ATOM     24  O   LIG    1        3.812  -1.338  -0.694  0.00  0.00    -0.940 OA
BRANCH  22  25
ATOM     25  N   LIG    1        2.552   0.642   0.069  0.00  0.00    -1.050 N 
ATOM     26  H   LIG    1        3.325   0.852   0.617  0.00  0.00    +0.430 HD
BRANCH  25  27
ATOM     27  C   LIG    1        1.461   1.516   0.037  0.00  0.00    +0.120 A 
ATOM     28  C   LIG    1        0.171   1.015  -0.066  0.00  0.00    +0.020 A 
ATOM     29  C   LIG    1       -0.905   1.881  -0.104  0.00  0.00    +0.040 A 
ATOM     30  C   LIG    1       -0.699   3.246  -0.029  0.00  0.00    +0.040 A 
ATOM     31  C   LIG    1        0.585   3.751   0.074  0.00  0.00    +0.010 A 
ATOM     32  C   LIG    1        1.666   2.890   0.107  0.00  0.00    +0.080 A 
ATOM     33  F   LIG    1        2.920   3.383   0.207  0.00  0.00    -0.130 F 
ENDBRANCH  25  27
ENDBRANCH  22  25
ENDBRANCH   5  22
TORSDOF 6
