REMARK  Name = ZINCqH0000002Nvv.0
REMARK                            x       y       z     vdW  Elec       q    Type
REMARK                         _______ _______ _______ _____ _____    ______ ____
ROOT
ATOM      1  C   LIG    1        1.631  -4.826   3.338  0.00  0.00    -0.010 C 
ATOM      2  C   LIG    1        0.407  -4.603   4.231  0.00  0.00    +0.020 C 
ATOM      3  C   LIG    1       -0.830  -5.190   3.545  0.00  0.00    +0.040 C 
ATOM      4  C   LIG    1       -1.005  -4.535   2.173  0.00  0.00    +0.170 C 
ATOM      5  N   LIG    1        0.191  -4.777   1.356  0.00  0.00    -0.520 NA
ATOM      6  C   LIG    1        1.383  -4.181   1.972  0.00  0.00    +0.210 C 
ENDROOT
BRANCH   1   9
ATOM      7  N   LIG    1        3.249  -4.611   5.196  0.00  0.00    -0.730 N 
ATOM      8  H   LIG    1        2.761  -5.310   5.660  0.00  0.00    +0.400 HD
ATOM      9  C   LIG    1        2.842  -4.200   3.979  0.00  0.00    +0.520 C 
ATOM     10  O   LIG    1        3.451  -3.325   3.399  0.00  0.00    -0.530 OA
BRANCH   7  11
ATOM     11  C   LIG    1        4.426  -4.002   5.819  0.00  0.00    +0.230 C 
ATOM     12  C   LIG    1        4.013  -2.724   6.551  0.00  0.00    +0.020 C 
BRANCH  11  13
ATOM     13  C   LIG    1        5.041  -4.985   6.818  0.00  0.00    +0.020 C 
BRANCH  13  15
ATOM     14  C   LIG    1        6.182  -7.194   7.067  0.00  0.00    +0.000 C 
ATOM     15  C   LIG    1        5.567  -6.211   6.069  0.00  0.00    +0.000 C 
ENDBRANCH  13  15
ENDBRANCH  11  13
ENDBRANCH   7  11
ENDBRANCH   1   9
BRANCH   5  16
ATOM     16  C   LIG    1        0.002  -4.282  -0.014  0.00  0.00    +0.280 C 
BRANCH  16  17
ATOM     17  C   LIG    1       -0.175  -2.786   0.013  0.00  0.00    -0.090 A 
ATOM     18  C   LIG    1       -1.444  -2.243   0.098  0.00  0.00    +0.040 A 
ATOM     19  C   LIG    1       -1.610  -0.867   0.122  0.00  0.00    +0.070 A 
ATOM     20  C   LIG    1       -0.499  -0.034   0.064  0.00  0.00    +0.060 A 
ATOM     21  O   LIG    1       -0.640   1.319   0.091  0.00  0.00    -0.300 OA
ATOM     22  C   LIG    1       -1.943   1.836  -0.202  0.00  0.00    +0.230 C 
ATOM     23  C   LIG    1       -2.972   1.024   0.596  0.00  0.00    +0.230 C 
ATOM     24  C   LIG    1        0.771  -0.585  -0.022  0.00  0.00    +0.070 A 
ATOM     25  O   LIG    1       -2.866  -0.347   0.199  0.00  0.00    -0.300 OA
ATOM     26  C   LIG    1        0.931  -1.958  -0.047  0.00  0.00    -0.080 A 
ATOM     27 BR   LIG    1        2.664  -2.705  -0.165  0.00  0.00    -0.020 Br
ENDBRANCH  16  17
ENDBRANCH   5  16
TORSDOF 6
