REMARK  Name = ZINCrH00000amdar.0
REMARK                            x       y       z     vdW  Elec       q    Type
REMARK                         _______ _______ _______ _____ _____    ______ ____
ROOT
ATOM      1  C   LIG    1       -3.530   0.468   7.869  0.00  0.00    +0.040 C 
ATOM      2  C   LIG    1       -2.814   1.588   7.112  0.00  0.00    +0.230 C 
ENDROOT
BRANCH   2   3
ATOM      3  N   LIG    1       -3.662   2.783   7.092  0.00  0.00    -0.730 N 
ATOM      4  H   LIG    1       -4.241   2.954   6.333  0.00  0.00    +0.400 HD
ATOM      5  C   LIG    1       -3.637   3.644   8.129  0.00  0.00    +0.590 C 
ATOM      6  O   LIG    1       -2.911   3.429   9.081  0.00  0.00    -0.510 OA
BRANCH   5   7
ATOM      7  C   LIG    1       -4.485   4.838   8.109  0.00  0.00    -0.000 A 
ATOM      8  C   LIG    1       -4.559   5.788   9.099  0.00  0.00    +0.100 A 
ATOM      9  C   LIG    1       -5.484   6.763   8.684  0.00  0.00    -0.220 A 
ATOM     10  C   LIG    1       -5.971   6.390   7.445  0.00  0.00    +0.080 A 
ATOM     11  C   LIG    1       -6.911   7.291   6.934  0.00  0.00    +0.020 A 
ATOM     12  C   LIG    1       -7.179   8.340   7.703  0.00  0.00    +0.000 A 
ATOM     13  S   LIG    1       -6.237   8.273   9.184  0.00  0.00    +0.140 S 
ATOM     14  N   LIG    1       -5.349   5.197   7.096  0.00  0.00    -0.540 N 
ATOM     15  H   LIG    1       -5.497   4.701   6.276  0.00  0.00    +0.420 HD
ENDBRANCH   5   7
ENDBRANCH   2   3
BRANCH   2  16
ATOM     16  C   LIG    1       -2.536   1.136   5.677  0.00  0.00    +0.280 C 
BRANCH  16  17
ATOM     17  N   LIG    1       -1.960   2.249   4.918  0.00  0.00    -0.730 N 
ATOM     18  H   LIG    1       -1.814   3.106   5.348  0.00  0.00    +0.400 HD
ATOM     19  C   LIG    1       -1.631   2.082   3.621  0.00  0.00    +0.560 C 
ATOM     20  O   LIG    1       -1.814   1.008   3.082  0.00  0.00    -0.520 OA
BRANCH  19  21
ATOM     21  C   LIG    1       -1.050   3.204   2.856  0.00  0.00    -0.150 A 
ATOM     22  C   LIG    1       -0.721   4.396   3.502  0.00  0.00    +0.080 A 
ATOM     23  C   LIG    1       -0.178   5.440   2.783  0.00  0.00    -0.030 A 
ATOM     24  C   LIG    1        0.041   5.307   1.421  0.00  0.00    +0.140 A 
ATOM     25  C   LIG    1       -0.281   4.122   0.775  0.00  0.00    -0.020 A 
ATOM     26  F   LIG    1        0.573   6.332   0.721  0.00  0.00    -0.130 F 
ATOM     27  C   LIG    1       -0.828   3.075   1.483  0.00  0.00    +0.040 A 
BRANCH  27  28
ATOM     28  C   LIG    1       -1.181   1.790   0.778  0.00  0.00    +0.020 C 
ATOM     29  C   LIG    1       -0.030   0.955   0.213  0.00  0.00    +0.040 C 
ATOM     30  C   LIG    1       -0.951   1.727  -0.734  0.00  0.00    +0.020 C 
ENDBRANCH  27  28
ENDBRANCH  19  21
ENDBRANCH  16  17
ENDBRANCH   2  16
TORSDOF 6
