REMARK  Name = ZINCrg00001Jdv7X.0
REMARK                            x       y       z     vdW  Elec       q    Type
REMARK                         _______ _______ _______ _____ _____    ______ ____
ROOT
ATOM      1  C   LIG    1       -0.982   1.747  -3.604  0.00  0.00    -0.150 A 
ATOM      2  C   LIG    1       -2.128   2.535  -3.468  0.00  0.00    +0.130 A 
ATOM      3  C   LIG    1       -2.802   2.996  -4.576  0.00  0.00    +0.030 A 
ATOM      4  C   LIG    1       -2.342   2.679  -5.854  0.00  0.00    +0.250 A 
ATOM      5  C   LIG    1       -1.196   1.891  -5.971  0.00  0.00    -0.690 A 
ATOM      6  S   LIG    1       -0.695   1.545  -7.638  0.00  0.00    +2.600 S 
ATOM      7  N   LIG    1       -1.714   2.245  -8.770  0.00  0.00    -0.910 NA
ATOM      8  C   LIG    1       -2.726   2.941  -8.285  0.00  0.00    +0.630 A 
ATOM      9  N   LIG    1       -3.687   3.601  -9.032  0.00  0.00    -0.610 N 
ATOM     10  H   LIG    1       -3.734   3.633 -10.000  0.00  0.00    +0.460 HD
ATOM     11  C   LIG    1       -4.559   4.201  -8.162  0.00  0.00    +0.570 A 
ATOM     12  N   LIG    1       -4.194   3.951  -6.954  0.00  0.00    -0.280 NA
ATOM     13  O   LIG    1        0.558   2.196  -7.800  0.00  0.00    -0.930 OA
ATOM     14  O   LIG    1       -0.850   0.142  -7.801  0.00  0.00    -0.930 OA
ATOM     15  N   LIG    1       -3.026   3.147  -6.978  0.00  0.00    -0.410 N 
ATOM     16  C   LIG    1       -0.512   1.430  -4.889  0.00  0.00    +0.240 A 
ENDROOT
BRANCH   1  19
ATOM     17  N   LIG    1       -0.721   1.571  -1.179  0.00  0.00    -0.720 N 
ATOM     18  H   LIG    1       -1.516   2.118  -1.079  0.00  0.00    +0.400 HD
ATOM     19  C   LIG    1       -0.268   1.258  -2.409  0.00  0.00    +0.560 C 
ATOM     20  O   LIG    1        0.729   0.574  -2.534  0.00  0.00    -0.520 OA
BRANCH  17  21
ATOM     21  C   LIG    1       -0.013   1.086   0.008  0.00  0.00    +0.270 C 
BRANCH  21  22
ATOM     22  C   LIG    1       -0.729   1.579   1.267  0.00  0.00    +0.100 C 
BRANCH  22  23
ATOM     23  C   LIG    1        0.011   1.072   2.506  0.00  0.00    +0.030 C 
ATOM     24  N   LIG    1        1.454   0.835   2.413  0.00  0.00    -0.110 NA
ATOM     25  N   LIG    1        0.751  -0.189   2.414  0.00  0.00    -0.110 NA
BRANCH  23  26
ATOM     26  C   LIG    1       -0.578   1.479   3.859  0.00  0.00    +0.120 C 
BRANCH  26  27
ATOM     27  C   LIG    1        0.277   0.893   4.984  0.00  0.00    +0.160 C 
BRANCH  27  29
ATOM     28  C   LIG    1       -0.742   1.596   7.323  0.00  0.00    +0.030 C 
ATOM     29  C   LIG    1       -0.290   1.284   6.285  0.00  0.00    -0.190 C 
ENDBRANCH  27  29
ENDBRANCH  26  27
ENDBRANCH  23  26
ENDBRANCH  22  23
ENDBRANCH  21  22
ENDBRANCH  17  21
ENDBRANCH   1  19
TORSDOF 7
