REMARK  Name = ZINCkj000005ml6t.0
REMARK                            x       y       z     vdW  Elec       q    Type
REMARK                         _______ _______ _______ _____ _____    ______ ____
ROOT
ATOM      1  C   LIG    1       -0.706   1.566   3.666  0.00  0.00    +0.250 C 
ENDROOT
BRANCH   1   2
ATOM      2  N   LIG    1       -0.018   1.093   2.457  0.00  0.00    -0.500 N 
ATOM      3  H   LIG    1        0.928   1.442   2.450  0.00  0.00    +0.440 HD
ATOM      4  H   LIG    1       -0.005   0.084   2.451  0.00  0.00    +0.430 HD
BRANCH   2   5
ATOM      5  C   LIG    1       -0.729   1.579   1.267  0.00  0.00    +0.270 C 
BRANCH   5   6
ATOM      6  C   LIG    1       -0.013   1.086   0.008  0.00  0.00    +0.030 C 
BRANCH   6   7
ATOM      7  C   LIG    1       -0.753   1.593  -1.232  0.00  0.00    +0.310 C 
BRANCH   7   8
ATOM      8  N   LIG    1       -0.067   1.120  -2.437  0.00  0.00    -0.470 N 
ATOM      9  C   LIG    1       -0.311  -0.050  -3.104  0.00  0.00    +0.120 A 
ATOM     10  C   LIG    1        0.539  -0.087  -4.148  0.00  0.00    +0.150 A 
ATOM     11  N   LIG    1        1.281   1.030  -4.120  0.00  0.00    -0.480 NA
ATOM     12  C   LIG    1        0.919   1.760  -3.100  0.00  0.00    +0.390 A 
ENDBRANCH   7   8
ENDBRANCH   6   7
ENDBRANCH   5   6
ENDBRANCH   2   5
ENDBRANCH   1   2
BRANCH   1  13
ATOM     13  C   LIG    1        0.034   1.060   4.905  0.00  0.00    +0.230 C 
BRANCH  13  14
ATOM     14  O   LIG    1        1.336   1.647   4.956  0.00  0.00    -0.540 OA
ATOM     15  H   LIG    1        1.330   2.613   5.002  0.00  0.00    +0.390 HD
ENDBRANCH  13  14
BRANCH  13  16
ATOM     16  C   LIG    1       -0.750   1.447   6.161  0.00  0.00    +0.190 C 
BRANCH  16  17
ATOM     17  O   LIG    1       -0.121   0.875   7.310  0.00  0.00    -0.300 OA
BRANCH  17  18
ATOM     18  C   LIG    1       -0.696   1.124   8.516  0.00  0.00    +0.120 A 
ATOM     19  C   LIG    1       -1.838   1.908   8.592  0.00  0.00    -0.090 A 
ATOM     20  C   LIG    1       -2.424   2.156   9.819  0.00  0.00    +0.050 A 
ATOM     21  C   LIG    1       -1.866   1.632  10.970  0.00  0.00    -0.020 A 
ATOM     22  C   LIG    1       -0.725   0.855  10.897  0.00  0.00    +0.060 A 
ATOM     23  C   LIG    1       -0.139   0.600   9.673  0.00  0.00    -0.010 A 
ENDBRANCH  17  18
ENDBRANCH  16  17
ENDBRANCH  13  16
ENDBRANCH   1  13
TORSDOF 10
