REMARK  Name = ZINCpe000000XhHu.0
REMARK                            x       y       z     vdW  Elec       q    Type
REMARK                         _______ _______ _______ _____ _____    ______ ____
ROOT
ATOM      1  N   LIG    1       -0.591   1.825   1.133  0.00  0.00    -0.720 N 
ATOM      2  H   LIG    1       -0.175   2.646   1.439  0.00  0.00    +0.410 HD
ATOM      3  C   LIG    1       -1.701   1.364   1.743  0.00  0.00    +0.500 C 
ATOM      4  O   LIG    1       -2.221   0.338   1.360  0.00  0.00    -0.520 OA
ENDROOT
BRANCH   1   6
ATOM      5  C   LIG    1       -0.717   1.495  -1.287  0.00  0.00    +0.050 C 
ATOM      6  C   LIG    1       -0.013   1.086   0.008  0.00  0.00    +0.320 C 
BRANCH   6   7
ATOM      7  C   LIG    1        1.457   1.401  -0.098  0.00  0.00    -0.040 A 
ATOM      8  C   LIG    1        2.047   2.586   0.161  0.00  0.00    +0.150 A 
ATOM      9  N   LIG    1        3.366   2.450  -0.050  0.00  0.00    -0.480 NA
ATOM     10  C   LIG    1        3.614   1.232  -0.437  0.00  0.00    +0.220 A 
ATOM     11  C   LIG    1        4.957   0.637  -0.788  0.00  0.00    +0.150 C 
ATOM     12  C   LIG    1        4.819  -0.890  -0.791  0.00  0.00    +0.030 C 
ATOM     13  C   LIG    1        3.589  -1.284  -1.615  0.00  0.00    +0.030 C 
ATOM     14  C   LIG    1        2.318  -0.859  -0.872  0.00  0.00    +0.280 C 
ATOM     15  N   LIG    1        2.447   0.546  -0.480  0.00  0.00    -0.440 N 
ENDBRANCH   6   7
ENDBRANCH   1   6
BRANCH   3  16
ATOM     16  C   LIG    1       -2.296   2.124   2.900  0.00  0.00    +0.360 C 
BRANCH  16  17
ATOM     17  N   LIG    1       -3.487   1.423   3.384  0.00  0.00    -0.460 N 
ATOM     18  C   LIG    1       -4.776   1.678   3.022  0.00  0.00    +0.480 A 
ATOM     19  N   LIG    1       -5.582   0.867   3.643  0.00  0.00    -0.460 NA
ATOM     20  C   LIG    1       -4.863   0.042   4.442  0.00  0.00    -0.110 A 
ATOM     21  C   LIG    1       -5.181  -1.006   5.323  0.00  0.00    +0.510 A 
ATOM     22  N   LIG    1       -4.191  -1.617   5.965  0.00  0.00    -0.590 NA
ATOM     23  C   LIG    1       -2.934  -1.255   5.785  0.00  0.00    +0.570 A 
ATOM     24  N   LIG    1       -2.588  -0.280   4.970  0.00  0.00    -0.560 NA
ATOM     25  C   LIG    1       -3.510   0.386   4.282  0.00  0.00    +0.310 A 
BRANCH  21  26
ATOM     26  N   LIG    1       -6.496  -1.392   5.518  0.00  0.00    -0.820 N 
ATOM     27  H   LIG    1       -6.703  -2.116   6.129  0.00  0.00    +0.410 HD
ATOM     28  H   LIG    1       -7.210  -0.938   5.045  0.00  0.00    +0.420 HD
ENDBRANCH  21  26
ENDBRANCH  16  17
ENDBRANCH   3  16
TORSDOF 5
