REMARK  Name = ZINCpk000004F5BF.0
REMARK                            x       y       z     vdW  Elec       q    Type
REMARK                         _______ _______ _______ _____ _____    ______ ____
ROOT
ATOM      1  N   LIG    1       -1.331  -1.984  -4.759  0.00  0.00    -0.740 N 
ATOM      2  H   LIG    1       -2.021  -2.646  -4.925  0.00  0.00    +0.390 HD
ATOM      3  C   LIG    1       -0.546  -2.090  -3.669  0.00  0.00    +0.720 C 
ATOM      4  N   LIG    1       -0.719  -3.114  -2.810  0.00  0.00    -0.620 N 
ATOM      5  C   LIG    1       -1.640  -4.279  -2.982  0.00  0.00    +0.240 C 
ATOM      6  C   LIG    1       -1.917  -4.787  -1.546  0.00  0.00    +0.050 C 
ATOM      7  C   LIG    1       -0.535  -4.584  -0.869  0.00  0.00    +0.010 C 
ATOM      8  C   LIG    1        0.592  -5.326  -1.607  0.00  0.00    +0.020 C 
ATOM      9  C   LIG    1        1.348  -3.990  -1.662  0.00  0.00    +0.020 C 
ATOM     10  C   LIG    1       -0.011  -3.289  -1.536  0.00  0.00    +0.240 C 
ATOM     11  O   LIG    1        0.319  -1.261  -3.461  0.00  0.00    -0.570 OA
ENDROOT
BRANCH   1  17
ATOM     12  C   LIG    1       -3.365   1.294  -9.599  0.00  0.00    +0.080 C 
ATOM     13  C   LIG    1       -2.929   1.802  -8.249  0.00  0.00    +0.510 C 
ATOM     14  N   LIG    1       -2.049   1.094  -7.515  0.00  0.00    -0.620 N 
ATOM     15  C   LIG    1       -1.427  -0.121  -8.059  0.00  0.00    +0.290 C 
ATOM     16  C   LIG    1       -1.657  -1.275  -7.077  0.00  0.00    +0.010 C 
ATOM     17  C   LIG    1       -1.143  -0.871  -5.693  0.00  0.00    +0.260 C 
ATOM     18  C   LIG    1       -1.921   0.349  -5.194  0.00  0.00    +0.010 C 
ATOM     19  C   LIG    1       -1.693   1.521  -6.155  0.00  0.00    +0.280 C 
ATOM     20  O   LIG    1       -3.370   2.849  -7.824  0.00  0.00    -0.540 OA
ENDBRANCH   1  17
BRANCH  10  21
ATOM     21  C   LIG    1       -0.016  -2.065  -0.657  0.00  0.00    -0.220 A 
ATOM     22  C   LIG    1        0.723  -1.886   0.463  0.00  0.00    +0.230 A 
ATOM     23  N   LIG    1        0.430  -0.666   0.959  0.00  0.00    -0.380 N 
ATOM     24  N   LIG    1       -0.514  -0.072   0.111  0.00  0.00    -0.300 NA
ATOM     25  C   LIG    1        1.002  -0.066   2.167  0.00  0.00    +0.350 C 
ATOM     26  C   LIG    1       -0.781  -0.911  -0.857  0.00  0.00    +0.250 A 
ENDBRANCH  10  21
TORSDOF 2
