REMARK  Name = ZINCpe000000Y1HT.0
REMARK                            x       y       z     vdW  Elec       q    Type
REMARK                         _______ _______ _______ _____ _____    ______ ____
ROOT
ATOM      1  C   LIG    1       -3.810   2.212   0.069  0.00  0.00    +0.550 C 
ATOM      2  N   LIG    1       -4.929   1.467  -0.031  0.00  0.00    -0.600 N 
ATOM      3  C   LIG    1       -4.904  -0.015  -0.083  0.00  0.00    +0.270 C 
ATOM      4  C   LIG    1       -5.851  -0.614   0.960  0.00  0.00    +0.030 C 
ATOM      5  C   LIG    1       -7.238   0.055   0.934  0.00  0.00    +0.010 C 
ATOM      6  C   LIG    1       -7.016   1.535   1.153  0.00  0.00    -0.020 C 
ATOM      7  C   LIG    1       -8.223   2.467   1.098  0.00  0.00    +0.280 C 
ATOM      8  N   LIG    1       -7.648   3.741   0.602  0.00  0.00    -0.740 N 
ATOM      9  H   LIG    1       -8.062   4.612   0.708  0.00  0.00    +0.410 HD
ATOM     10  C   LIG    1       -6.458   3.518  -0.003  0.00  0.00    +0.520 C 
ATOM     11  O   LIG    1       -5.698   4.375  -0.401  0.00  0.00    -0.470 OA
ATOM     12  C   LIG    1       -7.904  -0.178  -0.423  0.00  0.00    +0.020 C 
ATOM     13  C   LIG    1       -6.253   2.049  -0.104  0.00  0.00    +0.220 C 
ATOM     14  O   LIG    1       -3.893   3.416   0.212  0.00  0.00    -0.470 OA
ENDROOT
BRANCH   1  22
ATOM     15  C   LIG    1        0.587  -3.130  -2.421  0.00  0.00    +0.190 C 
ATOM     16  C   LIG    1        0.393  -1.886  -1.593  0.00  0.00    +0.450 A 
ATOM     17  N   LIG    1        1.420  -1.407  -0.948  0.00  0.00    -0.600 NA
ATOM     18  C   LIG    1        1.327  -0.299  -0.188  0.00  0.00    +0.530 A 
ATOM     19  C   LIG    1        0.016   0.373  -0.099  0.00  0.00    -0.190 A 
ATOM     20  C   LIG    1       -0.172   1.524   0.663  0.00  0.00    +0.120 A 
ATOM     21  C   LIG    1       -1.405   2.110   0.713  0.00  0.00    +0.060 A 
ATOM     22  C   LIG    1       -2.481   1.564   0.005  0.00  0.00    -0.060 A 
ATOM     23  C   LIG    1       -2.307   0.417  -0.765  0.00  0.00    +0.010 A 
ATOM     24  C   LIG    1       -1.058  -0.186  -0.816  0.00  0.00    +0.170 A 
ATOM     25  O   LIG    1        2.296   0.136   0.409  0.00  0.00    -0.470 OA
ATOM     26  N   LIG    1       -0.829  -1.327  -1.559  0.00  0.00    -0.630 N 
ATOM     27  H   LIG    1       -1.556  -1.729  -2.061  0.00  0.00    +0.420 HD
ENDBRANCH   1  22
TORSDOF 1
