REMARK  Name = ZINCnE000001TzUM.0
REMARK                            x       y       z     vdW  Elec       q    Type
REMARK                         _______ _______ _______ _____ _____    ______ ____
ROOT
ATOM      1  N   LIG    1       -0.742   7.164   1.454  0.00  0.00    -0.670 N 
ATOM      2  H   LIG    1       -0.445   7.774   0.760  0.00  0.00    +0.410 HD
ATOM      3  C   LIG    1       -0.684   5.832   1.250  0.00  0.00    +0.520 C 
ATOM      4  O   LIG    1       -1.126   5.072   2.084  0.00  0.00    -0.510 OA
ENDROOT
BRANCH   1   9
ATOM      5  C   LIG    1       -1.166   9.311   4.408  0.00  0.00    -0.000 A 
ATOM      6  C   LIG    1       -2.195   8.658   5.061  0.00  0.00    -0.010 A 
ATOM      7  C   LIG    1       -2.742   7.509   4.519  0.00  0.00    +0.010 A 
ATOM      8  C   LIG    1       -2.267   7.014   3.321  0.00  0.00    -0.010 A 
ATOM      9  C   LIG    1       -1.230   7.665   2.665  0.00  0.00    +0.130 A 
ATOM     10  C   LIG    1       -0.682   8.819   3.212  0.00  0.00    -0.020 A 
BRANCH   5  11
ATOM     11  C   LIG    1       -0.573  10.563   5.002  0.00  0.00    -0.020 C 
BRANCH  11  13
ATOM     12  O   LIG    1       -2.255  11.620   3.718  0.00  0.00    -0.690 OA
ATOM     13  C   LIG    1       -1.324  11.766   4.492  0.00  0.00    +0.500 C 
ATOM     14  O   LIG    1       -1.001  12.884   4.853  0.00  0.00    -0.700 OA
ENDBRANCH  11  13
ENDBRANCH   5  11
ENDBRANCH   1   9
BRANCH   3  15
ATOM     15  C   LIG    1       -0.069   5.290  -0.014  0.00  0.00    +0.070 C 
BRANCH  15  16
ATOM     16  C   LIG    1        0.643   3.997   0.289  0.00  0.00    -0.070 A 
ATOM     17  C   LIG    1        2.000   3.882   0.050  0.00  0.00    +0.010 A 
ATOM     18  C   LIG    1        2.653   2.696   0.327  0.00  0.00    -0.010 A 
ATOM     19  C   LIG    1        1.950   1.624   0.844  0.00  0.00    +0.000 A 
ATOM     20  C   LIG    1        0.592   1.737   1.078  0.00  0.00    -0.010 A 
ATOM     21  C   LIG    1       -0.060   2.924   0.804  0.00  0.00    +0.050 A 
ENDBRANCH  15  16
BRANCH  15  22
ATOM     22  C   LIG    1       -1.168   5.037  -1.048  0.00  0.00    -0.030 C 
ATOM     23  C   LIG    1       -0.957   5.598  -2.455  0.00  0.00    +0.030 C 
ATOM     24  C   LIG    1       -1.983   6.242  -1.521  0.00  0.00    +0.020 C 
ENDBRANCH  15  22
ENDBRANCH   3  15
TORSDOF 6
