REMARK  Name = ZINCrg000000thJ1.0
REMARK                            x       y       z     vdW  Elec       q    Type
REMARK                         _______ _______ _______ _____ _____    ______ ____
ROOT
ATOM      1  O   LIG    1        1.026   1.964   0.003  0.00  0.00    -0.520 OA
ATOM      2  C   LIG    1       -0.016   1.344   0.009  0.00  0.00    +0.510 C 
ATOM      3  N   LIG    1        0.002  -0.004   0.002  0.00  0.00    -0.610 N 
ATOM      4  C   LIG    1       -1.250  -0.776   0.016  0.00  0.00    +0.290 C 
ATOM      5  C   LIG    1       -1.197  -1.801  -1.129  0.00  0.00    +0.190 C 
ATOM      6  N   LIG    1        0.028  -2.602  -1.005  0.00  0.00    -0.490 N 
ATOM      7  C   LIG    1        1.228  -1.768  -1.151  0.00  0.00    +0.190 C 
ATOM      8  C   LIG    1        1.274  -0.742  -0.014  0.00  0.00    +0.300 C 
ENDROOT
BRANCH   6   9
ATOM      9  C   LIG    1        0.034  -3.655  -1.927  0.00  0.00    +0.080 A 
ATOM     10  C   LIG    1        0.062  -3.386  -3.288  0.00  0.00    +0.030 A 
ATOM     11  C   LIG    1        0.068  -4.426  -4.197  0.00  0.00    +0.000 A 
ATOM     12  C   LIG    1        0.045  -5.737  -3.751  0.00  0.00    +0.120 A 
ATOM     13  C   LIG    1        0.017  -6.008  -2.394  0.00  0.00    +0.010 A 
ATOM     14  F   LIG    1        0.050  -6.753  -4.642  0.00  0.00    -0.130 F 
ATOM     15  C   LIG    1        0.016  -4.971  -1.481  0.00  0.00    +0.020 A 
ATOM     16 CL   LIG    1       -0.013  -5.311   0.221  0.00  0.00    -0.030 Cl
ENDBRANCH   6   9
BRANCH   2  17
ATOM     17  C   LIG    1       -1.331   2.079   0.020  0.00  0.00    +0.380 C 
BRANCH  17  18
ATOM     18  N   LIG    1       -1.083   3.523   0.026  0.00  0.00    -0.420 N 
ATOM     19  N   LIG    1       -0.959   4.208   1.239  0.00  0.00    -0.260 NA
ATOM     20  C   LIG    1       -0.740   5.479   1.292  0.00  0.00    +0.570 A 
ATOM     21  N   LIG    1       -0.614   6.241   0.152  0.00  0.00    -0.340 N 
ATOM     22  N   LIG    1       -0.381   7.603  -0.066  0.00  0.00    -0.240 NA
ATOM     23  C   LIG    1       -0.349   7.826  -1.359  0.00  0.00    +0.280 A 
ATOM     24  C   LIG    1       -0.560   6.625  -2.029  0.00  0.00    +0.010 A 
ATOM     25  C   LIG    1       -0.724   5.642  -1.079  0.00  0.00    +0.010 A 
ATOM     26  C   LIG    1       -0.968   4.197  -1.141  0.00  0.00    +0.570 A 
ATOM     27  O   LIG    1       -1.068   3.623  -2.211  0.00  0.00    -0.500 OA
ENDBRANCH  17  18
ENDBRANCH   2  17
TORSDOF 3
