REMARK  Name = ZINCpk000004AT9Z.0
REMARK                            x       y       z     vdW  Elec       q    Type
REMARK                         _______ _______ _______ _____ _____    ______ ____
ROOT
ATOM      1  C   LIG    1       -1.217   1.743  -0.035  0.00  0.00    -0.090 A 
ATOM      2  C   LIG    1       -0.207   1.388   0.841  0.00  0.00    +0.030 A 
ATOM      3  C   LIG    1        0.977   2.096   0.857  0.00  0.00    +0.060 A 
ATOM      4  C   LIG    1        1.154   3.175  -0.011  0.00  0.00    -0.120 A 
ATOM      5  C   LIG    1        0.129   3.531  -0.889  0.00  0.00    +0.040 A 
ATOM      6  C   LIG    1       -1.051   2.815  -0.894  0.00  0.00    +0.020 A 
ENDROOT
BRANCH   4   7
ATOM      7  C   LIG    1        2.420   3.937   0.000  0.00  0.00    +0.560 C 
ATOM      8  N   LIG    1        2.398   5.282  -0.095  0.00  0.00    -0.600 N 
ATOM      9  C   LIG    1        1.123   6.012  -0.081  0.00  0.00    +0.270 C 
ATOM     10  C   LIG    1        1.181   7.084   1.012  0.00  0.00    +0.010 C 
ATOM     11  C   LIG    1        2.410   7.968   0.789  0.00  0.00    +0.050 C 
ATOM     12  C   LIG    1        3.678   7.116   0.882  0.00  0.00    -0.020 C 
ATOM     13  C   LIG    1        3.648   6.045  -0.207  0.00  0.00    +0.290 C 
ATOM     14  O   LIG    1        3.481   3.352   0.095  0.00  0.00    -0.530 OA
BRANCH  12  15
ATOM     15  C   LIG    1        4.888   7.993   0.695  0.00  0.00    +0.520 C 
ATOM     16  N   LIG    1        6.123   7.455   0.738  0.00  0.00    -0.620 N 
ATOM     17  C   LIG    1        6.289   6.017   0.965  0.00  0.00    +0.290 C 
ATOM     18  C   LIG    1        7.301   8.308   0.556  0.00  0.00    +0.290 C 
ATOM     19  O   LIG    1        4.752   9.183   0.507  0.00  0.00    -0.530 OA
ENDBRANCH  12  15
ENDBRANCH   4   7
BRANCH   1  20
ATOM     20  C   LIG    1       -2.506   0.963  -0.051  0.00  0.00    +0.320 C 
BRANCH  20  22
ATOM     21  C   LIG    1       -4.678   1.026   1.052  0.00  0.00    +0.540 C 
ATOM     22  N   LIG    1       -3.450   1.561   0.896  0.00  0.00    -0.720 N 
ATOM     23  H   LIG    1       -3.192   2.342   1.410  0.00  0.00    +0.400 HD
ATOM     24  O   LIG    1       -5.001   0.047   0.408  0.00  0.00    -0.540 OA
BRANCH  21  26
ATOM     25  C   LIG    1       -6.837   1.099   2.157  0.00  0.00    +0.150 C 
ATOM     26  C   LIG    1       -5.626   1.627   2.003  0.00  0.00    -0.090 C 
ENDBRANCH  21  26
ENDBRANCH  20  22
ENDBRANCH   1  20
TORSDOF 5
