REMARK  Name = ZINCrH000004pNz8.1
REMARK                            x       y       z     vdW  Elec       q    Type
REMARK                         _______ _______ _______ _____ _____    ______ ____
ROOT
ATOM      1  N   LIG    1       -0.018   1.461   0.010  0.00  0.00    -0.730 N 
ATOM      2  H   LIG    1       -0.864   1.934   0.017  0.00  0.00    +0.400 HD
ATOM      3  C   LIG    1        1.140   2.151   0.003  0.00  0.00    +0.590 C 
ATOM      4  O   LIG    1        2.202   1.556  -0.011  0.00  0.00    -0.530 OA
ENDROOT
BRANCH   3   5
ATOM      5  C   LIG    1        1.120   3.615   0.011  0.00  0.00    -0.270 A 
ATOM      6  C   LIG    1        2.225   4.416   0.010  0.00  0.00    +0.110 A 
ATOM      7  C   LIG    1        1.975   5.763   0.014  0.00  0.00    -0.110 A 
ATOM      8  C   LIG    1        0.626   6.072   0.016  0.00  0.00    -0.130 A 
ATOM      9  C   LIG    1        0.162   7.476   0.020  0.00  0.00    -0.020 A 
ATOM     10  C   LIG    1       -1.154   7.817   0.298  0.00  0.00    +0.020 A 
ATOM     11  C   LIG    1       -1.525   9.148   0.311  0.00  0.00    +0.010 A 
ATOM     12  C   LIG    1       -0.587  10.128   0.039  0.00  0.00    +0.020 A 
ATOM     13  C   LIG    1        0.719   9.789  -0.268  0.00  0.00    +0.010 A 
ATOM     14  C   LIG    1        1.101   8.463  -0.302  0.00  0.00    -0.060 A 
ATOM     15  C   LIG    1        2.493   8.085  -0.725  0.00  0.00    +0.080 C 
ATOM     16  C   LIG    1        3.019   6.868   0.028  0.00  0.00    +0.120 C 
ATOM     17  S   LIG    1       -0.331   4.608   0.031  0.00  0.00    +0.190 S 
ENDBRANCH   3   5
BRANCH   1  18
ATOM     18  C   LIG    1        0.002  -0.004   0.002  0.00  0.00    +0.260 C 
BRANCH  18  19
ATOM     19  C   LIG    1       -1.433  -0.534   0.013  0.00  0.00    +0.020 C 
BRANCH  19  20
ATOM     20  C   LIG    1       -1.413  -2.063   0.004  0.00  0.00    +0.180 C 
BRANCH  20  24
ATOM     21  C   LIG    1       -4.998  -3.830  -1.442  0.00  0.00    +0.010 C 
ATOM     22  C   LIG    1       -4.274  -4.498  -0.271  0.00  0.00    +0.200 C 
ATOM     23  C   LIG    1       -2.820  -4.021  -0.231  0.00  0.00    +0.150 C 
ATOM     24  N   LIG    1       -2.791  -2.572   0.015  0.00  0.00    -0.530 NA
ATOM     25  C   LIG    1       -3.463  -2.245   1.280  0.00  0.00    +0.150 C 
ATOM     26  C   LIG    1       -4.911  -2.739   1.225  0.00  0.00    +0.160 C 
ATOM     27  C   LIG    1       -5.593  -2.474   2.569  0.00  0.00    +0.050 C 
ATOM     28  O   LIG    1       -4.920  -4.144   0.955  0.00  0.00    -0.380 OA
ENDBRANCH  20  24
ENDBRANCH  19  20
ENDBRANCH  18  19
ENDBRANCH   1  18
TORSDOF 5
