REMARK  Name = ZINCrg000000nwj5.0
REMARK                            x       y       z     vdW  Elec       q    Type
REMARK                         _______ _______ _______ _____ _____    ______ ____
ROOT
ATOM      1  C   LIG    1        3.099   5.889  -3.058  0.00  0.00    +0.270 C 
ENDROOT
BRANCH   1   2
ATOM      2  C   LIG    1        4.081   7.029  -3.141  0.00  0.00    +0.520 C 
ATOM      3  N   LIG    1        4.470   7.497  -4.343  0.00  0.00    -0.720 N 
ATOM      4  H   LIG    1        4.117   7.101  -5.155  0.00  0.00    +0.400 HD
ATOM      5  O   LIG    1        4.523   7.524  -2.126  0.00  0.00    -0.510 OA
BRANCH   3   6
ATOM      6  C   LIG    1        5.425   8.605  -4.424  0.00  0.00    +0.290 C 
ATOM      7  C   LIG    1        5.236   9.338  -5.751  0.00  0.00    +0.020 C 
ATOM      8  C   LIG    1        6.378  10.348  -5.912  0.00  0.00    +0.030 C 
ATOM      9  C   LIG    1        7.673   9.576  -6.156  0.00  0.00    +0.080 C 
ATOM     10  C   LIG    1        7.859   8.510  -5.108  0.00  0.00    -0.070 A 
ATOM     11  C   LIG    1        9.129   7.971  -4.952  0.00  0.00    -0.010 A 
ATOM     12  C   LIG    1        9.364   6.989  -4.012  0.00  0.00    +0.010 A 
ATOM     13  C   LIG    1        8.326   6.536  -3.219  0.00  0.00    -0.010 A 
ATOM     14  C   LIG    1        7.064   7.071  -3.371  0.00  0.00    +0.020 A 
ATOM     15  C   LIG    1        6.826   8.062  -4.315  0.00  0.00    -0.100 A 
ENDBRANCH   3   6
ENDBRANCH   1   2
BRANCH   1  16
ATOM     16  O   LIG    1        2.843   5.572  -1.664  0.00  0.00    -0.330 OA
BRANCH  16  17
ATOM     17  C   LIG    1        1.982   4.572  -1.415  0.00  0.00    +0.450 C 
ATOM     18  O   LIG    1        1.461   3.982  -2.331  0.00  0.00    -0.490 OA
BRANCH  17  19
ATOM     19  C   LIG    1        1.668   4.185   0.007  0.00  0.00    +0.420 C 
BRANCH  19  25
ATOM     20  C   LIG    1       -2.047   1.598  -1.239  0.00  0.00    +0.090 C 
ATOM     21  C   LIG    1       -1.204   1.830   0.017  0.00  0.00    +0.120 C 
ATOM     22  N   LIG    1       -0.011   0.966   0.007  0.00  0.00    -0.720 N 
ATOM     23  H   LIG    1        0.002  -0.004   0.002  0.00  0.00    +0.440 HD
ATOM     24  C   LIG    1        1.057   1.784   0.002  0.00  0.00    +0.710 C 
ATOM     25  N   LIG    1        0.710   3.076   0.011  0.00  0.00    -0.570 N 
ATOM     26  O   LIG    1        2.207   1.393  -0.011  0.00  0.00    -0.540 OA
ATOM     27  C   LIG    1       -2.036   1.585   1.278  0.00  0.00    +0.090 C 
ATOM     28  C   LIG    1       -0.628   3.232   0.024  0.00  0.00    +0.530 C 
ATOM     29  O   LIG    1       -1.244   4.276   0.034  0.00  0.00    -0.450 OA
ENDBRANCH  19  25
ENDBRANCH  17  19
ENDBRANCH  16  17
ENDBRANCH   1  16
TORSDOF 6
