REMARK  Name = ZINCpk00000ea79U.1
REMARK                            x       y       z     vdW  Elec       q    Type
REMARK                         _______ _______ _______ _____ _____    ______ ____
ROOT
ATOM      1  N   LIG    1       -0.007   5.181   0.028  0.00  0.00    -0.640 N 
ATOM      2  H   LIG    1       -0.854   5.654   0.038  0.00  0.00    +0.430 HD
ATOM      3  C   LIG    1        1.150   5.872   0.020  0.00  0.00    +0.580 C 
ATOM      4  O   LIG    1        2.211   5.280   0.007  0.00  0.00    -0.420 OA
ENDROOT
BRANCH   1   9
ATOM      5  C   LIG    1       -1.190   1.759   0.017  0.00  0.00    +0.120 A 
ATOM      6  C   LIG    1       -0.013   1.076   0.008  0.00  0.00    +0.000 A 
ATOM      7  C   LIG    1        1.237   1.847   0.000  0.00  0.00    +0.520 A 
ATOM      8  N   LIG    1        1.173   3.186   0.007  0.00  0.00    -0.560 NA
ATOM      9  C   LIG    1        0.013   3.807   0.021  0.00  0.00    +0.650 A 
ATOM     10  O   LIG    1        2.317   1.278  -0.013  0.00  0.00    -0.480 OA
ATOM     11  N   LIG    1       -1.162   3.133   0.029  0.00  0.00    -0.610 N 
ATOM     12  H   LIG    1       -1.997   3.627   0.039  0.00  0.00    +0.430 HD
BRANCH   5  13
ATOM     13  C   LIG    1       -2.480   1.032   0.019  0.00  0.00    +0.520 C 
ATOM     14  O   LIG    1       -3.525   1.651   0.027  0.00  0.00    -0.490 OA
BRANCH  13  16
ATOM     15  C   LIG    1       -3.796  -0.959   0.014  0.00  0.00    +0.290 C 
ATOM     16  O   LIG    1       -2.495  -0.314   0.012  0.00  0.00    -0.340 OA
ENDBRANCH  13  16
ENDBRANCH   5  13
ENDBRANCH   1   9
BRANCH   3  17
ATOM     17  C   LIG    1        1.128   7.353   0.028  0.00  0.00    +0.110 A 
ATOM     18  C   LIG    1        2.326   8.060   0.025  0.00  0.00    +0.030 A 
ATOM     19  C   LIG    1        2.288   9.453   0.027  0.00  0.00    +0.190 A 
ATOM     20  C   LIG    1        1.045  10.080   0.042  0.00  0.00    -0.020 A 
ATOM     21  C   LIG    1       -0.103   9.308   0.049  0.00  0.00    +0.320 A 
ATOM     22  N   LIG    1       -0.035   7.994   0.042  0.00  0.00    -0.480 NA
BRANCH  19  23
ATOM     23  N   LIG    1        3.470  10.202   0.019  0.00  0.00    -0.410 N 
ATOM     24  C   LIG    1        4.737   9.692   0.010  0.00  0.00    +0.160 A 
ATOM     25  C   LIG    1        5.606  10.722   0.001  0.00  0.00    -0.030 A 
ATOM     26  C   LIG    1        4.851  11.913   0.013  0.00  0.00    -0.030 A 
ATOM     27  C   LIG    1        3.548  11.566   0.024  0.00  0.00    +0.150 A 
ENDBRANCH  19  23
ENDBRANCH   3  17
TORSDOF 5
