REMARK  Name = ZINCqH00000098pm.1
REMARK                            x       y       z     vdW  Elec       q    Type
REMARK                         _______ _______ _______ _____ _____    ______ ____
ROOT
ATOM      1  C   LIG    1        6.223  -0.375   1.004  0.00  0.00    +0.210 C 
ENDROOT
BRANCH   1   2
ATOM      2  N   LIG    1        4.940   0.340   1.019  0.00  0.00    -0.540 NA
ATOM      3  C   LIG    1        4.841   1.269  -0.116  0.00  0.00    +0.200 C 
ATOM      4  C   LIG    1        3.528   2.049  -0.020  0.00  0.00    +0.200 C 
ATOM      5  N   LIG    1        2.401   1.107  -0.014  0.00  0.00    -0.490 N 
ATOM      6  C   LIG    1        2.499   0.179   1.121  0.00  0.00    +0.210 C 
ATOM      7  C   LIG    1        3.812  -0.602   1.025  0.00  0.00    +0.190 C 
BRANCH   5   8
ATOM      8  C   LIG    1        1.180   1.787   0.000  0.00  0.00    +0.130 A 
ATOM      9  C   LIG    1       -0.013   1.076   0.008  0.00  0.00    -0.010 A 
ATOM     10  C   LIG    1       -1.218   1.751   0.017  0.00  0.00    +0.050 A 
ATOM     11  C   LIG    1       -1.238   3.133   0.029  0.00  0.00    -0.010 A 
ATOM     12  C   LIG    1       -0.051   3.845   0.022  0.00  0.00    -0.010 A 
ATOM     13 CL   LIG    1       -0.082   5.581   0.031  0.00  0.00    -0.070 Cl
ATOM     14  C   LIG    1        1.158   3.176   0.008  0.00  0.00    -0.020 A 
ENDBRANCH   5   8
ENDBRANCH   1   2
BRANCH   1  15
ATOM     15  C   LIG    1        6.192  -1.500   2.040  0.00  0.00    +0.050 C 
BRANCH  15  18
ATOM     16  N   LIG    1        7.712  -3.271   2.860  0.00  0.00    -0.730 N 
ATOM     17  H   LIG    1        7.011  -3.546   3.472  0.00  0.00    +0.400 HD
ATOM     18  C   LIG    1        7.509  -2.234   2.025  0.00  0.00    +0.520 C 
ATOM     19  O   LIG    1        8.385  -1.890   1.260  0.00  0.00    -0.540 OA
BRANCH  16  21
ATOM     20  C   LIG    1        9.992  -3.255   3.744  0.00  0.00    +0.040 C 
ATOM     21  C   LIG    1        8.991  -3.984   2.845  0.00  0.00    +0.280 C 
BRANCH  21  22
ATOM     22  C   LIG    1        8.790  -5.388   3.354  0.00  0.00    -0.090 A 
ATOM     23  C   LIG    1        7.951  -5.621   4.428  0.00  0.00    +0.000 A 
ATOM     24  C   LIG    1        7.763  -6.909   4.893  0.00  0.00    +0.000 A 
ATOM     25  C   LIG    1        8.421  -7.964   4.289  0.00  0.00    +0.000 A 
ATOM     26  C   LIG    1        9.264  -7.731   3.218  0.00  0.00    +0.020 A 
ATOM     27  C   LIG    1        9.449  -6.444   2.751  0.00  0.00    +0.010 A 
ENDBRANCH  21  22
ENDBRANCH  16  21
ENDBRANCH  15  18
ENDBRANCH   1  15
TORSDOF 6
