REMARK  Name = ZINCrH000004uCBB.0
REMARK                            x       y       z     vdW  Elec       q    Type
REMARK                         _______ _______ _______ _____ _____    ______ ____
ROOT
ATOM      1  O   LIG    1       -3.551  -2.068  -0.691  0.00  0.00    -0.530 OA
ATOM      2  C   LIG    1       -2.874  -1.674  -1.617  0.00  0.00    +0.530 C 
ATOM      3  N   LIG    1       -1.730  -1.003  -1.377  0.00  0.00    -0.720 N 
ATOM      4  H   LIG    1       -1.188  -0.688  -2.118  0.00  0.00    +0.400 HD
ENDROOT
BRANCH   2   5
ATOM      5  C   LIG    1       -3.311  -1.935  -3.035  0.00  0.00    +0.010 C 
ATOM      6  C   LIG    1       -2.308  -2.860  -3.763  0.00  0.00    +0.100 C 
ATOM      7  C   LIG    1       -3.177  -3.738  -4.635  0.00  0.00    +0.520 C 
ATOM      8  N   LIG    1       -4.456  -3.672  -4.227  0.00  0.00    -0.560 N 
ATOM      9  O   LIG    1       -2.778  -4.405  -5.566  0.00  0.00    -0.500 OA
ATOM     10  C   LIG    1       -4.602  -2.782  -3.069  0.00  0.00    +0.310 C 
BRANCH   8  11
ATOM     11  C   LIG    1       -5.514  -4.362  -4.831  0.00  0.00    +0.180 A 
ATOM     12  C   LIG    1       -5.299  -5.081  -5.999  0.00  0.00    +0.010 A 
ATOM     13  C   LIG    1       -6.343  -5.766  -6.589  0.00  0.00    +0.080 A 
ATOM     14  C   LIG    1       -7.605  -5.727  -6.024  0.00  0.00    -0.120 A 
ATOM     15  C   LIG    1       -7.823  -5.007  -4.862  0.00  0.00    +0.080 A 
ATOM     16 BR   LIG    1       -9.034  -6.660  -6.839  0.00  0.00    -0.050 Br
ATOM     17  C   LIG    1       -6.782  -4.325  -4.265  0.00  0.00    -0.010 A 
ENDBRANCH   8  11
ENDBRANCH   2   5
BRANCH   3  18
ATOM     18  C   LIG    1       -1.305  -0.749   0.002  0.00  0.00    +0.320 C 
BRANCH  18  19
ATOM     19  C   LIG    1       -0.005   0.013  -0.006  0.00  0.00    -0.140 A 
ATOM     20  C   LIG    1       -0.015   1.396  -0.013  0.00  0.00    +0.070 A 
ATOM     21  C   LIG    1        1.175   2.097  -0.020  0.00  0.00    -0.050 A 
ATOM     22  C   LIG    1        2.382   1.413  -0.020  0.00  0.00    +0.120 A 
ATOM     23  C   LIG    1        2.390   0.025  -0.012  0.00  0.00    +0.000 A 
ATOM     24  C   LIG    1        1.197  -0.671  -0.005  0.00  0.00    +0.080 A 
BRANCH  22  25
ATOM     25  O   LIG    1        3.554   2.100  -0.027  0.00  0.00    -0.320 OA
BRANCH  25  26
ATOM     26  C   LIG    1        3.470   3.526  -0.034  0.00  0.00    +0.600 C 
ATOM     27  F   LIG    1        2.787   3.959   1.108  0.00  0.00    -0.200 F 
ATOM     28  F   LIG    1        2.780   3.947  -1.177  0.00  0.00    -0.200 F 
ENDBRANCH  25  26
ENDBRANCH  22  25
ENDBRANCH  18  19
ENDBRANCH   3  18
TORSDOF 6
