REMARK  Name = ZINCrg00000zl1ZV.0
REMARK                            x       y       z     vdW  Elec       q    Type
REMARK                         _______ _______ _______ _____ _____    ______ ____
ROOT
ATOM      1  C   LIG    1        6.419   2.744  -2.590  0.00  0.00    +0.030 C 
ENDROOT
BRANCH   1   2
ATOM      2  C   LIG    1        7.347   2.912  -3.795  0.00  0.00    +0.160 C 
ATOM      3  C   LIG    1        8.784   2.429  -3.537  0.00  0.00    +0.030 C 
ATOM      4  C   LIG    1        9.255   3.659  -4.332  0.00  0.00    +0.010 C 
ATOM      5  C   LIG    1        7.931   4.328  -3.930  0.00  0.00    +0.040 C 
BRANCH   2   6
ATOM      6  N   LIG    1        6.766   2.395  -5.037  0.00  0.00    -0.710 N 
ATOM      7  H   LIG    1        6.556   3.002  -5.764  0.00  0.00    +0.400 HD
ATOM      8  C   LIG    1        6.523   1.076  -5.169  0.00  0.00    +0.520 C 
ATOM      9  O   LIG    1        6.869   0.305  -4.299  0.00  0.00    -0.500 OA
BRANCH   8  10
ATOM     10  C   LIG    1        5.821   0.559  -6.399  0.00  0.00    +0.130 C 
ATOM     11  C   LIG    1        6.681   0.785  -7.665  0.00  0.00    +0.070 C 
ATOM     12  C   LIG    1        6.422  -0.477  -8.466  0.00  0.00    +0.090 C 
ATOM     13  N   LIG    1        5.892  -1.344  -7.694  0.00  0.00    -0.290 NA
ATOM     14  C   LIG    1        6.738  -0.673  -9.927  0.00  0.00    +0.180 C 
ATOM     15  O   LIG    1        5.721  -0.880  -6.370  0.00  0.00    -0.170 OA
ENDBRANCH   8  10
ENDBRANCH   2   6
ENDBRANCH   1   2
BRANCH   1  16
ATOM     16  C   LIG    1        5.183   3.627  -2.772  0.00  0.00    +0.250 C 
BRANCH  16  18
ATOM     17  C   LIG    1        3.074   4.054  -1.627  0.00  0.00    +0.510 C 
ATOM     18  N   LIG    1        4.242   3.383  -1.675  0.00  0.00    -0.730 N 
ATOM     19  H   LIG    1        4.460   2.738  -0.984  0.00  0.00    +0.400 HD
ATOM     20  O   LIG    1        2.802   4.860  -2.491  0.00  0.00    -0.520 OA
BRANCH  17  21
ATOM     21  C   LIG    1        2.107   3.802  -0.499  0.00  0.00    +0.180 C 
BRANCH  21  24
ATOM     22  C   LIG    1       -1.158   5.389  -0.907  0.00  0.00    -0.040 A 
ATOM     23  C   LIG    1       -0.457   4.243  -0.733  0.00  0.00    -0.030 A 
ATOM     24  C   LIG    1        0.889   4.672  -0.678  0.00  0.00    +0.020 A 
ATOM     25  N   LIG    1        0.869   5.966  -0.812  0.00  0.00    -0.330 NA
ATOM     26  O   LIG    1       -0.259   6.383  -0.938  0.00  0.00    +0.120 OA
BRANCH  22  27
ATOM     27  C   LIG    1       -2.654   5.521  -1.038  0.00  0.00    +0.310 C 
BRANCH  27  29
ATOM     28  C   LIG    1       -4.654   5.837   0.244  0.00  0.00    +0.220 C 
ATOM     29  O   LIG    1       -3.231   5.701   0.256  0.00  0.00    -0.390 OA
ENDBRANCH  27  29
ENDBRANCH  22  27
ENDBRANCH  21  24
ENDBRANCH  17  21
ENDBRANCH  16  18
ENDBRANCH   1  16
TORSDOF 9
