REMARK  Name = ZINCrH00000amqbA.0
REMARK                            x       y       z     vdW  Elec       q    Type
REMARK                         _______ _______ _______ _____ _____    ______ ____
ROOT
ATOM      1  C   LIG    1        1.724  -4.660   1.395  0.00  0.00    +0.020 C 
ATOM      2  C   LIG    1        1.419  -4.214  -0.036  0.00  0.00    +0.240 C 
ENDROOT
BRANCH   2   3
ATOM      3  N   LIG    1        0.927  -2.834  -0.023  0.00  0.00    -0.720 N 
ATOM      4  H   LIG    1       -0.027  -2.660  -0.012  0.00  0.00    +0.390 HD
ATOM      5  C   LIG    1        1.800  -1.807  -0.026  0.00  0.00    +0.590 C 
ATOM      6  O   LIG    1        2.996  -2.026  -0.040  0.00  0.00    -0.520 OA
BRANCH   5   7
ATOM      7  C   LIG    1        1.304  -0.419  -0.014  0.00  0.00    -0.210 A 
ATOM      8  C   LIG    1        0.002  -0.004   0.002  0.00  0.00    +0.220 A 
ATOM      9  O   LIG    1       -0.016   1.334   0.009  0.00  0.00    -0.160 OA
ATOM     10  C   LIG    1        1.228   1.829   0.000  0.00  0.00    +0.010 A 
ATOM     11  C   LIG    1        1.642   3.282   0.008  0.00  0.00    +0.140 C 
ATOM     12  C   LIG    1        3.117   3.364   0.417  0.00  0.00    +0.040 C 
ATOM     13  C   LIG    1        3.940   2.392  -0.433  0.00  0.00    +0.000 C 
ATOM     14  C   LIG    1        3.599   0.951  -0.032  0.00  0.00    +0.250 C 
ATOM     15  C   LIG    1        2.101   0.806  -0.015  0.00  0.00    -0.130 A 
BRANCH  14  16
ATOM     16  O   LIG    1        4.123   0.675   1.268  0.00  0.00    -0.550 OA
ATOM     17  H   LIG    1        5.085   0.751   1.329  0.00  0.00    +0.380 HD
ENDBRANCH  14  16
ENDBRANCH   5   7
ENDBRANCH   2   3
BRANCH   2  18
ATOM     18  C   LIG    1        0.353  -5.130  -0.639  0.00  0.00    +0.120 C 
BRANCH  18  19
ATOM     19  C   LIG    1        0.141  -4.769  -2.087  0.00  0.00    -0.160 A 
ATOM     20  C   LIG    1       -0.799  -3.945  -2.575  0.00  0.00    +0.230 A 
ATOM     21  N   LIG    1       -0.684  -3.860  -3.936  0.00  0.00    -0.590 N 
ATOM     22  H   LIG    1       -1.254  -3.325  -4.511  0.00  0.00    +0.420 HD
ATOM     23  C   LIG    1        0.361  -4.647  -4.368  0.00  0.00    +0.110 A 
ATOM     24  C   LIG    1        0.899  -4.917  -5.622  0.00  0.00    +0.000 A 
ATOM     25  C   LIG    1        1.986  -5.758  -5.738  0.00  0.00    +0.090 A 
ATOM     26  C   LIG    1        2.544  -6.354  -4.611  0.00  0.00    +0.040 A 
ATOM     27  C   LIG    1        2.022  -6.103  -3.361  0.00  0.00    +0.080 A 
ATOM     28  F   LIG    1        3.603  -7.183  -4.743  0.00  0.00    -0.130 F 
ATOM     29  F   LIG    1        2.508  -6.013  -6.958  0.00  0.00    -0.130 F 
ATOM     30  C   LIG    1        0.927  -5.246  -3.228  0.00  0.00    -0.090 A 
ENDBRANCH  18  19
ENDBRANCH   2  18
TORSDOF 5
