REMARK  Name = ZINCtV00001bB3Dt.0
REMARK                            x       y       z     vdW  Elec       q    Type
REMARK                         _______ _______ _______ _____ _____    ______ ____
ROOT
ATOM      1  O   LIG    1        1.470   2.731   1.982  0.00  0.00    -0.480 OA
ATOM      2  C   LIG    1        1.428   1.736   1.284  0.00  0.00    +0.570 C 
ATOM      3  C   LIG    1        0.159   1.013   1.133  0.00  0.00    -0.160 A 
ATOM      4  C   LIG    1       -1.002   1.441   1.777  0.00  0.00    +0.110 A 
ATOM      5  C   LIG    1       -2.176   0.738   1.605  0.00  0.00    -0.010 A 
ATOM      6  C   LIG    1       -2.212  -0.396   0.808  0.00  0.00    +0.060 A 
ATOM      7  C   LIG    1       -1.074  -0.839   0.166  0.00  0.00    -0.010 A 
ATOM      8  C   LIG    1        0.117  -0.141   0.322  0.00  0.00    +0.040 A 
ATOM      9  C   LIG    1        1.365  -0.572  -0.343  0.00  0.00    -0.290 C 
ATOM     10  C   LIG    1        2.575   0.227  -0.120  0.00  0.00    +0.580 C 
ATOM     11  O   LIG    1        3.620  -0.101  -0.653  0.00  0.00    -0.520 OA
ATOM     12  C   LIG    1        1.390  -1.690  -1.147  0.00  0.00    +0.430 C 
ATOM     13  N   LIG    1        2.543   1.315   0.665  0.00  0.00    -0.510 N 
ENDROOT
BRANCH  13  14
ATOM     14  C   LIG    1        3.725   2.045   0.847  0.00  0.00    +0.130 A 
ATOM     15  C   LIG    1        3.993   3.147   0.046  0.00  0.00    +0.040 A 
ATOM     16  C   LIG    1        5.159   3.865   0.228  0.00  0.00    +0.040 A 
ATOM     17  C   LIG    1        6.060   3.488   1.206  0.00  0.00    +0.040 A 
ATOM     18  C   LIG    1        5.796   2.390   2.007  0.00  0.00    -0.030 A 
ATOM     19 CL   LIG    1        6.930   1.919   3.235  0.00  0.00    -0.060 Cl
ATOM     20  C   LIG    1        4.629   1.671   1.833  0.00  0.00    +0.040 A 
ENDBRANCH  13  14
BRANCH  12  21
ATOM     21  N   LIG    1        2.520  -2.009  -1.833  0.00  0.00    -0.610 N 
ATOM     22  H   LIG    1        3.279  -1.404  -1.826  0.00  0.00    +0.430 HD
BRANCH  21  23
ATOM     23  C   LIG    1        2.590  -3.208  -2.547  0.00  0.00    +0.170 A 
ATOM     24  C   LIG    1        3.744  -3.535  -3.247  0.00  0.00    +0.020 A 
ATOM     25  C   LIG    1        3.810  -4.721  -3.952  0.00  0.00    +0.090 A 
ATOM     26  C   LIG    1        2.728  -5.584  -3.962  0.00  0.00    -0.060 A 
ATOM     27  C   LIG    1        1.576  -5.261  -3.264  0.00  0.00    +0.010 A 
ATOM     28 CL   LIG    1        0.221  -6.346  -3.278  0.00  0.00    -0.030 Cl
ATOM     29 CL   LIG    1        2.815  -7.073  -4.849  0.00  0.00    -0.040 Cl
ATOM     30  C   LIG    1        1.506  -4.078  -2.553  0.00  0.00    +0.000 A 
ENDBRANCH  21  23
ENDBRANCH  12  21
TORSDOF 3
