REMARK  Name = ZINCpe00000yQU7Q.0
REMARK                            x       y       z     vdW  Elec       q    Type
REMARK                         _______ _______ _______ _____ _____    ______ ____
ROOT
ATOM      1  C   LIG    1        5.887  -1.645   2.971  0.00  0.00    +0.290 C 
ENDROOT
BRANCH   1   3
ATOM      2  C   LIG    1        4.222  -0.868   1.371  0.00  0.00    +0.520 C 
ATOM      3  N   LIG    1        5.389  -1.502   1.601  0.00  0.00    -0.620 N 
ATOM      4  C   LIG    1        6.159  -2.048   0.480  0.00  0.00    +0.290 C 
ATOM      5  O   LIG    1        3.584  -0.416   2.298  0.00  0.00    -0.520 OA
BRANCH   2   6
ATOM      6  C   LIG    1        3.709  -0.722  -0.039  0.00  0.00    +0.120 C 
BRANCH   6  12
ATOM      7  C   LIG    1        2.381   1.409  -0.014  0.00  0.00    -0.070 A 
ATOM      8  C   LIG    1        1.169   2.087   0.002  0.00  0.00    -0.010 A 
ATOM      9  C   LIG    1       -0.017   1.379   0.010  0.00  0.00    +0.030 A 
ATOM     10  C   LIG    1        0.002  -0.004   0.002  0.00  0.00    +0.010 A 
ATOM     11  C   LIG    1        1.207  -0.683  -0.013  0.00  0.00    +0.040 A 
ATOM     12  C   LIG    1        2.396   0.019  -0.021  0.00  0.00    -0.050 A 
BRANCH   7  14
ATOM     13  C   LIG    1        3.345   4.036  -0.009  0.00  0.00    +0.120 C 
ATOM     14  S   LIG    1        3.897   2.308  -0.023  0.00  0.00    -0.120 S 
ENDBRANCH   7  14
ENDBRANCH   6  12
ENDBRANCH   2   6
ENDBRANCH   1   3
BRANCH   1  15
ATOM     15  C   LIG    1        5.356  -2.947   3.573  0.00  0.00    +0.260 C 
BRANCH  15  16
ATOM     16  N   LIG    1        5.854  -3.090   4.944  0.00  0.00    -0.720 N 
ATOM     17  H   LIG    1        6.430  -2.408   5.324  0.00  0.00    +0.400 HD
ATOM     18  C   LIG    1        5.514  -4.169   5.676  0.00  0.00    +0.590 C 
ATOM     19  O   LIG    1        4.792  -5.025   5.198  0.00  0.00    -0.530 OA
BRANCH  18  20
ATOM     20  C   LIG    1        6.013  -4.312   7.047  0.00  0.00    -0.040 A 
ATOM     21  C   LIG    1        6.816  -3.445   7.702  0.00  0.00    +0.250 A 
ATOM     22  N   LIG    1        7.046  -3.949   8.956  0.00  0.00    -0.620 N 
ATOM     23  H   LIG    1        7.591  -3.533   9.641  0.00  0.00    +0.440 HD
ATOM     24  C   LIG    1        6.390  -5.118   9.077  0.00  0.00    +0.650 A 
ATOM     25  O   LIG    1        6.381  -5.829  10.066  0.00  0.00    -0.560 OA
ATOM     26  N   LIG    1        5.740  -5.367   7.923  0.00  0.00    -0.510 N 
ATOM     27  C   LIG    1        4.903  -6.535   7.636  0.00  0.00    +0.350 C 
ENDBRANCH  18  20
ENDBRANCH  15  16
ENDBRANCH   1  15
TORSDOF 7
