REMARK  Name = ZINCrH000004jYBp.0
REMARK                            x       y       z     vdW  Elec       q    Type
REMARK                         _______ _______ _______ _____ _____    ______ ____
ROOT
ATOM      1  C   LIG    1       -2.050   0.968   1.181  0.00  0.00    +0.000 C 
ATOM      2  C   LIG    1       -0.530   1.165   1.145  0.00  0.00    +0.030 C 
ATOM      3  C   LIG    1        0.007   0.694  -0.210  0.00  0.00    +0.300 C 
ATOM      4  N   LIG    1       -0.720   1.394  -1.279  0.00  0.00    -0.630 N 
ATOM      5  C   LIG    1       -2.188   1.343  -1.285  0.00  0.00    +0.270 C 
ATOM      6  C   LIG    1       -0.051   2.068  -2.235  0.00  0.00    +0.710 C 
ATOM      7  N   LIG    1       -0.723   2.616  -3.268  0.00  0.00    -0.690 N 
ATOM      8  H   LIG    1       -1.692   2.581  -3.289  0.00  0.00    +0.410 HD
ATOM      9  O   LIG    1        1.157   2.183  -2.167  0.00  0.00    -0.570 OA
ATOM     10  C   LIG    1       -2.703   1.808   0.081  0.00  0.00    +0.060 C 
ENDROOT
BRANCH   7  11
ATOM     11  C   LIG    1       -0.022   3.235  -4.309  0.00  0.00    +0.160 A 
ATOM     12  C   LIG    1        1.138   3.948  -4.039  0.00  0.00    +0.020 A 
ATOM     13  C   LIG    1        1.831   4.553  -5.070  0.00  0.00    +0.030 A 
ATOM     14  C   LIG    1        1.364   4.458  -6.368  0.00  0.00    -0.020 A 
ATOM     15  C   LIG    1        0.205   3.753  -6.639  0.00  0.00    +0.030 A 
ATOM     16  C   LIG    1       -0.489   3.141  -5.613  0.00  0.00    -0.030 A 
ENDBRANCH   7  11
BRANCH   1  19
ATOM     17  C   LIG    1       -1.155  -0.282   3.561  0.00  0.00    +0.290 C 
ATOM     18  N   LIG    1       -2.144   0.794   3.646  0.00  0.00    -0.610 N 
ATOM     19  C   LIG    1       -2.580   1.399   2.524  0.00  0.00    +0.520 C 
ATOM     20  O   LIG    1       -3.400   2.291   2.594  0.00  0.00    -0.530 OA
BRANCH  18  21
ATOM     21  C   LIG    1       -2.659   1.214   4.952  0.00  0.00    +0.340 C 
BRANCH  21  22
ATOM     22  C   LIG    1       -3.884   0.404   5.293  0.00  0.00    -0.080 A 
ATOM     23  C   LIG    1       -5.136   0.854   4.918  0.00  0.00    +0.030 A 
ATOM     24  C   LIG    1       -6.260   0.109   5.226  0.00  0.00    +0.040 A 
ATOM     25  C   LIG    1       -6.133  -1.081   5.918  0.00  0.00    -0.010 A 
ATOM     26  C   LIG    1       -4.879  -1.530   6.298  0.00  0.00    +0.090 A 
ATOM     27  F   LIG    1       -4.754  -2.693   6.973  0.00  0.00    -0.140 F 
ATOM     28  C   LIG    1       -3.754  -0.786   5.984  0.00  0.00    -0.010 A 
ENDBRANCH  21  22
ENDBRANCH  18  21
ENDBRANCH   1  19
TORSDOF 4
