REMARK  Name = ZINCpe00000gLUaB.0
REMARK                            x       y       z     vdW  Elec       q    Type
REMARK                         _______ _______ _______ _____ _____    ______ ____
ROOT
ATOM      1  C   LIG    1       -1.213   6.933   1.750  0.00  0.00    -0.230 C 
ATOM      2  C   LIG    1       -1.000   6.179   0.650  0.00  0.00    +0.200 C 
ATOM      3  N   LIG    1       -1.993   5.967  -0.263  0.00  0.00    -0.640 N 
ATOM      4  H   LIG    1       -1.795   5.415  -1.035  0.00  0.00    +0.430 HD
ATOM      5  C   LIG    1       -3.226   6.479  -0.151  0.00  0.00    +0.710 C 
ATOM      6  N   LIG    1       -3.588   7.256   0.889  0.00  0.00    -0.720 N 
ATOM      7  H   LIG    1       -4.486   7.616   0.951  0.00  0.00    +0.440 HD
ATOM      8  O   LIG    1       -4.045   6.234  -1.015  0.00  0.00    -0.560 OA
ATOM      9  C   LIG    1       -2.587   7.545   1.930  0.00  0.00    +0.340 C 
ENDROOT
BRANCH   1  10
ATOM     10  C   LIG    1       -0.186   7.149   2.699  0.00  0.00    +0.530 C 
ATOM     11  O   LIG    1       -0.206   6.557   3.762  0.00  0.00    -0.480 OA
BRANCH  10  12
ATOM     12  O   LIG    1        0.816   8.010   2.425  0.00  0.00    -0.350 OA
BRANCH  12  14
ATOM     13  C   LIG    1        2.863   9.185   2.942  0.00  0.00    +0.070 C 
ATOM     14  C   LIG    1        1.819   8.179   3.429  0.00  0.00    +0.200 C 
ENDBRANCH  12  14
ENDBRANCH  10  12
ENDBRANCH   1  10
BRANCH   2  15
ATOM     15  C   LIG    1        0.355   5.556   0.429  0.00  0.00    +0.310 C 
BRANCH  15  16
ATOM     16  O   LIG    1        0.241   4.111   0.507  0.00  0.00    -0.340 OA
BRANCH  16  17
ATOM     17  C   LIG    1        1.371   3.398   0.331  0.00  0.00    +0.500 C 
ATOM     18  O   LIG    1        2.421   3.968   0.118  0.00  0.00    -0.460 OA
BRANCH  17  19
ATOM     19  C   LIG    1        1.331   1.923   0.397  0.00  0.00    -0.080 A 
ATOM     20  C   LIG    1        0.107   1.258   0.499  0.00  0.00    +0.110 A 
ATOM     21  C   LIG    1        0.078  -0.120   0.560  0.00  0.00    +0.070 A 
ATOM     22  C   LIG    1        1.257  -0.843   0.521  0.00  0.00    +0.090 A 
ATOM     23  C   LIG    1        2.473  -0.190   0.421  0.00  0.00    +0.090 A 
ATOM     24  C   LIG    1        2.517   1.187   0.358  0.00  0.00    +0.020 A 
BRANCH  24  25
ATOM     25  N   LIG    1        3.819   1.883   0.251  0.00  0.00    +0.010 N 
ATOM     26  O   LIG    1        4.091   2.787   1.020  0.00  0.00    -0.100 OA
ATOM     27  O   LIG    1        4.618   1.552  -0.607  0.00  0.00    -0.150 OA
ENDBRANCH  24  25
ENDBRANCH  17  19
ENDBRANCH  16  17
ENDBRANCH  15  16
ENDBRANCH   2  15
TORSDOF 8
