REMARK  Name = ZINCpk00000KfKnv.0
REMARK                            x       y       z     vdW  Elec       q    Type
REMARK                         _______ _______ _______ _____ _____    ______ ____
ROOT
ATOM      1  C   LIG    1       -4.561   0.471   0.026  0.00  0.00    +0.250 A 
ATOM      2  N   LIG    1       -3.825  -0.613   0.017  0.00  0.00    -0.390 NA
ATOM      3  O   LIG    1       -2.648  -0.323   0.013  0.00  0.00    +0.080 OA
ATOM      4  C   LIG    1       -2.505   1.011   0.019  0.00  0.00    +0.240 A 
ATOM      5  N   LIG    1       -3.720   1.527   0.033  0.00  0.00    -0.440 NA
ENDROOT
BRANCH   4   6
ATOM      6  C   LIG    1       -1.232   1.760   0.017  0.00  0.00    -0.070 A 
ATOM      7  C   LIG    1       -1.236   3.156   0.030  0.00  0.00    +0.130 A 
ATOM      8  C   LIG    1       -0.049   3.852   0.026  0.00  0.00    +0.000 A 
ATOM      9  C   LIG    1        1.169   3.172   0.015  0.00  0.00    +0.140 A 
ATOM     10  O   LIG    1        2.438   3.661   0.028  0.00  0.00    -0.300 OA
ATOM     11  C   LIG    1        3.343   2.641  -0.430  0.00  0.00    +0.250 C 
ATOM     12  C   LIG    1        2.616   1.335  -0.033  0.00  0.00    -0.050 C 
ATOM     13  C   LIG    1        2.829   0.248  -1.089  0.00  0.00    +0.060 C 
ATOM     14  C   LIG    1        3.072   0.852   1.345  0.00  0.00    +0.060 C 
ATOM     15  C   LIG    1        1.166   1.780   0.001  0.00  0.00    -0.170 A 
ATOM     16  C   LIG    1       -0.013   1.076   0.008  0.00  0.00    +0.120 A 
ENDBRANCH   4   6
BRANCH   1  20
ATOM     17  C   LIG    1       -8.940  -1.764   0.032  0.00  0.00    +0.360 C 
ATOM     18  N   LIG    1       -8.146  -0.533   0.036  0.00  0.00    -0.530 N 
ATOM     19  C   LIG    1       -6.785  -0.617   0.025  0.00  0.00    +0.410 A 
ATOM     20  C   LIG    1       -6.041   0.527   0.033  0.00  0.00    -0.190 A 
ATOM     21  C   LIG    1       -6.746   1.816   0.043  0.00  0.00    +0.560 A 
ATOM     22  N   LIG    1       -8.096   1.815   0.049  0.00  0.00    -0.650 N 
ATOM     23  H   LIG    1       -8.579   2.656   0.056  0.00  0.00    +0.440 HD
ATOM     24  O   LIG    1       -6.126   2.863   0.047  0.00  0.00    -0.470 OA
ATOM     25  C   LIG    1       -8.774   0.654   0.046  0.00  0.00    +0.700 A 
ATOM     26  O   LIG    1       -9.989   0.679   0.051  0.00  0.00    -0.530 OA
ENDBRANCH   1  20
TORSDOF 2
