REMARK  Name = ZINCqH0000000tJB.0
REMARK                            x       y       z     vdW  Elec       q    Type
REMARK                         _______ _______ _______ _____ _____    ______ ____
ROOT
ATOM      1  S   LIG    1       -1.145  -0.839  -0.810  0.00  0.00    +2.690 S 
ATOM      2  O   LIG    1       -2.468  -0.455  -0.459  0.00  0.00    -0.940 OA
ATOM      3  O   LIG    1       -0.642  -2.154  -0.624  0.00  0.00    -0.950 OA
ENDROOT
BRANCH   1   7
ATOM      4  C   LIG    1       -0.670   0.101  -5.215  0.00  0.00    +0.210 A 
ATOM      5  C   LIG    1        0.135  -0.860  -4.618  0.00  0.00    +0.000 A 
ATOM      6  C   LIG    1       -0.012  -1.144  -3.274  0.00  0.00    +0.150 A 
ATOM      7  C   LIG    1       -0.960  -0.473  -2.524  0.00  0.00    -0.700 A 
ATOM      8  C   LIG    1       -1.767   0.481  -3.117  0.00  0.00    +0.150 A 
ATOM      9  C   LIG    1       -1.621   0.774  -4.459  0.00  0.00    -0.030 A 
BRANCH   4  12
ATOM     10  C   LIG    1        0.101  -0.249  -8.882  0.00  0.00    +0.120 C 
ATOM     11  C   LIG    1       -0.173  -0.583  -7.439  0.00  0.00    +0.510 C 
ATOM     12  N   LIG    1       -0.523   0.391  -6.576  0.00  0.00    -0.680 N 
ATOM     13  H   LIG    1       -0.674   1.293  -6.899  0.00  0.00    +0.420 HD
ATOM     14  O   LIG    1       -0.077  -1.729  -7.053  0.00  0.00    -0.520 OA
ENDBRANCH   4  12
ENDBRANCH   1   7
BRANCH   1  15
ATOM     15  N   LIG    1       -0.129   0.172   0.019  0.00  0.00    -1.110 NA
ATOM     16  H   LIG    1        0.618  -0.194   0.518  0.00  0.00    +0.420 HD
BRANCH  15  17
ATOM     17  C   LIG    1       -0.358   1.619  -0.000  0.00  0.00    +0.390 C 
BRANCH  17  18
ATOM     18  C   LIG    1        0.966   2.338   0.015  0.00  0.00    -0.090 A 
ATOM     19  C   LIG    1        1.995   1.873   0.812  0.00  0.00    +0.020 A 
ATOM     20  C   LIG    1        3.212   2.530   0.823  0.00  0.00    +0.020 A 
ATOM     21  C   LIG    1        3.396   3.657   0.044  0.00  0.00    +0.010 A 
ATOM     22  C   LIG    1        2.365   4.125  -0.749  0.00  0.00    +0.010 A 
ATOM     23  C   LIG    1        1.150   3.465  -0.763  0.00  0.00    +0.020 A 
ENDBRANCH  17  18
BRANCH  17  24
ATOM     24  C   LIG    1       -1.160   2.017   1.212  0.00  0.00    -0.190 A 
ATOM     25  C   LIG    1       -2.140   2.922   1.223  0.00  0.00    +0.020 A 
ATOM     26  C   LIG    1       -2.737   3.120   2.456  0.00  0.00    +0.010 A 
ATOM     27  C   LIG    1       -2.236   2.383   3.448  0.00  0.00    -0.040 A 
ATOM     28  S   LIG    1       -0.941   1.365   2.831  0.00  0.00    +0.110 S 
ENDBRANCH  17  24
ENDBRANCH  15  17
ENDBRANCH   1  15
TORSDOF 6
