REMARK  Name = ZINCb70000003WJJ.0
REMARK                            x       y       z     vdW  Elec       q    Type
REMARK                         _______ _______ _______ _____ _____    ______ ____
ROOT
ATOM      1  C   LIG    1       -0.006  -0.063   2.501  0.00  0.00    +0.050 C 
ATOM      2  C   LIG    1        0.742  -0.509   1.243  0.00  0.00    +0.100 C 
ATOM      3  C   LIG    1        0.002  -0.004   0.002  0.00  0.00    +0.250 C 
ATOM      4  N   LIG    1       -0.018   1.465   0.010  0.00  0.00    -0.510 N 
ATOM      5  C   LIG    1        1.361   1.973  -0.000  0.00  0.00    +0.250 C 
ATOM      6  C   LIG    1        2.099   1.464   1.241  0.00  0.00    +0.160 C 
ATOM      7  H   LIG    1       -0.490   1.791   0.840  0.00  0.00    +0.430 HD
ATOM      8  H   LIG    1       -0.506   1.800  -0.807  0.00  0.00    +0.440 HD
ATOM      9  C   LIG    1        0.817  -2.037   1.208  0.00  0.00    +0.110 C 
ATOM     10  O   LIG    1        2.065   0.035   1.256  0.00  0.00    -0.340 OA
ENDROOT
BRANCH   6  11
ATOM     11  C   LIG    1        3.552   1.941   1.202  0.00  0.00    +0.080 C 
BRANCH  11  12
ATOM     12  C   LIG    1        4.257   1.534   2.498  0.00  0.00    +0.190 C 
BRANCH  12  13
ATOM     13  O   LIG    1        5.614   1.980   2.462  0.00  0.00    -0.570 OA
ATOM     14  H   LIG    1        6.122   1.756   3.254  0.00  0.00    +0.390 HD
ENDBRANCH  12  13
ENDBRANCH  11  12
ENDBRANCH   6  11
TORSDOF 3
