REMARK  Name = ZINCpe00000VVGmu.0
REMARK                            x       y       z     vdW  Elec       q    Type
REMARK                         _______ _______ _______ _____ _____    ______ ____
ROOT
ATOM      1  C   LIG    1       -5.321   0.875  -5.162  0.00  0.00    +0.340 C 
ATOM      2  N   LIG    1       -4.168   1.675  -5.586  0.00  0.00    -0.510 N 
ATOM      3  C   LIG    1       -4.258   2.458  -6.677  0.00  0.00    +0.710 A 
ATOM      4  N   LIG    1       -3.223   3.205  -7.097  0.00  0.00    -0.650 N 
ATOM      5  H   LIG    1       -3.323   3.759  -7.887  0.00  0.00    +0.440 HD
ATOM      6  C   LIG    1       -2.048   3.199  -6.434  0.00  0.00    +0.600 A 
ATOM      7  C   LIG    1       -1.910   2.392  -5.284  0.00  0.00    -0.150 A 
ATOM      8  N   LIG    1       -0.887   2.147  -4.389  0.00  0.00    -0.390 N 
ATOM      9  C   LIG    1        0.456   2.731  -4.419  0.00  0.00    +0.360 C 
ATOM     10  C   LIG    1       -1.359   1.268  -3.483  0.00  0.00    +0.290 A 
ATOM     11  N   LIG    1       -2.598   0.959  -3.772  0.00  0.00    -0.490 NA
ATOM     12  O   LIG    1       -1.117   3.881  -6.823  0.00  0.00    -0.510 OA
ATOM     13  O   LIG    1       -5.303   2.489  -7.300  0.00  0.00    -0.530 OA
ATOM     14  C   LIG    1       -2.988   1.624  -4.862  0.00  0.00    +0.320 A 
ENDROOT
BRANCH  10  15
ATOM     15  C   LIG    1       -0.577   0.719  -2.318  0.00  0.00    +0.320 C 
BRANCH  15  16
ATOM     16  N   LIG    1       -0.762   1.591  -1.150  0.00  0.00    -0.680 NA
ATOM     17  H   LIG    1       -1.741   1.696  -0.929  0.00  0.00    +0.360 HD
BRANCH  16  18
ATOM     18  C   LIG    1       -0.013   1.086   0.008  0.00  0.00    +0.200 C 
ATOM     19  C   LIG    1       -0.636   1.606   1.321  0.00  0.00    +0.050 C 
ATOM     20  C   LIG    1        0.174   2.893   1.585  0.00  0.00    +0.090 C 
ATOM     21  C   LIG    1        1.507   2.669   0.904  0.00  0.00    -0.050 A 
ATOM     22  C   LIG    1        2.717   3.322   1.065  0.00  0.00    -0.020 A 
ATOM     23  C   LIG    1        3.819   2.938   0.321  0.00  0.00    +0.110 A 
ATOM     24  C   LIG    1        3.710   1.899  -0.586  0.00  0.00    -0.020 A 
ATOM     25  C   LIG    1        2.503   1.248  -0.747  0.00  0.00    +0.060 A 
ATOM     26  F   LIG    1        4.998   3.577   0.481  0.00  0.00    -0.140 F 
ATOM     27  C   LIG    1        1.400   1.630  -0.003  0.00  0.00    -0.100 A 
ENDBRANCH  16  18
ENDBRANCH  15  16
ENDBRANCH  10  15
TORSDOF 3
