REMARK  Name = ZINCrg000000rXBG.0
REMARK                            x       y       z     vdW  Elec       q    Type
REMARK                         _______ _______ _______ _____ _____    ______ ____
ROOT
ATOM      1  N   LIG    1       -4.838  -0.174  -0.922  0.00  0.00    -0.520 NA
ATOM      2  C   LIG    1       -4.817   0.583   0.338  0.00  0.00    +0.190 C 
ATOM      3  C   LIG    1       -3.729   1.657   0.267  0.00  0.00    +0.190 C 
ATOM      4  N   LIG    1       -2.429   1.017   0.019  0.00  0.00    -0.520 NA
ATOM      5  C   LIG    1       -2.450   0.260  -1.240  0.00  0.00    +0.200 C 
ATOM      6  C   LIG    1       -3.538  -0.814  -1.169  0.00  0.00    +0.190 C 
ENDROOT
BRANCH   1   7
ATOM      7  C   LIG    1       -5.921  -1.166  -0.922  0.00  0.00    +0.220 C 
BRANCH   7  10
ATOM      8  N   LIG    1       -7.008  -2.684  -2.544  0.00  0.00    -0.630 N 
ATOM      9  H   LIG    1       -7.588  -2.984  -1.827  0.00  0.00    +0.420 HD
ATOM     10  C   LIG    1       -6.069  -1.748  -2.304  0.00  0.00    +0.520 C 
ATOM     11  O   LIG    1       -5.344  -1.373  -3.201  0.00  0.00    -0.490 OA
BRANCH   8  15
ATOM     12  C   LIG    1       -6.454  -3.741  -7.385  0.00  0.00    +0.180 C 
ATOM     13  C   LIG    1       -6.896  -3.680  -5.946  0.00  0.00    -0.020 A 
ATOM     14  C   LIG    1       -6.384  -2.889  -4.975  0.00  0.00    -0.040 A 
ATOM     15  C   LIG    1       -7.145  -3.223  -3.824  0.00  0.00    +0.250 A 
ATOM     16  N   LIG    1       -8.004  -4.132  -4.205  0.00  0.00    -0.390 NA
ATOM     17  O   LIG    1       -7.878  -4.395  -5.378  0.00  0.00    +0.100 OA
ENDBRANCH   8  15
ENDBRANCH   7  10
ENDBRANCH   1   7
BRANCH   4  18
ATOM     18  C   LIG    1       -1.345   2.009   0.019  0.00  0.00    +0.290 C 
BRANCH  18  19
ATOM     19  C   LIG    1       -0.016   1.300   0.009  0.00  0.00    +0.440 A 
ATOM     20  N   LIG    1        0.002  -0.004   0.002  0.00  0.00    -0.550 NA
ATOM     21  C   LIG    1        1.162  -0.683  -0.013  0.00  0.00    +0.550 A 
ATOM     22  C   LIG    1        2.389   0.031  -0.021  0.00  0.00    -0.330 A 
ATOM     23  C   LIG    1        2.358   1.416  -0.013  0.00  0.00    +0.170 A 
ATOM     24  C   LIG    1        3.627   1.987  -0.022  0.00  0.00    -0.010 A 
ATOM     25  C   LIG    1        4.647   1.133  -0.037  0.00  0.00    +0.010 A 
ATOM     26  S   LIG    1        4.058  -0.521  -0.040  0.00  0.00    +0.240 S 
ATOM     27  O   LIG    1        1.160  -1.905  -0.020  0.00  0.00    -0.500 OA
ATOM     28  N   LIG    1        1.108   2.033   0.002  0.00  0.00    -0.600 N 
ATOM     29  H   LIG    1        1.050   3.001   0.008  0.00  0.00    +0.420 HD
ENDBRANCH  18  19
ENDBRANCH   4  18
TORSDOF 5
