REMARK  Name = ZINCqH0000032d4i.1
REMARK                            x       y       z     vdW  Elec       q    Type
REMARK                         _______ _______ _______ _____ _____    ______ ____
ROOT
ATOM      1  C   UNK    1        6.221  -2.173  -2.856  0.00  0.00    +0.140 C 
ATOM      2  C   UNK    1        5.231  -2.223  -1.690  0.00  0.00    +0.290 C 
ATOM      3  N   UNK    1        4.335  -1.061  -1.758  0.00  0.00    -0.390 N 
ATOM      4  C   UNK    1        3.583  -1.093  -3.020  0.00  0.00    +0.280 C 
ATOM      5  C   UNK    1        4.560  -1.034  -4.197  0.00  0.00    +0.230 C 
ATOM      6  H   UNK    1        4.880  -0.213  -1.713  0.00  0.00    +0.420 HD
ATOM      7  N   UNK    1        5.480  -2.178  -4.125  0.00  0.00    -0.400 N 
ENDROOT
BRANCH   7   8
ATOM      8  C   UNK    1        6.343  -2.187  -5.202  0.00  0.00    +0.280 A 
ATOM      9  N   UNK    1        6.122  -2.779  -6.346  0.00  0.00    -0.390 NA
ATOM     10  C   UNK    1        7.198  -2.563  -7.157  0.00  0.00    -0.040 A 
ATOM     11  C   UNK    1        8.091  -1.819  -6.449  0.00  0.00    +0.200 A 
ATOM     12  O   UNK    1        7.548  -1.594  -5.240  0.00  0.00    -0.250 OA
BRANCH  10  13
ATOM     13  C   UNK    1        7.365  -3.048  -8.534  0.00  0.00    +0.550 C 
ATOM     14  O   UNK    1        6.481  -3.712  -9.060  0.00  0.00    -0.660 OA
ATOM     15  O   UNK    1        8.387  -2.788  -9.155  0.00  0.00    -0.680 OA
ENDBRANCH  10  13
ENDBRANCH   7   8
BRANCH   1  16
ATOM     16  C   UNK    1        7.141  -3.394  -2.797  0.00  0.00    +0.060 C 
BRANCH  16  18
ATOM     17  C   UNK    1        5.532  -4.842  -4.045  0.00  0.00    +0.030 C 
ATOM     18  C   UNK    1        6.295  -4.667  -2.730  0.00  0.00    -0.030 C 
ATOM     19  C   UNK    1        7.208  -5.874  -2.505  0.00  0.00    +0.020 C 
ENDBRANCH  16  18
ENDBRANCH   1  16
BRANCH   3  20
ATOM     20  C   UNK    1        3.396  -1.100  -0.629  0.00  0.00    +0.330 C 
BRANCH  20  21
ATOM     21  C   UNK    1        2.558   0.153  -0.628  0.00  0.00    -0.160 A 
ATOM     22  C   UNK    1        1.363   0.185  -1.321  0.00  0.00    +0.060 A 
ATOM     23  C   UNK    1        0.594   1.333  -1.321  0.00  0.00    +0.040 A 
ATOM     24  C   UNK    1        1.022   2.451  -0.627  0.00  0.00    -0.010 A 
ATOM     25  C   UNK    1        2.219   2.419   0.066  0.00  0.00    +0.040 A 
ATOM     26 CL   UNK    1        0.060   3.897  -0.633  0.00  0.00    -0.040 Cl
ATOM     27  C   UNK    1        2.986   1.270   0.065  0.00  0.00    +0.060 A 
ENDBRANCH  20  21
ENDBRANCH   3  20
TORSDOF 6
