REMARK  Name = ZINCqH0000032d4i.2
REMARK                            x       y       z     vdW  Elec       q    Type
REMARK                         _______ _______ _______ _____ _____    ______ ____
ROOT
ATOM      1  C   UNK    1       -1.252  -2.877   0.703  0.00  0.00    +0.140 C 
ATOM      2  C   UNK    1       -0.283  -2.000   1.499  0.00  0.00    +0.290 C 
ATOM      3  N   UNK    1       -0.361  -0.616   1.011  0.00  0.00    -0.380 N 
ATOM      4  C   UNK    1       -1.726  -0.106   1.198  0.00  0.00    +0.280 C 
ATOM      5  C   UNK    1       -2.707  -0.968   0.399  0.00  0.00    +0.230 C 
ATOM      6  H   UNK    1        0.286  -0.041   1.528  0.00  0.00    +0.430 HD
ATOM      7  N   UNK    1       -2.619  -2.361   0.860  0.00  0.00    -0.400 N 
ENDROOT
BRANCH   7   8
ATOM      8  C   UNK    1       -3.529  -3.159   0.197  0.00  0.00    +0.290 A 
ATOM      9  N   UNK    1       -4.812  -3.210   0.442  0.00  0.00    -0.400 NA
ATOM     10  C   UNK    1       -5.377  -4.110  -0.415  0.00  0.00    -0.040 A 
ATOM     11  C   UNK    1       -4.375  -4.611  -1.188  0.00  0.00    +0.190 A 
ATOM     12  O   UNK    1       -3.236  -4.013  -0.797  0.00  0.00    -0.240 OA
BRANCH  10  13
ATOM     13  C   UNK    1       -6.799  -4.473  -0.486  0.00  0.00    +0.550 C 
ATOM     14  O   UNK    1       -7.604  -3.945   0.270  0.00  0.00    -0.660 OA
ATOM     15  O   UNK    1       -7.179  -5.303  -1.302  0.00  0.00    -0.680 OA
ENDBRANCH  10  13
ENDBRANCH   7   8
BRANCH   1  16
ATOM     16  C   UNK    1       -1.185  -4.314   1.224  0.00  0.00    +0.050 C 
BRANCH  16  18
ATOM     17  C   UNK    1       -2.842  -3.869   3.041  0.00  0.00    +0.030 C 
ATOM     18  C   UNK    1       -1.411  -4.318   2.737  0.00  0.00    -0.030 C 
ATOM     19  C   UNK    1       -1.194  -5.732   3.281  0.00  0.00    +0.020 C 
ENDBRANCH  16  18
ENDBRANCH   1  16
BRANCH   3  20
ATOM     20  C   UNK    1       -0.017  -0.580  -0.416  0.00  0.00    +0.310 C 
BRANCH  20  21
ATOM     21  C   UNK    1        0.024   0.851  -0.887  0.00  0.00    -0.150 A 
ATOM     22  C   UNK    1       -1.118   1.445  -1.391  0.00  0.00    +0.060 A 
ATOM     23  C   UNK    1       -1.083   2.760  -1.817  0.00  0.00    +0.050 A 
ATOM     24  C   UNK    1        0.099   3.477  -1.751  0.00  0.00    -0.010 A 
ATOM     25  C   UNK    1        1.243   2.880  -1.252  0.00  0.00    +0.040 A 
ATOM     26 CL   UNK    1        0.145   5.125  -2.293  0.00  0.00    -0.040 Cl
ATOM     27  C   UNK    1        1.205   1.567  -0.820  0.00  0.00    +0.060 A 
ENDBRANCH  20  21
ENDBRANCH   3  20
TORSDOF 6
