REMARK  Name = ZINCrH000004nKOZ.0
REMARK                            x       y       z     vdW  Elec       q    Type
REMARK                         _______ _______ _______ _____ _____    ______ ____
ROOT
ATOM      1  N   LIG    1       -1.074   2.068  -0.709  0.00  0.00    -0.730 N 
ATOM      2  H   LIG    1       -1.181   2.877  -0.184  0.00  0.00    +0.400 HD
ATOM      3  C   LIG    1        0.108   1.422  -0.716  0.00  0.00    +0.710 C 
ATOM      4  N   LIG    1        1.143   1.901   0.001  0.00  0.00    -0.690 N 
ATOM      5  H   LIG    1        1.061   2.750   0.464  0.00  0.00    +0.410 HD
ATOM      6  O   LIG    1        0.242   0.408  -1.374  0.00  0.00    -0.570 OA
ENDROOT
BRANCH   4   7
ATOM      7  C   LIG    1        2.337   1.175   0.079  0.00  0.00    +0.160 A 
ATOM      8  C   LIG    1        2.309  -0.213   0.070  0.00  0.00    +0.030 A 
ATOM      9  C   LIG    1        3.490  -0.927   0.142  0.00  0.00    +0.030 A 
ATOM     10  C   LIG    1        4.698  -0.260   0.233  0.00  0.00    +0.010 A 
ATOM     11  C   LIG    1        4.729   1.122   0.247  0.00  0.00    -0.070 A 
ATOM     12  C   LIG    1        3.552   1.842   0.171  0.00  0.00    +0.000 A 
BRANCH  11  13
ATOM     13  C   LIG    1        6.048   1.845   0.347  0.00  0.00    +0.220 C 
BRANCH  13  14
ATOM     14  O   LIG    1        6.370   2.061   1.722  0.00  0.00    -0.380 OA
BRANCH  14  15
ATOM     15  C   LIG    1        7.608   2.743   1.929  0.00  0.00    +0.290 C 
BRANCH  15  16
ATOM     16  C   LIG    1        7.846   2.916   3.407  0.00  0.00    -0.020 A 
ATOM     17  C   LIG    1        8.487   2.046   4.208  0.00  0.00    -0.030 A 
ATOM     18  C   LIG    1        8.483   2.605   5.506  0.00  0.00    -0.070 A 
ATOM     19  C   LIG    1        7.831   3.779   5.423  0.00  0.00    +0.180 A 
ATOM     20  O   LIG    1        7.448   3.962   4.149  0.00  0.00    -0.170 OA
ENDBRANCH  15  16
ENDBRANCH  14  15
ENDBRANCH  13  14
ENDBRANCH  11  13
ENDBRANCH   4   7
BRANCH   1  21
ATOM     21  C   LIG    1       -2.197   1.550  -1.493  0.00  0.00    +0.360 C 
BRANCH  21  27
ATOM     22  C   LIG    1       -3.490   3.641  -2.023  0.00  0.00    +0.340 A 
ATOM     23  N   LIG    1       -4.540   4.431  -1.872  0.00  0.00    -0.540 NA
ATOM     24  C   LIG    1       -5.521   4.128  -1.043  0.00  0.00    +0.310 A 
ATOM     25  C   LIG    1       -5.488   2.964  -0.302  0.00  0.00    -0.070 A 
ATOM     26  C   LIG    1       -4.406   2.104  -0.436  0.00  0.00    +0.130 A 
ATOM     27  C   LIG    1       -3.393   2.450  -1.314  0.00  0.00    -0.190 A 
BRANCH  22  29
ATOM     28  C   LIG    1       -2.660   5.230  -3.581  0.00  0.00    +0.260 C 
ATOM     29  O   LIG    1       -2.502   3.994  -2.882  0.00  0.00    -0.300 OA
ENDBRANCH  22  29
ENDBRANCH  21  27
ENDBRANCH   1  21
TORSDOF 8
