REMARK  Name = ZINCrg00000fRaQK.1
REMARK                            x       y       z     vdW  Elec       q    Type
REMARK                         _______ _______ _______ _____ _____    ______ ____
ROOT
ATOM      1  C   LIG    1        2.165  -5.852   0.733  0.00  0.00    +0.270 C 
ENDROOT
BRANCH   1   4
ATOM      2  N   LIG    1        1.665  -8.220   0.225  0.00  0.00    -0.710 N 
ATOM      3  H   LIG    1        2.618  -8.363   0.107  0.00  0.00    +0.410 HD
ATOM      4  C   LIG    1        1.203  -6.997   0.551  0.00  0.00    +0.510 C 
ATOM      5  O   LIG    1        0.013  -6.819   0.699  0.00  0.00    -0.520 OA
BRANCH   2   6
ATOM      6  C   LIG    1        0.730  -9.334   0.048  0.00  0.00    +0.280 C 
BRANCH   6   8
ATOM      7  C   LIG    1        2.315 -10.977   1.063  0.00  0.00    +0.060 C 
ATOM      8  C   LIG    1        1.514 -10.626  -0.192  0.00  0.00    +0.090 C 
ATOM      9  C   LIG    1        0.541 -11.762  -0.510  0.00  0.00    +0.020 C 
BRANCH   8  10
ATOM     10  N   LIG    1        2.434 -10.438  -1.322  0.00  0.00    -0.530 NA
ATOM     11  C   LIG    1        1.702 -10.046  -2.536  0.00  0.00    +0.150 C 
ATOM     12  C   LIG    1        2.701  -9.803  -3.671  0.00  0.00    +0.220 C 
ATOM     13  O   LIG    1        3.486 -10.981  -3.869  0.00  0.00    -0.380 OA
ATOM     14  C   LIG    1        4.213 -11.391  -2.707  0.00  0.00    +0.220 C 
ATOM     15  C   LIG    1        3.229 -11.650  -1.562  0.00  0.00    +0.150 C 
ENDBRANCH   8  10
ENDBRANCH   6   8
ENDBRANCH   2   6
ENDBRANCH   1   4
BRANCH   1  16
ATOM     16  O   LIG    1        1.427  -4.650   1.079  0.00  0.00    -0.330 OA
BRANCH  16  17
ATOM     17  C   LIG    1        2.145  -3.527   1.277  0.00  0.00    +0.540 C 
ATOM     18  O   LIG    1        3.355  -3.551   1.164  0.00  0.00    -0.480 OA
BRANCH  17  19
ATOM     19  C   LIG    1        1.465  -2.272   1.631  0.00  0.00    -0.020 A 
ATOM     20  C   LIG    1        2.058  -1.045   1.859  0.00  0.00    +0.060 A 
ATOM     21  C   LIG    1        0.998  -0.170   2.163  0.00  0.00    +0.100 A 
ATOM     22  N   LIG    1       -0.121  -0.865   2.100  0.00  0.00    -0.230 NA
ATOM     23  N   LIG    1        0.120  -2.088   1.793  0.00  0.00    -0.350 N 
ATOM     24  H   LIG    1       -0.553  -2.779   1.691  0.00  0.00    +0.460 HD
BRANCH  21  25
ATOM     25  C   LIG    1        1.116   1.268   2.489  0.00  0.00    +0.050 A 
ATOM     26  C   LIG    1        0.087   2.109   2.771  0.00  0.00    -0.010 A 
ATOM     27  C   LIG    1        0.654   3.375   3.022  0.00  0.00    -0.060 A 
ATOM     28  C   LIG    1        1.987   3.247   2.873  0.00  0.00    +0.190 A 
ATOM     29  O   LIG    1        2.263   1.972   2.551  0.00  0.00    -0.170 OA
ENDBRANCH  21  25
ENDBRANCH  17  19
ENDBRANCH  16  17
ENDBRANCH   1  16
TORSDOF 8
