REMARK  Name = ZINCrg00000fRaQK.0
REMARK                            x       y       z     vdW  Elec       q    Type
REMARK                         _______ _______ _______ _____ _____    ______ ____
ROOT
ATOM      1  C   LIG    1        8.707   1.748   0.710  0.00  0.00    +0.270 C 
ENDROOT
BRANCH   1   4
ATOM      2  N   LIG    1       10.820   0.575   0.183  0.00  0.00    -0.710 N 
ATOM      3  H   LIG    1       11.239   1.443   0.075  0.00  0.00    +0.410 HD
ATOM      4  C   LIG    1        9.516   0.491   0.512  0.00  0.00    +0.510 C 
ATOM      5  O   LIG    1        8.993  -0.594   0.648  0.00  0.00    -0.520 OA
BRANCH   2   6
ATOM      6  C   LIG    1       11.607  -0.646  -0.009  0.00  0.00    +0.290 C 
BRANCH   6   8
ATOM      7  C   LIG    1       13.647   0.369   1.014  0.00  0.00    +0.060 C 
ATOM      8  C   LIG    1       13.072  -0.277  -0.248  0.00  0.00    +0.090 C 
ATOM      9  C   LIG    1       13.868  -1.540  -0.582  0.00  0.00    +0.020 C 
BRANCH   8  10
ATOM     10  N   LIG    1       13.162   0.670  -1.367  0.00  0.00    -0.530 NA
ATOM     11  C   LIG    1       12.569   0.102  -2.587  0.00  0.00    +0.150 C 
ATOM     12  C   LIG    1       12.630   1.141  -3.709  0.00  0.00    +0.220 C 
ATOM     13  O   LIG    1       13.988   1.544  -3.905  0.00  0.00    -0.380 OA
ATOM     14  C   LIG    1       14.597   2.102  -2.738  0.00  0.00    +0.220 C 
ATOM     15  C   LIG    1       14.556   1.073  -1.605  0.00  0.00    +0.150 C 
ENDBRANCH   8  10
ENDBRANCH   6   8
ENDBRANCH   2   6
ENDBRANCH   1   4
BRANCH   1  16
ATOM     16  O   LIG    1        7.341   1.395   1.055  0.00  0.00    -0.320 OA
BRANCH  16  17
ATOM     17  C   LIG    1        6.482   2.410   1.267  0.00  0.00    +0.560 C 
ATOM     18  O   LIG    1        6.863   3.559   1.166  0.00  0.00    -0.490 OA
BRANCH  17  19
ATOM     19  C   LIG    1        5.077   2.127   1.621  0.00  0.00    +0.000 A 
ATOM     20  N   LIG    1        4.533   0.934   1.762  0.00  0.00    -0.200 NA
ATOM     21  N   LIG    1        3.291   1.040   2.074  0.00  0.00    -0.360 N 
ATOM     22  H   LIG    1        2.690   0.294   2.228  0.00  0.00    +0.450 HD
ATOM     23  C   LIG    1        2.942   2.358   2.156  0.00  0.00    +0.080 A 
ATOM     24  C   LIG    1        4.068   3.083   1.865  0.00  0.00    +0.040 A 
BRANCH  23  25
ATOM     25  C   LIG    1        1.611   2.896   2.488  0.00  0.00    +0.040 A 
ATOM     26  C   LIG    1        0.500   2.161   2.769  0.00  0.00    -0.030 A 
ATOM     27  C   LIG    1       -0.539   3.079   3.021  0.00  0.00    -0.050 A 
ATOM     28  C   LIG    1       -0.016   4.314   2.890  0.00  0.00    +0.190 A 
ATOM     29  O   LIG    1        1.282   4.200   2.565  0.00  0.00    -0.160 OA
ENDBRANCH  23  25
ENDBRANCH  17  19
ENDBRANCH  16  17
ENDBRANCH   1  16
TORSDOF 8
