REMARK  Name = ZINCqH0000001x9t.0
REMARK                            x       y       z     vdW  Elec       q    Type
REMARK                         _______ _______ _______ _____ _____    ______ ____
ROOT
ATOM      1  C   LIG    1        3.654  -0.814  -0.490  0.00  0.00    +0.340 C 
ENDROOT
BRANCH   1   3
ATOM      2  C   LIG    1        1.212  -0.707  -0.009  0.00  0.00    +0.160 A 
ATOM      3  C   LIG    1        2.384  -0.044  -0.233  0.00  0.00    -0.150 A 
ATOM      4  C   LIG    1        2.401   1.361  -0.222  0.00  0.00    +0.000 A 
ATOM      5  C   LIG    1        3.588   2.078  -0.449  0.00  0.00    +0.010 A 
ATOM      6  C   LIG    1        3.567   3.439  -0.430  0.00  0.00    +0.020 A 
ATOM      7  C   LIG    1        2.384   4.135  -0.191  0.00  0.00    -0.010 A 
ATOM      8  C   LIG    1        1.215   3.474   0.032  0.00  0.00    +0.040 A 
ATOM      9  C   LIG    1        1.197   2.069   0.021  0.00  0.00    -0.090 A 
ATOM     10  C   LIG    1        0.008   1.354   0.248  0.00  0.00    +0.080 A 
ATOM     11  C   LIG    1        0.025  -0.006   0.231  0.00  0.00    -0.070 A 
BRANCH   2  12
ATOM     12  O   LIG    1        1.197  -2.065  -0.019  0.00  0.00    -0.300 OA
BRANCH  12  14
ATOM     13  C   LIG    1       -0.012  -4.096  -0.527  0.00  0.00    +0.060 C 
ATOM     14  C   LIG    1       -0.077  -2.702   0.100  0.00  0.00    +0.150 C 
ATOM     15  C   LIG    1       -0.449  -2.825   1.579  0.00  0.00    +0.020 C 
ENDBRANCH  12  14
ENDBRANCH   2  12
ENDBRANCH   1   3
BRANCH   1  16
ATOM     16  N   LIG    1        3.799  -1.050  -1.928  0.00  0.00    -0.740 N 
ATOM     17  H   LIG    1        3.126  -0.721  -2.544  0.00  0.00    +0.390 HD
ATOM     18  C   LIG    1        4.867  -1.726  -2.396  0.00  0.00    +0.700 C 
ATOM     19  N   LIG    1        5.001  -1.943  -3.719  0.00  0.00    -0.740 N 
ATOM     20  H   LIG    1        4.328  -1.613  -4.335  0.00  0.00    +0.400 HD
ATOM     21  O   LIG    1        5.711  -2.139  -1.623  0.00  0.00    -0.590 OA
BRANCH  19  22
ATOM     22  C   LIG    1        6.163  -2.677  -4.227  0.00  0.00    +0.270 C 
ATOM     23  C   LIG    1        5.871  -4.192  -4.229  0.00  0.00    +0.020 C 
ATOM     24  C   LIG    1        6.565  -4.711  -5.513  0.00  0.00    +0.020 C 
ATOM     25  C   LIG    1        6.305  -3.569  -6.527  0.00  0.00    +0.010 C 
ATOM     26  C   LIG    1        6.439  -2.281  -5.688  0.00  0.00    +0.120 C 
ATOM     27  C   LIG    1        5.413  -1.244  -6.153  0.00  0.00    +0.030 C 
BRANCH  26  28
ATOM     28  O   LIG    1        7.760  -1.752  -5.811  0.00  0.00    -0.550 OA
ATOM     29  H   LIG    1        7.995  -1.483  -6.710  0.00  0.00    +0.380 HD
ENDBRANCH  26  28
ENDBRANCH  19  22
ENDBRANCH   1  16
TORSDOF 6
