REMARK  Name = ZINCrD00000e0s9Z.0
REMARK                            x       y       z     vdW  Elec       q    Type
REMARK                         _______ _______ _______ _____ _____    ______ ____
ROOT
ATOM      1  C   LIG    1       -1.562   6.163  -0.148  0.00  0.00    +0.430 A 
ATOM      2  N   LIG    1       -2.810   5.740  -0.231  0.00  0.00    -0.270 NA
ATOM      3  N   LIG    1       -3.617   6.740  -0.186  0.00  0.00    -0.230 NA
ATOM      4  C   LIG    1       -2.932   7.858  -0.072  0.00  0.00    +0.130 A 
ATOM      5  N   LIG    1       -1.597   7.512  -0.039  0.00  0.00    -0.440 N 
ENDROOT
BRANCH   4   6
ATOM      6  C   LIG    1       -3.485   9.217   0.011  0.00  0.00    +0.620 C 
ATOM      7  N   LIG    1       -4.819   9.406  -0.027  0.00  0.00    -0.590 N 
ATOM      8  C   LIG    1       -5.830   8.347  -0.156  0.00  0.00    +0.260 C 
ATOM      9  C   LIG    1       -7.212   9.033  -0.180  0.00  0.00    +0.040 C 
ATOM     10  C   LIG    1       -6.873  10.475  -0.642  0.00  0.00    +0.040 C 
ATOM     11  C   LIG    1       -5.505  10.709   0.046  0.00  0.00    +0.270 C 
ATOM     12  O   LIG    1       -2.739  10.173   0.115  0.00  0.00    -0.530 OA
ENDBRANCH   4   6
BRANCH   1  14
ATOM     13  C   LIG    1        0.139   4.936  -1.439  0.00  0.00    +0.320 C 
ATOM     14  N   LIG    1       -0.431   5.375  -0.163  0.00  0.00    -0.550 N 
BRANCH  14  15
ATOM     15  C   LIG    1        0.172   4.994   1.040  0.00  0.00    +0.200 A 
ATOM     16  C   LIG    1        1.240   4.107   1.032  0.00  0.00    -0.040 A 
ATOM     17  C   LIG    1        1.834   3.734   2.222  0.00  0.00    +0.060 A 
ATOM     18  C   LIG    1        1.365   4.242   3.420  0.00  0.00    -0.040 A 
ATOM     19  C   LIG    1        0.298   5.121   3.431  0.00  0.00    +0.050 A 
ATOM     20  C   LIG    1       -0.297   5.503   2.244  0.00  0.00    -0.070 A 
ENDBRANCH  14  15
ENDBRANCH   1  14
BRANCH   5  21
ATOM     21  C   LIG    1       -0.453   8.418   0.085  0.00  0.00    +0.370 C 
BRANCH  21  22
ATOM     22  C   LIG    1        0.086   8.738  -1.286  0.00  0.00    -0.120 A 
ATOM     23  C   LIG    1        1.127   7.995  -1.810  0.00  0.00    +0.020 A 
ATOM     24  C   LIG    1        1.618   8.286  -3.069  0.00  0.00    +0.010 A 
ATOM     25  C   LIG    1        1.074   9.325  -3.800  0.00  0.00    +0.030 A 
ATOM     26  C   LIG    1        0.036  10.072  -3.274  0.00  0.00    +0.010 A 
ATOM     27  C   LIG    1       -0.458   9.778  -2.017  0.00  0.00    +0.040 A 
ENDBRANCH  21  22
ENDBRANCH   5  21
TORSDOF 5
