REMARK  Name = ZINCqH00000513c9.0
REMARK                            x       y       z     vdW  Elec       q    Type
REMARK                         _______ _______ _______ _____ _____    ______ ____
ROOT
ATOM      1  C   LIG    1        3.885   2.609  -1.185  0.00  0.00    +0.470 C 
ATOM      2  O   LIG    1        2.985   2.922  -1.927  0.00  0.00    -0.480 OA
ENDROOT
BRANCH   1   3
ATOM      3  O   LIG    1        5.123   3.083  -1.394  0.00  0.00    -0.330 OA
BRANCH   3   4
ATOM      4  C   LIG    1        5.307   3.967  -2.532  0.00  0.00    +0.240 C 
BRANCH   4   5
ATOM      5  C   LIG    1        6.420   4.939  -2.238  0.00  0.00    -0.100 A 
ATOM      6  C   LIG    1        7.554   4.512  -1.574  0.00  0.00    +0.050 A 
ATOM      7  C   LIG    1        8.577   5.403  -1.308  0.00  0.00    +0.010 A 
ATOM      8  C   LIG    1        8.462   6.723  -1.700  0.00  0.00    +0.020 A 
ATOM      9  C   LIG    1        7.326   7.152  -2.360  0.00  0.00    +0.010 A 
ATOM     10  C   LIG    1        6.304   6.260  -2.629  0.00  0.00    +0.030 A 
ENDBRANCH   4   5
BRANCH   4  14
ATOM     11  N   LIG    1        5.878   3.763  -4.930  0.00  0.00    -0.840 N 
ATOM     12  H   LIG    1        6.105   3.238  -5.714  0.00  0.00    +0.410 HD
ATOM     13  H   LIG    1        5.807   4.728  -4.997  0.00  0.00    +0.400 HD
ATOM     14  C   LIG    1        5.660   3.151  -3.749  0.00  0.00    +0.510 C 
ATOM     15  O   LIG    1        5.748   1.945  -3.666  0.00  0.00    -0.520 OA
ENDBRANCH   4  14
ENDBRANCH   3   4
ENDBRANCH   1   3
BRANCH   1  16
ATOM     16  C   LIG    1        3.618   1.687  -0.023  0.00  0.00    +0.220 C 
BRANCH  16  17
ATOM     17  C   LIG    1        2.161   1.302  -0.012  0.00  0.00    +0.080 A 
ATOM     18  C   LIG    1        1.764   0.025  -0.015  0.00  0.00    -0.040 A 
ATOM     19  S   LIG    1        0.002  -0.004   0.002  0.00  0.00    +0.110 S 
ATOM     20  C   LIG    1       -0.022   1.758   0.012  0.00  0.00    +0.110 A 
ATOM     21  N   LIG    1        1.203   2.199   0.002  0.00  0.00    -0.440 NA
BRANCH  20  22
ATOM     22  C   LIG    1       -1.238   2.599   0.022  0.00  0.00    -0.010 A 
ATOM     23  C   LIG    1       -2.500   2.006   0.026  0.00  0.00    +0.040 A 
ATOM     24  C   LIG    1       -3.631   2.796   0.036  0.00  0.00    +0.040 A 
ATOM     25  C   LIG    1       -3.516   4.174   0.042  0.00  0.00    +0.050 A 
ATOM     26  C   LIG    1       -2.266   4.770   0.039  0.00  0.00    -0.040 A 
ATOM     27 CL   LIG    1       -2.131   6.501   0.048  0.00  0.00    -0.060 Cl
ATOM     28  C   LIG    1       -1.127   3.990   0.035  0.00  0.00    +0.090 A 
ENDBRANCH  20  22
ENDBRANCH  16  17
ENDBRANCH   1  16
TORSDOF 7
