REMARK  Name = ZINCrD000000fmA8.0
REMARK                            x       y       z     vdW  Elec       q    Type
REMARK                         _______ _______ _______ _____ _____    ______ ____
ROOT
ATOM      1  N   LIG    1       -1.752   2.343   1.404  0.00  0.00    -0.600 N 
ATOM      2  C   LIG    1       -1.377   3.469   2.044  0.00  0.00    +0.500 C 
ATOM      3  O   LIG    1       -0.691   4.290   1.474  0.00  0.00    -0.520 OA
ENDROOT
BRANCH   1   4
ATOM      4  C   LIG    1       -2.581   1.351   2.094  0.00  0.00    +0.310 C 
BRANCH   4   6
ATOM      5  C   LIG    1       -1.837   0.139   4.078  0.00  0.00    +0.020 C 
ATOM      6  C   LIG    1       -1.693   0.355   2.794  0.00  0.00    -0.060 C 
ENDBRANCH   4   6
ENDBRANCH   1   4
BRANCH   2   7
ATOM      7  C   LIG    1       -1.809   3.706   3.468  0.00  0.00    +0.340 C 
BRANCH   7   8
ATOM      8  N   LIG    1       -1.276   4.989   3.933  0.00  0.00    -0.540 N 
ATOM      9  C   LIG    1       -0.044   5.160   4.566  0.00  0.00    +0.140 C 
ATOM     10  C   LIG    1        0.112   6.597   4.866  0.00  0.00    -0.040 A 
ATOM     11  C   LIG    1        1.108   7.352   5.472  0.00  0.00    +0.040 A 
ATOM     12  C   LIG    1        0.944   8.716   5.612  0.00  0.00    +0.050 A 
ATOM     13  C   LIG    1       -0.206   9.337   5.153  0.00  0.00    +0.020 A 
ATOM     14  C   LIG    1       -1.206   8.603   4.548  0.00  0.00    +0.100 A 
ATOM     15  C   LIG    1       -1.059   7.226   4.398  0.00  0.00    -0.160 A 
ATOM     16  C   LIG    1        0.838   4.196   4.846  0.00  0.00    +0.050 C 
ATOM     17  C   LIG    1       -1.905   6.172   3.817  0.00  0.00    +0.570 C 
ATOM     18  O   LIG    1       -2.999   6.342   3.314  0.00  0.00    -0.500 OA
ENDBRANCH   7   8
ENDBRANCH   2   7
BRANCH   1  19
ATOM     19  C   LIG    1       -1.333   2.113   0.020  0.00  0.00    +0.340 C 
BRANCH  19  20
ATOM     20  C   LIG    1       -0.017   1.378   0.010  0.00  0.00    -0.150 A 
ATOM     21  C   LIG    1        1.170   2.088   0.002  0.00  0.00    +0.080 A 
ATOM     22  C   LIG    1        2.377   1.417  -0.013  0.00  0.00    -0.080 A 
ATOM     23  C   LIG    1        2.399   0.030  -0.021  0.00  0.00    +0.130 A 
ATOM     24  C   LIG    1        1.207  -0.680  -0.014  0.00  0.00    -0.030 A 
ATOM     25  C   LIG    1        0.002  -0.004   0.002  0.00  0.00    +0.060 A 
BRANCH  23  26
ATOM     26  O   LIG    1        3.586  -0.632  -0.037  0.00  0.00    -0.320 OA
ATOM     27  C   LIG    1        4.772   0.164  -0.044  0.00  0.00    +0.250 C 
ENDBRANCH  23  26
ENDBRANCH  19  20
ENDBRANCH   1  19
TORSDOF 7
