REMARK  Name = ZINCpe000000Y2dq.0
REMARK                            x       y       z     vdW  Elec       q    Type
REMARK                         _______ _______ _______ _____ _____    ______ ____
ROOT
ATOM      1  C   LIG    1       -7.971  -2.524   4.622  0.00  0.00    +0.130 C 
ATOM      2  C   LIG    1       -7.306  -1.585   5.595  0.00  0.00    +0.160 A 
ATOM      3  N   LIG    1       -6.389  -0.744   5.158  0.00  0.00    -0.490 NA
ATOM      4  C   LIG    1       -5.775   0.102   5.972  0.00  0.00    +0.130 A 
ATOM      5  C   LIG    1       -6.085   0.121   7.343  0.00  0.00    -0.170 A 
ATOM      6  C   LIG    1       -7.060  -0.761   7.825  0.00  0.00    +0.010 A 
ATOM      7  C   LIG    1       -7.432  -0.776   9.286  0.00  0.00    +0.130 C 
ATOM      8  C   LIG    1       -7.668  -1.622   6.930  0.00  0.00    -0.150 A 
ATOM      9  C   LIG    1       -8.718  -2.593   7.405  0.00  0.00    +0.120 C 
ENDROOT
BRANCH   5  10
ATOM     10  C   LIG    1       -5.401   1.055   8.255  0.00  0.00    +0.580 C 
ATOM     11  O   LIG    1       -5.865   2.162   8.453  0.00  0.00    -0.520 OA
ATOM     12  N   LIG    1       -4.261   0.682   8.870  0.00  0.00    -0.840 N 
ATOM     13  H   LIG    1       -3.811   1.297   9.470  0.00  0.00    +0.410 HD
ATOM     14  H   LIG    1       -3.891  -0.200   8.713  0.00  0.00    +0.400 HD
ENDBRANCH   5  10
BRANCH   4  15
ATOM     15  S   LIG    1       -4.557   1.204   5.334  0.00  0.00    +0.030 S 
BRANCH  15  16
ATOM     16  C   LIG    1       -4.587   0.728   3.588  0.00  0.00    +0.110 C 
BRANCH  16  17
ATOM     17  C   LIG    1       -3.594   1.565   2.822  0.00  0.00    +0.530 C 
ATOM     18  N   LIG    1       -3.442   1.384   1.496  0.00  0.00    -0.720 N 
ATOM     19  H   LIG    1       -3.971   0.716   1.033  0.00  0.00    +0.410 HD
ATOM     20  O   LIG    1       -2.932   2.400   3.401  0.00  0.00    -0.510 OA
BRANCH  18  21
ATOM     21  C   LIG    1       -2.477   2.197   0.751  0.00  0.00    +0.190 C 
ATOM     22  C   LIG    1       -2.511   1.785  -0.721  0.00  0.00    +0.080 C 
ATOM     23  C   LIG    1       -1.109   2.027  -1.338  0.00  0.00    -0.300 C 
ATOM     24  S   LIG    1       -0.017   1.417   0.010  0.00  0.00    +2.380 S 
ATOM     25  O   LIG    1        1.203   2.146   0.002  0.00  0.00    -0.930 OA
ATOM     26  O   LIG    1        0.002  -0.004   0.002  0.00  0.00    -0.930 OA
ATOM     27  C   LIG    1       -2.877   3.669   0.865  0.00  0.00    +0.060 C 
ATOM     28  C   LIG    1       -1.079   2.010   1.380  0.00  0.00    -0.300 C 
ENDBRANCH  18  21
ENDBRANCH  16  17
ENDBRANCH  15  16
ENDBRANCH   4  15
TORSDOF 5
