REMARK  Name = ZINCqH0000050IPc.0
REMARK                            x       y       z     vdW  Elec       q    Type
REMARK                         _______ _______ _______ _____ _____    ______ ____
ROOT
ATOM      1  C   LIG    1        0.011   1.655  -0.394  0.00  0.00    +0.590 C 
ATOM      2  N   LIG    1        1.153   2.305  -0.095  0.00  0.00    -0.600 N 
ATOM      3  C   LIG    1        2.441   1.619  -0.221  0.00  0.00    +0.310 C 
ATOM      4  O   LIG    1       -1.048   2.254  -0.394  0.00  0.00    -0.550 OA
ENDROOT
BRANCH   1   8
ATOM      5  C   LIG    1        0.745  -1.852  -1.151  0.00  0.00    -0.120 A 
ATOM      6  C   LIG    1       -0.616  -1.827  -1.258  0.00  0.00    +0.220 A 
ATOM      7  N   LIG    1       -1.046  -0.569  -0.994  0.00  0.00    -0.410 N 
ATOM      8  C   LIG    1        0.045   0.226  -0.724  0.00  0.00    -0.050 A 
ATOM      9  C   LIG    1       -2.442  -0.127  -0.998  0.00  0.00    +0.330 C 
ATOM     10  C   LIG    1        1.166  -0.552  -0.813  0.00  0.00    +0.060 A 
BRANCH   5  14
ATOM     11  C   LIG    1        5.088  -4.215  -1.342  0.00  0.00    +0.180 C 
ATOM     12  C   LIG    1        3.590  -4.077  -1.434  0.00  0.00    +0.050 A 
ATOM     13  N   LIG    1        2.939  -2.983  -1.233  0.00  0.00    -0.470 NA
ATOM     14  C   LIG    1        1.621  -3.034  -1.354  0.00  0.00    +0.160 A 
ATOM     15  C   LIG    1        1.144  -4.253  -1.673  0.00  0.00    -0.100 A 
ATOM     16  S   LIG    1        2.515  -5.349  -1.820  0.00  0.00    +0.120 S 
ENDBRANCH   5  14
ENDBRANCH   1   8
BRANCH   2  17
ATOM     17  C   LIG    1        1.107   3.698   0.355  0.00  0.00    +0.330 C 
BRANCH  17  18
ATOM     18  C   LIG    1        0.987   3.737   1.880  0.00  0.00    +0.190 C 
BRANCH  18  19
ATOM     19  O   LIG    1        2.170   3.190   2.465  0.00  0.00    -0.310 OA
BRANCH  19  20
ATOM     20  C   LIG    1        2.226   3.151   3.823  0.00  0.00    +0.120 A 
ATOM     21  C   LIG    1        1.166   3.634   4.576  0.00  0.00    -0.040 A 
ATOM     22  C   LIG    1        1.222   3.590   5.955  0.00  0.00    +0.030 A 
ATOM     23  C   LIG    1        2.340   3.072   6.587  0.00  0.00    +0.060 A 
ATOM     24  C   LIG    1        3.401   2.594   5.837  0.00  0.00    +0.030 A 
ATOM     25  F   LIG    1        2.396   3.033   7.936  0.00  0.00    -0.140 F 
ATOM     26  C   LIG    1        3.345   2.633   4.457  0.00  0.00    +0.020 A 
ENDBRANCH  19  20
ENDBRANCH  18  19
ENDBRANCH  17  18
ENDBRANCH   2  17
TORSDOF 6
