REMARK  Name = ZINCnE00000gT8nM.0
REMARK                            x       y       z     vdW  Elec       q    Type
REMARK                         _______ _______ _______ _____ _____    ______ ____
ROOT
ATOM      1  C   LIG    1       -0.006  -4.198  -0.386  0.00  0.00    +0.000 A 
ATOM      2  C   LIG    1        0.013  -2.839  -0.312  0.00  0.00    -0.140 A 
ATOM      3  C   LIG    1       -1.238  -2.050  -0.595  0.00  0.00    +0.100 C 
ATOM      4  C   LIG    1       -1.330  -0.837   0.325  0.00  0.00    +0.120 C 
ATOM      5  C   LIG    1       -0.052  -0.041   0.289  0.00  0.00    +0.160 A 
ATOM      6  N   LIG    1       -0.091   1.274   0.388  0.00  0.00    -0.490 NA
ATOM      7  C   LIG    1        1.006   2.005   0.387  0.00  0.00    +0.270 A 
ATOM      8  C   LIG    1        2.257   1.423   0.289  0.00  0.00    -0.050 A 
ATOM      9  C   LIG    1        2.353   0.045   0.180  0.00  0.00    +0.110 A 
ATOM     10  C   LIG    1        1.172  -0.696   0.171  0.00  0.00    -0.090 A 
ATOM     11  C   LIG    1        1.204  -2.171   0.023  0.00  0.00    +0.210 A 
ATOM     12  N   LIG    1        2.326  -2.833   0.228  0.00  0.00    -0.480 NA
ATOM     13  C   LIG    1        2.370  -4.166   0.156  0.00  0.00    +0.130 A 
ATOM     14  C   LIG    1        3.570  -4.864   0.379  0.00  0.00    +0.030 A 
ATOM     15  C   LIG    1        3.583  -6.223   0.316  0.00  0.00    +0.030 A 
ATOM     16  C   LIG    1        2.423  -6.940   0.032  0.00  0.00    +0.000 A 
ATOM     17  C   LIG    1        1.242  -6.299  -0.195  0.00  0.00    +0.060 A 
ATOM     18  C   LIG    1        1.193  -4.897  -0.143  0.00  0.00    -0.100 A 
ENDROOT
BRANCH   1  19
ATOM     19  C   LIG    1       -1.278  -4.936  -0.718  0.00  0.00    +0.090 C 
BRANCH  19  20
ATOM     20  C   LIG    1       -2.029  -5.265   0.574  0.00  0.00    -0.060 C 
BRANCH  20  22
ATOM     21  O   LIG    1       -3.579  -6.244  -0.921  0.00  0.00    -0.700 OA
ATOM     22  C   LIG    1       -3.300  -6.003   0.241  0.00  0.00    +0.490 C 
ATOM     23  O   LIG    1       -4.050  -6.359   1.135  0.00  0.00    -0.700 OA
ENDBRANCH  20  22
ENDBRANCH  19  20
ENDBRANCH   1  19
TORSDOF 3
