REMARK  Name = ZINCrH000004v9Yk.0
REMARK                            x       y       z     vdW  Elec       q    Type
REMARK                         _______ _______ _______ _____ _____    ______ ____
ROOT
ATOM      1  O   LIG    1       -1.021  -0.649  -0.323  0.00  0.00    -0.570 OA
ATOM      2  C   LIG    1        0.006  -0.016  -0.169  0.00  0.00    +0.730 C 
ATOM      3  N   LIG    1       -0.028   1.331  -0.156  0.00  0.00    -0.640 N 
ATOM      4  C   LIG    1        1.107   2.267   0.017  0.00  0.00    +0.260 C 
ATOM      5  C   LIG    1        0.550   3.393   0.915  0.00  0.00    +0.040 C 
ATOM      6  C   LIG    1       -0.977   3.357   0.699  0.00  0.00    -0.070 C 
ATOM      7  C   LIG    1       -1.209   2.212  -0.317  0.00  0.00    +0.300 C 
ATOM      8  N   LIG    1        1.178  -0.662  -0.012  0.00  0.00    -0.680 N 
ATOM      9  H   LIG    1        2.007  -0.159   0.033  0.00  0.00    +0.410 HD
ENDROOT
BRANCH   8  10
ATOM     10  C   LIG    1        1.200  -2.059   0.086  0.00  0.00    +0.180 A 
ATOM     11  C   LIG    1        2.280  -2.771  -0.433  0.00  0.00    -0.040 A 
ATOM     12  C   LIG    1        2.317  -4.133  -0.345  0.00  0.00    +0.080 A 
ATOM     13  C   LIG    1        1.267  -4.819   0.269  0.00  0.00    -0.130 A 
ATOM     14  C   LIG    1        0.991  -6.235   0.527  0.00  0.00    -0.050 A 
ATOM     15  C   LIG    1       -0.190  -6.295   1.161  0.00  0.00    +0.220 A 
ATOM     16  N   LIG    1       -0.695  -5.033   1.330  0.00  0.00    -0.600 N 
ATOM     17  H   LIG    1       -1.537  -4.823   1.763  0.00  0.00    +0.420 HD
ATOM     18  C   LIG    1        0.173  -4.107   0.795  0.00  0.00    +0.120 A 
ATOM     19  C   LIG    1        0.153  -2.720   0.702  0.00  0.00    +0.000 A 
ENDBRANCH   8  10
BRANCH   6  20
ATOM     20  C   LIG    1       -1.694   3.059   2.018  0.00  0.00    +0.090 C 
BRANCH  20  21
ATOM     21  C   LIG    1       -3.182   3.028   1.785  0.00  0.00    -0.080 A 
ATOM     22  C   LIG    1       -3.926   4.186   1.915  0.00  0.00    +0.090 A 
ATOM     23  C   LIG    1       -5.290   4.160   1.697  0.00  0.00    -0.040 A 
ATOM     24  C   LIG    1       -5.914   2.971   1.358  0.00  0.00    +0.100 A 
ATOM     25  C   LIG    1       -5.168   1.810   1.233  0.00  0.00    -0.030 A 
ATOM     26  F   LIG    1       -7.248   2.943   1.149  0.00  0.00    -0.150 F 
ATOM     27  C   LIG    1       -3.803   1.840   1.447  0.00  0.00    +0.040 A 
ENDBRANCH  20  21
ENDBRANCH   6  20
BRANCH   6  28
ATOM     28  C   LIG    1       -1.464   4.685   0.118  0.00  0.00    +0.190 C 
BRANCH  28  29
ATOM     29  O   LIG    1       -2.879   4.631  -0.074  0.00  0.00    -0.550 OA
ATOM     30  H   LIG    1       -3.257   5.442  -0.441  0.00  0.00    +0.370 HD
ENDBRANCH  28  29
ENDBRANCH   6  28
TORSDOF 5
