REMARK  Name = ZINCpk00000FkLFO.0
REMARK                            x       y       z     vdW  Elec       q    Type
REMARK                         _______ _______ _______ _____ _____    ______ ____
ROOT
ATOM      1  C   LIG    1        3.463   3.557   0.002  0.00  0.00    +0.150 A 
ATOM      2  C   LIG    1        3.614   2.172  -0.004  0.00  0.00    +0.030 A 
ATOM      3  C   LIG    1        2.486   1.366   0.014  0.00  0.00    +0.200 A 
ATOM      4  C   LIG    1        1.240   1.987   0.037  0.00  0.00    -0.220 A 
ATOM      5  C   LIG    1       -0.015   1.212   0.057  0.00  0.00    +0.570 A 
ATOM      6  N   LIG    1       -1.183   1.891   0.072  0.00  0.00    -0.660 N 
ATOM      7  H   LIG    1       -2.019   1.400   0.082  0.00  0.00    +0.440 HD
ATOM      8  C   LIG    1       -1.206   3.233   0.081  0.00  0.00    +0.710 A 
ATOM      9  N   LIG    1       -0.092   3.983   0.064  0.00  0.00    -0.530 N 
ATOM     10  C   LIG    1       -0.204   5.444   0.069  0.00  0.00    +0.370 C 
ATOM     11  O   LIG    1       -2.284   3.795   0.101  0.00  0.00    -0.520 OA
ATOM     12  O   LIG    1        0.002  -0.003   0.053  0.00  0.00    -0.480 OA
ATOM     13  C   LIG    1        1.161   3.394   0.041  0.00  0.00    +0.410 A 
ATOM     14  N   LIG    1        2.262   4.120   0.024  0.00  0.00    -0.490 NA
ENDROOT
BRANCH   1  17
ATOM     15  N   LIG    1        4.540   5.761  -0.013  0.00  0.00    -0.640 N 
ATOM     16  H   LIG    1        3.659   6.163  -0.078  0.00  0.00    +0.430 HD
ATOM     17  C   LIG    1        4.670   4.420  -0.018  0.00  0.00    +0.570 C 
ATOM     18  O   LIG    1        5.776   3.917  -0.038  0.00  0.00    -0.490 OA
BRANCH  15  27
ATOM     19  C   LIG    1        4.394   8.401  -1.063  0.00  0.00    +0.110 C 
ATOM     20  C   LIG    1        5.646   7.870  -0.415  0.00  0.00    -0.090 A 
ATOM     21  C   LIG    1        6.766   8.673  -0.314  0.00  0.00    +0.050 A 
ATOM     22  C   LIG    1        7.918   8.185   0.277  0.00  0.00    +0.060 A 
ATOM     23  C   LIG    1        7.951   6.890   0.773  0.00  0.00    +0.090 A 
ATOM     24  C   LIG    1        6.830   6.085   0.677  0.00  0.00    +0.030 A 
ATOM     25  F   LIG    1        9.077   6.415   1.349  0.00  0.00    -0.120 F 
ATOM     26  F   LIG    1        9.014   8.970   0.370  0.00  0.00    -0.130 F 
ATOM     27  C   LIG    1        5.674   6.574   0.085  0.00  0.00    +0.160 A 
ENDBRANCH  15  27
ENDBRANCH   1  17
TORSDOF 2
