REMARK  Name = ZINC540000003Y31.0
REMARK                            x       y       z     vdW  Elec       q    Type
REMARK                         _______ _______ _______ _____ _____    ______ ____
ROOT
ATOM      1  C   LIG    1       -1.173   1.616   0.016  0.00  0.00    +0.770 C 
ENDROOT
BRANCH   1   2
ATOM      2  N   LIG    1       -2.318   0.934   0.018  0.00  0.00    -0.790 NA
ATOM      3  H   LIG    1       -3.164   1.408   0.025  0.00  0.00    +0.440 HD
ATOM      4  H   LIG    1       -2.305  -0.035   0.013  0.00  0.00    +0.450 HD
ENDBRANCH   1   2
BRANCH   1   5
ATOM      5  N   LIG    1       -0.011   0.966   0.007  0.00  0.00    -0.780 NA
ATOM      6  H   LIG    1        0.822   1.462   0.002  0.00  0.00    +0.450 HD
ATOM      7  H   LIG    1        0.002  -0.004   0.002  0.00  0.00    +0.440 HD
ENDBRANCH   1   5
BRANCH   1   8
ATOM      8  N   LIG    1       -1.192   2.984   0.024  0.00  0.00    -0.570 NA
ATOM      9  H   LIG    1       -2.039   3.457   0.030  0.00  0.00    +0.450 HD
BRANCH   8  10
ATOM     10  O   LIG    1        0.025   3.708   0.022  0.00  0.00    -0.300 OA
ATOM     11  H   LIG    1       -0.090   4.669   0.028  0.00  0.00    +0.430 HD
ENDBRANCH   8  10
ENDBRANCH   1   8
TORSDOF 4
