REMARK  Name = ZINCtV00001bB3HD.0
REMARK                            x       y       z     vdW  Elec       q    Type
REMARK                         _______ _______ _______ _____ _____    ______ ____
ROOT
ATOM      1  N   LIG    1        5.208   2.373  -1.462  0.00  0.00    -0.460 NA
ATOM      2  C   LIG    1        5.287   1.126  -1.869  0.00  0.00    +0.380 C 
ATOM      3  S   LIG    1        6.096   0.540  -3.332  0.00  0.00    +0.000 S 
ATOM      4  C   LIG    1        5.694  -1.164  -3.051  0.00  0.00    -0.230 C 
ATOM      5  C   LIG    1        4.937  -1.161  -1.793  0.00  0.00    +0.560 C 
ATOM      6  O   LIG    1        4.501  -2.181  -1.293  0.00  0.00    -0.470 OA
ATOM      7  C   LIG    1        6.019  -2.232  -3.822  0.00  0.00    +0.220 C 
ATOM      8  N   LIG    1        4.759   0.029  -1.245  0.00  0.00    -0.530 N 
ENDROOT
BRANCH   1  13
ATOM      9  C   LIG    1        7.472   6.504  -4.572  0.00  0.00    +0.090 C 
ATOM     10  C   LIG    1        6.867   5.401  -3.741  0.00  0.00    -0.080 A 
ATOM     11  C   LIG    1        6.014   4.485  -4.330  0.00  0.00    +0.020 A 
ATOM     12  C   LIG    1        5.462   3.470  -3.577  0.00  0.00    +0.000 A 
ATOM     13  C   LIG    1        5.756   3.374  -2.215  0.00  0.00    +0.090 A 
ATOM     14  C   LIG    1        6.619   4.303  -1.628  0.00  0.00    -0.060 A 
ATOM     15  C   LIG    1        6.948   4.205  -0.160  0.00  0.00    +0.110 C 
ATOM     16  C   LIG    1        7.168   5.310  -2.393  0.00  0.00    +0.020 A 
ENDBRANCH   1  13
BRANCH   7  17
ATOM     17  C   LIG    1        5.450  -3.554  -3.523  0.00  0.00    -0.070 A 
ATOM     18  C   LIG    1        4.114  -3.671  -3.124  0.00  0.00    +0.080 A 
ATOM     19  C   LIG    1        3.587  -4.915  -2.845  0.00  0.00    +0.040 A 
ATOM     20  C   LIG    1        4.375  -6.046  -2.960  0.00  0.00    +0.010 A 
ATOM     21  C   LIG    1        5.700  -5.940  -3.356  0.00  0.00    +0.090 A 
ATOM     22  F   LIG    1        6.461  -7.051  -3.466  0.00  0.00    -0.140 F 
ATOM     23  C   LIG    1        6.240  -4.703  -3.642  0.00  0.00    +0.020 A 
ENDBRANCH   7  17
BRANCH   8  24
ATOM     24  C   LIG    1        4.016   0.169   0.010  0.00  0.00    +0.410 C 
BRANCH  24  25
ATOM     25  C   LIG    1        2.555   0.381  -0.292  0.00  0.00    -0.220 A 
ATOM     26  C   LIG    1        1.648  -0.589  -0.421  0.00  0.00    +0.030 A 
ATOM     27  C   LIG    1        0.364  -0.153  -0.699  0.00  0.00    +0.000 A 
ATOM     28  C   LIG    1        0.228   1.171  -0.795  0.00  0.00    -0.040 A 
ATOM     29  S   LIG    1        1.785   1.945  -0.527  0.00  0.00    +0.140 S 
ENDBRANCH  24  25
ENDBRANCH   8  24
TORSDOF 4
