REMARK  Name = ZINCpe00000MJMBC.0
REMARK                            x       y       z     vdW  Elec       q    Type
REMARK                         _______ _______ _______ _____ _____    ______ ____
ROOT
ATOM      1  C   LIG    1       -0.017   1.425   0.010  0.00  0.00    +0.170 C 
ATOM      2  C   LIG    1       -0.661   1.960  -1.287  0.00  0.00    +0.260 C 
ATOM      3  N   LIG    1        0.483   2.228  -2.190  0.00  0.00    -0.620 N 
ATOM      4  C   LIG    1        1.522   2.803  -1.304  0.00  0.00    +0.300 C 
ATOM      5  C   LIG    1        0.561   1.999  -3.515  0.00  0.00    +0.520 C 
ATOM      6  O   LIG    1        1.577   2.275  -4.119  0.00  0.00    -0.510 OA
ATOM      7  C   LIG    1        1.422   1.981  -0.001  0.00  0.00    +0.110 C 
ENDROOT
BRANCH   7   8
ATOM      8  C   LIG    1        1.651   2.865   1.198  0.00  0.00    -0.010 A 
ATOM      9  C   LIG    1        1.350   4.180   1.304  0.00  0.00    +0.140 A 
ATOM     10  N   LIG    1        1.729   4.554   2.548  0.00  0.00    -0.290 N 
ATOM     11  N   LIG    1        2.224   3.527   3.145  0.00  0.00    -0.080 NA
ATOM     12  C   LIG    1        1.598   5.898   3.117  0.00  0.00    +0.370 C 
ATOM     13  N   LIG    1        2.186   2.502   2.369  0.00  0.00    -0.260 NA
ENDBRANCH   7   8
BRANCH   1  15
ATOM     14  C   LIG    1       -1.114  -0.604   0.662  0.00  0.00    +0.210 C 
ATOM     15  O   LIG    1        0.002  -0.004   0.002  0.00  0.00    -0.370 OA
ENDBRANCH   1  15
BRANCH   5  16
ATOM     16  C   LIG    1       -0.612   1.401  -4.248  0.00  0.00    +0.370 C 
BRANCH  16  17
ATOM     17  N   LIG    1       -0.279   1.253  -5.667  0.00  0.00    -0.400 N 
ATOM     18  N   LIG    1       -0.504   2.214  -6.658  0.00  0.00    -0.250 NA
ATOM     19  C   LIG    1       -0.092   1.773  -7.811  0.00  0.00    +0.280 A 
ATOM     20  C   LIG    1        0.441   0.429  -7.610  0.00  0.00    -0.180 A 
ATOM     21  C   LIG    1        1.010  -0.529  -8.456  0.00  0.00    +0.090 A 
ATOM     22  C   LIG    1        1.421  -1.725  -7.942  0.00  0.00    -0.030 A 
ATOM     23  C   LIG    1        1.279  -1.999  -6.588  0.00  0.00    +0.060 A 
ATOM     24  C   LIG    1        0.727  -1.080  -5.741  0.00  0.00    -0.020 A 
ATOM     25  C   LIG    1        0.299   0.149  -6.237  0.00  0.00    +0.140 A 
ENDBRANCH  16  17
ENDBRANCH   5  16
TORSDOF 4
