REMARK  Name = ZINCrD0000075GRY.0
REMARK                            x       y       z     vdW  Elec       q    Type
REMARK                         _______ _______ _______ _____ _____    ______ ____
ROOT
ATOM      1  O   LIG    1        2.264   0.680  -1.375  0.00  0.00    -0.520 OA
ATOM      2  C   LIG    1        1.690  -0.001  -2.203  0.00  0.00    +0.600 C 
ATOM      3  N   LIG    1        0.565   0.455  -2.788  0.00  0.00    -0.700 N 
ATOM      4  H   LIG    1        0.107  -0.087  -3.449  0.00  0.00    +0.410 HD
ENDROOT
BRANCH   2   5
ATOM      5  C   LIG    1        2.226  -1.324  -2.569  0.00  0.00    +0.000 A 
ATOM      6  C   LIG    1        3.361  -1.836  -2.011  0.00  0.00    -0.010 A 
ATOM      7  S   LIG    1        3.662  -3.380  -2.681  0.00  0.00    +0.280 S 
ATOM      8  C   LIG    1        2.224  -3.245  -3.687  0.00  0.00    +0.080 A 
ATOM      9  N   LIG    1        1.641  -2.108  -3.459  0.00  0.00    -0.390 NA
BRANCH   8  10
ATOM     10  C   LIG    1        1.751  -4.271  -4.641  0.00  0.00    +0.380 A 
ATOM     11  N   LIG    1        0.644  -4.046  -5.338  0.00  0.00    -0.480 NA
ATOM     12  C   LIG    1        0.197  -4.940  -6.203  0.00  0.00    +0.330 A 
ATOM     13  C   LIG    1        0.893  -6.128  -6.369  0.00  0.00    -0.060 A 
ATOM     14  C   LIG    1        2.043  -6.334  -5.620  0.00  0.00    +0.340 A 
ATOM     15  N   LIG    1        2.439  -5.397  -4.777  0.00  0.00    -0.510 NA
ENDBRANCH   8  10
ENDBRANCH   2   5
BRANCH   3  16
ATOM     16  C   LIG    1        0.032   1.771  -2.424  0.00  0.00    +0.300 C 
BRANCH  16  17
ATOM     17  C   LIG    1       -0.794   2.310  -3.563  0.00  0.00    -0.100 A 
ATOM     18  C   LIG    1       -1.619   1.463  -4.280  0.00  0.00    +0.050 A 
ATOM     19  C   LIG    1       -2.381   1.958  -5.322  0.00  0.00    -0.010 A 
ATOM     20  C   LIG    1       -2.310   3.300  -5.654  0.00  0.00    +0.100 A 
ATOM     21  C   LIG    1       -1.479   4.146  -4.939  0.00  0.00    -0.010 A 
ATOM     22  F   LIG    1       -3.050   3.784  -6.676  0.00  0.00    -0.140 F 
ATOM     23  C   LIG    1       -0.723   3.651  -3.895  0.00  0.00    +0.080 A 
ENDBRANCH  16  17
BRANCH  16  24
ATOM     24  C   LIG    1       -0.844   1.640  -1.177  0.00  0.00    +0.150 C 
ATOM     25  C   LIG    1       -0.013   1.086   0.008  0.00  0.00    +0.030 C 
ATOM     26  C   LIG    1       -0.823   1.628   1.217  0.00  0.00    -0.010 C 
ATOM     27  C   LIG    1       -1.334   2.985   0.686  0.00  0.00    +0.190 C 
ATOM     28  O   LIG    1       -1.297   2.933  -0.745  0.00  0.00    -0.370 OA
ENDBRANCH  16  24
ENDBRANCH   3  16
TORSDOF 5
