REMARK  Name = ZINCqH0000005g9Z.0
REMARK                            x       y       z     vdW  Elec       q    Type
REMARK                         _______ _______ _______ _____ _____    ______ ____
ROOT
ATOM      1  C   LIG    1       -1.542   3.678   2.311  0.00  0.00    +0.360 C 
ENDROOT
BRANCH   1   2
ATOM      2  C   LIG    1       -2.633   4.715   2.245  0.00  0.00    -0.090 A 
ATOM      3  C   LIG    1       -2.661   5.620   1.198  0.00  0.00    +0.040 A 
ATOM      4  C   LIG    1       -3.660   6.569   1.129  0.00  0.00    +0.040 A 
ATOM      5  C   LIG    1       -4.637   6.622   2.124  0.00  0.00    -0.130 A 
ATOM      6  C   LIG    1       -4.600   5.710   3.180  0.00  0.00    +0.080 A 
ATOM      7  C   LIG    1       -3.599   4.763   3.235  0.00  0.00    +0.020 A 
BRANCH   5   8
ATOM      8  C   LIG    1       -5.707   7.641   2.060  0.00  0.00    +0.560 C 
ATOM      9  N   LIG    1       -5.740   8.520   1.039  0.00  0.00    -0.700 N 
ATOM     10  H   LIG    1       -5.062   8.484   0.346  0.00  0.00    +0.400 HD
ATOM     11  O   LIG    1       -6.557   7.685   2.928  0.00  0.00    -0.530 OA
BRANCH   9  12
ATOM     12  C   LIG    1       -6.801   9.529   0.975  0.00  0.00    +0.220 C 
ATOM     13  C   LIG    1       -7.465   9.771  -0.382  0.00  0.00    +0.010 C 
ATOM     14  C   LIG    1       -6.507  10.814   0.199  0.00  0.00    +0.020 C 
ENDBRANCH   9  12
ENDBRANCH   5   8
ENDBRANCH   1   2
BRANCH   1  16
ATOM     15  C   LIG    1       -2.780   1.463   2.305  0.00  0.00    +0.310 C 
ATOM     16  N   LIG    1       -1.975   2.468   1.607  0.00  0.00    -0.990 NA
BRANCH  16  17
ATOM     17  S   LIG    1       -1.555   2.238   0.022  0.00  0.00    +2.690 S 
ATOM     18  O   LIG    1       -2.517   1.346  -0.523  0.00  0.00    -0.940 OA
ATOM     19  O   LIG    1       -1.298   3.527  -0.517  0.00  0.00    -0.940 OA
BRANCH  17  20
ATOM     20  C   LIG    1       -0.017   1.378   0.010  0.00  0.00    -0.660 A 
ATOM     21  C   LIG    1        1.171   2.086   0.002  0.00  0.00    +0.150 A 
ATOM     22  C   LIG    1        2.378   1.411  -0.013  0.00  0.00    -0.040 A 
ATOM     23  C   LIG    1        2.398   0.028  -0.021  0.00  0.00    +0.110 A 
ATOM     24  C   LIG    1        1.209  -0.680  -0.014  0.00  0.00    -0.040 A 
ATOM     25 CL   LIG    1        1.233  -2.416  -0.024  0.00  0.00    -0.040 Cl
ATOM     26 CL   LIG    1        3.869   2.300  -0.022  0.00  0.00    -0.040 Cl
ATOM     27  C   LIG    1        0.002  -0.004   0.002  0.00  0.00    +0.150 A 
ENDBRANCH  17  20
ENDBRANCH  16  17
ENDBRANCH   1  16
TORSDOF 6
