REMARK  Name = ZINCtV00001bB3k5.0
REMARK                            x       y       z     vdW  Elec       q    Type
REMARK                         _______ _______ _______ _____ _____    ______ ____
ROOT
ATOM      1  N   LIG    1        4.797  -1.248   0.548  0.00  0.00    -0.550 NA
ATOM      2  C   LIG    1        3.626  -0.886   0.090  0.00  0.00    +0.370 A 
ATOM      3  S   LIG    1        2.217  -1.921  -0.204  0.00  0.00    -0.030 S 
ATOM      4  C   LIG    1        1.185  -0.601  -0.783  0.00  0.00    -0.040 A 
ATOM      5  C   LIG    1        1.937   0.504  -0.723  0.00  0.00    +0.180 A 
ATOM      6  N   LIG    1        3.226   0.375  -0.272  0.00  0.00    -0.380 N 
ENDROOT
BRANCH   5   7
ATOM      7  C   LIG    1        1.400   1.818  -1.133  0.00  0.00    -0.050 A 
ATOM      8  C   LIG    1        1.601   2.939  -0.325  0.00  0.00    +0.060 A 
ATOM      9  C   LIG    1        1.099   4.163  -0.708  0.00  0.00    +0.020 A 
ATOM     10  C   LIG    1        0.391   4.283  -1.904  0.00  0.00    -0.030 A 
ATOM     11  C   LIG    1        0.191   3.164  -2.713  0.00  0.00    +0.020 A 
ATOM     12  C   LIG    1        0.691   1.940  -2.331  0.00  0.00    +0.040 A 
BRANCH  10  13
ATOM     13  C   LIG    1       -0.153   5.600  -2.314  0.00  0.00    -0.050 A 
ATOM     14  C   LIG    1        0.036   6.718  -1.502  0.00  0.00    +0.020 A 
ATOM     15  C   LIG    1       -0.468   7.943  -1.891  0.00  0.00    +0.010 A 
ATOM     16  C   LIG    1       -1.169   8.059  -3.078  0.00  0.00    +0.000 A 
ATOM     17  C   LIG    1       -1.365   6.952  -3.884  0.00  0.00    +0.010 A 
ATOM     18  C   LIG    1       -0.861   5.724  -3.508  0.00  0.00    +0.020 A 
ENDBRANCH  10  13
ENDBRANCH   5   7
BRANCH   6  19
ATOM     19  N   LIG    1        4.088   1.475  -0.180  0.00  0.00    -0.260 NA
ATOM     20  C   LIG    1        5.104   1.559  -0.954  0.00  0.00    +0.180 C 
ATOM     21  C   LIG    1        6.110   2.664  -0.761  0.00  0.00    +0.150 C 
BRANCH  20  22
ATOM     22  C   LIG    1        5.295   0.551  -2.058  0.00  0.00    +0.040 C 
BRANCH  22  23
ATOM     23  C   LIG    1        4.628   1.062  -3.336  0.00  0.00    +0.030 C 
BRANCH  23  24
ATOM     24  C   LIG    1        4.715  -0.012  -4.422  0.00  0.00    -0.020 C 
ATOM     25  C   LIG    1        6.180  -0.233  -4.804  0.00  0.00    +0.030 C 
ATOM     26  C   LIG    1        3.929   0.443  -5.654  0.00  0.00    +0.020 C 
ENDBRANCH  23  24
ENDBRANCH  22  23
ENDBRANCH  20  22
ENDBRANCH   6  19
BRANCH   1  27
ATOM     27  C   LIG    1        5.089  -2.666   0.774  0.00  0.00    +0.250 C 
BRANCH  27  29
ATOM     28  C   LIG    1        7.288  -3.647   0.371  0.00  0.00    +0.030 C 
ATOM     29  C   LIG    1        6.211  -3.098  -0.135  0.00  0.00    -0.040 C 
ENDBRANCH  27  29
ENDBRANCH   1  27
TORSDOF 8
