REMARK  Name = ZINCtV000002OKSD.0
REMARK                            x       y       z     vdW  Elec       q    Type
REMARK                         _______ _______ _______ _____ _____    ______ ____
ROOT
ATOM      1  O   LIG    1        0.029  -0.077   0.211  0.00  0.00    -0.490 OA
ATOM      2  C   LIG    1       -0.008   1.137   0.167  0.00  0.00    +0.560 C 
ATOM      3  N   LIG    1       -1.194   1.776   0.186  0.00  0.00    -0.620 N 
ATOM      4  H   LIG    1       -1.224   2.745   0.151  0.00  0.00    +0.430 HD
ENDROOT
BRANCH   3   5
ATOM      5  C   LIG    1       -2.371   1.049   0.255  0.00  0.00    +0.290 A 
ATOM      6  N   LIG    1       -3.555   1.561   0.283  0.00  0.00    -0.500 NA
ATOM      7  C   LIG    1       -4.598   0.728   0.346  0.00  0.00    +0.120 A 
ATOM      8  C   LIG    1       -4.230  -0.614   0.383  0.00  0.00    -0.220 A 
ATOM      9  C   LIG    1       -5.200  -1.624   0.454  0.00  0.00    +0.070 A 
ATOM     10  C   LIG    1       -6.525  -1.345   0.493  0.00  0.00    +0.050 A 
ATOM     11  C   LIG    1       -6.976  -0.011   0.459  0.00  0.00    -0.040 A 
ATOM     12  C   LIG    1       -8.347   0.293   0.497  0.00  0.00    +0.030 A 
ATOM     13  C   LIG    1       -8.748   1.595   0.463  0.00  0.00    +0.020 A 
ATOM     14  C   LIG    1       -7.820   2.630   0.391  0.00  0.00    +0.010 A 
ATOM     15  C   LIG    1       -6.482   2.368   0.352  0.00  0.00    +0.040 A 
ATOM     16  C   LIG    1       -6.038   1.042   0.386  0.00  0.00    -0.010 A 
ATOM     17  S   LIG    1       -2.470  -0.705   0.324  0.00  0.00    +0.210 S 
ENDBRANCH   3   5
BRANCH   2  18
ATOM     18  C   LIG    1        1.248   1.912   0.088  0.00  0.00    -0.120 A 
ATOM     19  C   LIG    1        1.208   3.306   0.032  0.00  0.00    +0.060 A 
ATOM     20  C   LIG    1        2.383   4.027  -0.037  0.00  0.00    +0.050 A 
ATOM     21  C   LIG    1        3.601   3.373  -0.062  0.00  0.00    +0.050 A 
ATOM     22  C   LIG    1        3.650   1.986  -0.013  0.00  0.00    +0.080 A 
ATOM     23  C   LIG    1        2.478   1.253   0.062  0.00  0.00    +0.080 A 
BRANCH  22  24
ATOM     24  O   LIG    1        4.850   1.348  -0.037  0.00  0.00    -0.250 OA
BRANCH  24  25
ATOM     25  C   LIG    1        5.153   0.601  -1.131  0.00  0.00    +0.110 A 
ATOM     26  C   LIG    1        4.306   0.602  -2.230  0.00  0.00    -0.060 A 
ATOM     27  C   LIG    1        4.619  -0.154  -3.343  0.00  0.00    +0.050 A 
ATOM     28  C   LIG    1        5.769  -0.921  -3.357  0.00  0.00    -0.020 A 
ATOM     29  C   LIG    1        6.612  -0.929  -2.261  0.00  0.00    +0.050 A 
ATOM     30  C   LIG    1        6.306  -0.170  -1.148  0.00  0.00    -0.010 A 
ENDBRANCH  24  25
ENDBRANCH  22  24
ENDBRANCH   2  18
TORSDOF 4
