REMARK  Name = ZINCrD00000hQ5q1.0
REMARK                            x       y       z     vdW  Elec       q    Type
REMARK                         _______ _______ _______ _____ _____    ______ ____
ROOT
ATOM      1  O   LIG    1       -1.248   2.808  -0.070  0.00  0.00    -0.550 OA
ATOM      2  C   LIG    1       -1.202   1.597   0.014  0.00  0.00    +0.650 C 
ATOM      3  N   LIG    1       -0.011   0.965   0.004  0.00  0.00    -0.650 N 
ATOM      4  H   LIG    1        0.024  -0.004   0.003  0.00  0.00    +0.420 HD
ENDROOT
BRANCH   3   5
ATOM      5  C   LIG    1        1.177   1.709  -0.012  0.00  0.00    +0.190 A 
ATOM      6  C   LIG    1        1.237   2.906  -0.712  0.00  0.00    +0.060 A 
ATOM      7  C   LIG    1        2.406   3.642  -0.722  0.00  0.00    +0.050 A 
ATOM      8  C   LIG    1        3.523   3.179  -0.043  0.00  0.00    +0.030 A 
ATOM      9  C   LIG    1        3.465   1.980   0.653  0.00  0.00    +0.090 A 
ATOM     10  C   LIG    1        2.295   1.246   0.668  0.00  0.00    +0.030 A 
BRANCH   8  11
ATOM     11  O   LIG    1        4.675   3.901  -0.058  0.00  0.00    -0.660 OA
BRANCH  11  12
ATOM     12  S   LIG    1        5.611   3.548  -1.204  0.00  0.00    +2.740 S 
ATOM     13  F   LIG    1        5.085   4.333  -2.508  0.00  0.00    -0.480 F 
ATOM     14  O   LIG    1        5.422   2.164  -1.466  0.00  0.00    -0.940 OA
ATOM     15  O   LIG    1        6.874   4.112  -0.879  0.00  0.00    -0.920 OA
ENDBRANCH  11  12
ENDBRANCH   8  11
ENDBRANCH   3   5
BRANCH   2  16
ATOM     16  O   LIG    1       -2.340   0.885   0.117  0.00  0.00    -0.360 OA
BRANCH  16  17
ATOM     17  C   LIG    1       -3.586   1.631   0.122  0.00  0.00    +0.260 C 
BRANCH  17  18
ATOM     18  C   LIG    1       -4.762   0.660   0.246  0.00  0.00    -0.010 C 
ATOM     19  C   LIG    1       -4.886  -0.197  -1.034  0.00  0.00    +0.040 C 
ATOM     20  C   LIG    1       -6.421  -0.286  -1.242  0.00  0.00    +0.180 C 
ATOM     21  N   LIG    1       -6.899   1.060  -0.835  0.00  0.00    -0.470 N 
ATOM     22  C   LIG    1       -6.088   1.437   0.343  0.00  0.00    +0.200 C 
BRANCH  21  23
ATOM     23  C   LIG    1       -8.259   1.034  -0.519  0.00  0.00    +0.100 A 
ATOM     24  C   LIG    1       -9.095   0.098  -1.115  0.00  0.00    -0.040 A 
ATOM     25  C   LIG    1      -10.438   0.072  -0.797  0.00  0.00    +0.030 A 
ATOM     26  C   LIG    1      -10.954   0.983   0.107  0.00  0.00    -0.030 A 
ATOM     27  C   LIG    1      -10.126   1.919   0.699  0.00  0.00    +0.030 A 
ATOM     28  C   LIG    1       -8.780   1.947   0.389  0.00  0.00    -0.040 A 
ENDBRANCH  21  23
ENDBRANCH  17  18
ENDBRANCH  16  17
ENDBRANCH   2  16
TORSDOF 7
