REMARK  Name = ZINCrD00000s2M3f.0
REMARK                            x       y       z     vdW  Elec       q    Type
REMARK                         _______ _______ _______ _____ _____    ______ ____
ROOT
ATOM      1  N   LIG    1       -2.551   7.959   2.813  0.00  0.00    -0.630 N 
ATOM      2  C   LIG    1       -1.415   8.401   3.633  0.00  0.00    +0.290 C 
ATOM      3  C   LIG    1       -0.347   7.302   3.630  0.00  0.00    +0.020 C 
ATOM      4  C   LIG    1        0.017   6.954   2.185  0.00  0.00    +0.030 C 
ATOM      5  C   LIG    1       -1.221   6.427   1.457  0.00  0.00    -0.040 C 
ATOM      6  C   LIG    1       -2.299   7.516   1.435  0.00  0.00    +0.310 C 
ENDROOT
BRANCH   1   9
ATOM      7  C   LIG    1       -4.485   9.682   1.627  0.00  0.00    +0.140 C 
ATOM      8  C   LIG    1       -4.803   8.776   2.788  0.00  0.00    -0.200 A 
ATOM      9  C   LIG    1       -3.829   7.960   3.327  0.00  0.00    +0.470 A 
ATOM     10  N   LIG    1       -4.158   7.149   4.376  0.00  0.00    -0.340 N 
ATOM     11  N   LIG    1       -3.437   6.219   5.136  0.00  0.00    -0.330 NA
ATOM     12  C   LIG    1       -4.263   5.726   6.025  0.00  0.00    +0.490 A 
ATOM     13  N   LIG    1       -5.457   6.291   5.886  0.00  0.00    -0.520 NA
ATOM     14  C   LIG    1       -5.427   7.161   4.882  0.00  0.00    +0.470 A 
ATOM     15  N   LIG    1       -6.362   7.957   4.351  0.00  0.00    -0.460 NA
ATOM     16  C   LIG    1       -6.086   8.750   3.335  0.00  0.00    +0.280 A 
ATOM     17 CL   LIG    1       -7.327   9.767   2.673  0.00  0.00    +0.020 Cl
ENDBRANCH   1   9
BRANCH   5  18
ATOM     18  C   LIG    1       -0.849   6.049   0.022  0.00  0.00    +0.310 C 
BRANCH  18  19
ATOM     19  N   LIG    1        0.096   4.929   0.042  0.00  0.00    -0.490 N 
ATOM     20  C   LIG    1        1.452   5.016  -0.012  0.00  0.00    +0.470 A 
ATOM     21  N   LIG    1        1.979   3.827   0.025  0.00  0.00    -0.490 NA
ATOM     22  C   LIG    1        0.995   2.895   0.106  0.00  0.00    +0.040 A 
ATOM     23  C   LIG    1        0.994   1.499   0.173  0.00  0.00    +0.070 A 
ATOM     24  C   LIG    1       -0.190   0.822   0.248  0.00  0.00    +0.000 A 
ATOM     25  C   LIG    1       -1.397   1.506   0.254  0.00  0.00    +0.030 A 
ATOM     26  C   LIG    1       -1.420   2.884   0.195  0.00  0.00    +0.010 A 
ATOM     27  C   LIG    1       -0.227   3.588   0.118  0.00  0.00    +0.050 A 
ENDBRANCH  18  19
ENDBRANCH   5  18
TORSDOF 3
