REMARK  Name = ZINCqH0000037BBJ.0
REMARK                            x       y       z     vdW  Elec       q    Type
REMARK                         _______ _______ _______ _____ _____    ______ ____
ROOT
ATOM      1  N   LIG    1        2.088   0.685  -0.306  0.00  0.00    -0.580 N 
ATOM      2  C   LIG    1        1.448   1.836  -0.002  0.00  0.00    +0.530 C 
ATOM      3  C   LIG    1       -0.018   1.484   0.010  0.00  0.00    +0.190 C 
ATOM      4  C   LIG    1       -0.681   1.800   1.367  0.00  0.00    +0.090 C 
ATOM      5  C   LIG    1       -1.781   0.715   1.453  0.00  0.00    -0.080 C 
ATOM      6  C   LIG    1       -1.317  -0.408   0.504  0.00  0.00    +0.340 C 
ATOM      7  C   LIG    1       -1.873   0.188   2.877  0.00  0.00    +0.060 C 
ATOM      8  C   LIG    1       -2.739  -1.075   2.914  0.00  0.00    +0.110 C 
ATOM      9  S   LIG    1       -4.422  -0.649   2.377  0.00  0.00    -0.250 S 
ATOM     10  C   LIG    1       -4.125   0.161   0.777  0.00  0.00    +0.110 C 
ATOM     11  C   LIG    1       -3.107   1.288   0.975  0.00  0.00    +0.060 C 
ATOM     12  N   LIG    1        0.002  -0.004   0.002  0.00  0.00    -0.630 N 
ATOM     13  O   LIG    1        1.945   2.920   0.214  0.00  0.00    -0.450 OA
ATOM     14  C   LIG    1        1.235  -0.348  -0.380  0.00  0.00    +0.740 C 
ATOM     15  O   LIG    1        1.546  -1.463  -0.751  0.00  0.00    -0.520 OA
ENDROOT
BRANCH   1  16
ATOM     16  C   LIG    1        3.533   0.579  -0.526  0.00  0.00    +0.450 C 
BRANCH  16  19
ATOM     17  C   LIG    1        4.143   3.326  -1.846  0.00  0.00    +0.130 C 
ATOM     18  C   LIG    1        4.098   1.990  -2.543  0.00  0.00    -0.140 A 
ATOM     19  C   LIG    1        3.836   0.800  -1.985  0.00  0.00    -0.010 A 
ATOM     20  O   LIG    1        3.889  -0.169  -2.916  0.00  0.00    -0.180 OA
ATOM     21  C   LIG    1        4.179   0.344  -4.129  0.00  0.00    +0.060 A 
ATOM     22  C   LIG    1        4.342  -0.217  -5.388  0.00  0.00    +0.020 A 
ATOM     23  C   LIG    1        4.650   0.587  -6.466  0.00  0.00    +0.050 A 
ATOM     24  C   LIG    1        4.801   1.956  -6.307  0.00  0.00    -0.010 A 
ATOM     25  C   LIG    1        4.644   2.533  -5.066  0.00  0.00    +0.060 A 
ATOM     26  C   LIG    1        4.332   1.732  -3.969  0.00  0.00    -0.130 A 
ENDBRANCH  16  19
ENDBRANCH   1  16
TORSDOF 2
