REMARK  Name = ZINCqH0000037AET.0
REMARK                            x       y       z     vdW  Elec       q    Type
REMARK                         _______ _______ _______ _____ _____    ______ ____
ROOT
ATOM      1  C   LIG    1        3.765   1.869   1.057  0.00  0.00    +0.180 C 
ATOM      2  C   LIG    1        3.551   3.233   0.453  0.00  0.00    +0.190 A 
ATOM      3  C   LIG    1        4.514   4.203   0.261  0.00  0.00    -0.290 A 
ATOM      4  C   LIG    1        3.873   5.318  -0.325  0.00  0.00    +0.310 A 
ATOM      5  N   LIG    1        2.611   5.027  -0.475  0.00  0.00    -0.280 NA
ATOM      6  N   LIG    1        2.385   3.730  -0.001  0.00  0.00    -0.320 N 
ENDROOT
BRANCH   6   7
ATOM      7  C   LIG    1        1.155   3.065   0.007  0.00  0.00    +0.390 A 
ATOM      8  C   LIG    1       -0.024   3.800   0.022  0.00  0.00    +0.000 A 
ATOM      9  C   LIG    1       -1.235   3.129   0.030  0.00  0.00    +0.160 A 
ATOM     10  C   LIG    1       -1.223   1.742   0.017  0.00  0.00    -0.250 A 
ATOM     11  C   LIG    1       -0.013   1.076   0.008  0.00  0.00    +0.380 A 
ATOM     12  N   LIG    1        1.125   1.742   0.001  0.00  0.00    -0.490 NA
BRANCH  10  13
ATOM     13  C   LIG    1       -2.517   0.969   0.019  0.00  0.00    +0.520 C 
ATOM     14  F   LIG    1       -3.261   1.302  -1.118  0.00  0.00    -0.170 F 
ATOM     15  F   LIG    1       -3.250   1.290   1.167  0.00  0.00    -0.170 F 
ATOM     16  F   LIG    1       -2.241  -0.403   0.011  0.00  0.00    -0.170 F 
ENDBRANCH  10  13
ENDBRANCH   6   7
BRANCH   3  17
ATOM     17  C   LIG    1        5.944   4.097   0.607  0.00  0.00    +0.600 C 
ATOM     18  N   LIG    1        6.774   5.131   0.366  0.00  0.00    -0.730 N 
ATOM     19  H   LIG    1        6.431   5.945  -0.035  0.00  0.00    +0.400 HD
ATOM     20  O   LIG    1        6.373   3.076   1.110  0.00  0.00    -0.540 OA
BRANCH  18  21
ATOM     21  C   LIG    1        8.194   5.026   0.711  0.00  0.00    +0.270 C 
BRANCH  21  22
ATOM     22  C   LIG    1        8.907   6.327   0.338  0.00  0.00    -0.010 C 
ATOM     23  C   LIG    1        8.871   6.511  -1.181  0.00  0.00    +0.020 C 
BRANCH  22  24
ATOM     24  C   LIG    1       10.361   6.266   0.810  0.00  0.00    -0.010 C 
ATOM     25  C   LIG    1       10.543   6.629   2.293  0.00  0.00    +0.010 C 
ATOM     26  C   LIG    1       11.813   7.386   1.871  0.00  0.00    +0.010 C 
ATOM     27  C   LIG    1       11.169   7.532   0.482  0.00  0.00    +0.020 C 
ENDBRANCH  22  24
ENDBRANCH  21  22
ENDBRANCH  18  21
ENDBRANCH   3  17
TORSDOF 6
