REMARK  Name = ZINCnE000001CNvN.1
REMARK                            x       y       z     vdW  Elec       q    Type
REMARK                         _______ _______ _______ _____ _____    ______ ____
ROOT
ATOM      1  C   LIG    1        1.212  -0.678  -0.008  0.00  0.00    +0.170 A 
ATOM      2  C   LIG    1        2.387   0.040  -0.190  0.00  0.00    -0.150 A 
ATOM      3  C   LIG    1        2.363   1.422  -0.177  0.00  0.00    +0.060 A 
ATOM      4  C   LIG    1        1.171   2.093   0.016  0.00  0.00    -0.180 A 
ATOM      5  C   LIG    1       -0.008   1.380   0.199  0.00  0.00    +0.290 A 
ATOM      6  C   LIG    1        0.013  -0.008   0.187  0.00  0.00    -0.060 A 
ENDROOT
BRANCH   1   8
ATOM      7  C   LIG    1        0.187  -2.766  -0.507  0.00  0.00    +0.510 C 
ATOM      8  N   LIG    1        1.238  -2.077  -0.021  0.00  0.00    -0.670 N 
ATOM      9  H   LIG    1        2.012  -2.551   0.321  0.00  0.00    +0.400 HD
ATOM     10  O   LIG    1       -0.740  -2.176  -1.021  0.00  0.00    -0.510 OA
BRANCH   7  12
ATOM     11  C   LIG    1       -1.132  -4.800  -1.034  0.00  0.00    +0.050 C 
ATOM     12  C   LIG    1        0.162  -4.270  -0.412  0.00  0.00    -0.090 C 
ATOM     13  C   LIG    1        0.231  -4.690   1.057  0.00  0.00    +0.050 C 
ATOM     14  C   LIG    1        1.363  -4.848  -1.164  0.00  0.00    +0.050 C 
ENDBRANCH   7  12
ENDBRANCH   1   8
BRANCH   5  15
ATOM     15  N   LIG    1       -1.213   2.059   0.389  0.00  0.00    -1.090 NA
BRANCH  15  16
ATOM     16  S   LIG    1       -1.238   3.715   0.403  0.00  0.00    +2.600 S 
ATOM     17  O   LIG    1       -0.895   4.133  -0.911  0.00  0.00    -1.030 OA
ATOM     18  O   LIG    1       -0.516   4.117   1.559  0.00  0.00    -1.030 OA
BRANCH  16  19
ATOM     19  C   LIG    1       -2.909   4.210   0.663  0.00  0.00    -0.610 A 
ATOM     20  C   LIG    1       -3.744   4.417  -0.418  0.00  0.00    +0.120 A 
ATOM     21  C   LIG    1       -5.056   4.801  -0.214  0.00  0.00    -0.020 A 
ATOM     22  C   LIG    1       -5.530   4.987   1.071  0.00  0.00    +0.030 A 
ATOM     23  C   LIG    1       -4.693   4.785   2.152  0.00  0.00    -0.020 A 
ATOM     24  C   LIG    1       -3.382   4.396   1.948  0.00  0.00    +0.110 A 
ENDBRANCH  16  19
ENDBRANCH  15  16
ENDBRANCH   5  15
TORSDOF 5
