REMARK  Name = ZINCrH000004sQWI.0
REMARK                            x       y       z     vdW  Elec       q    Type
REMARK                         _______ _______ _______ _____ _____    ______ ____
ROOT
ATOM      1  C   LIG    1       -1.743   8.701   0.701  0.00  0.00    +0.600 C 
ATOM      2  N   LIG    1       -3.018   8.450   0.341  0.00  0.00    -0.590 N 
ATOM      3  C   LIG    1       -3.566   7.087   0.404  0.00  0.00    +0.290 C 
ATOM      4  C   LIG    1       -4.212   6.755  -0.940  0.00  0.00    +0.170 C 
ATOM      5  N   LIG    1       -5.185   7.800  -1.286  0.00  0.00    -0.540 NA
ATOM      6  C   LIG    1       -4.528   9.103  -1.458  0.00  0.00    +0.180 C 
ATOM      7  C   LIG    1       -5.948   7.433  -2.486  0.00  0.00    +0.190 C 
ATOM      8  C   LIG    1       -3.896   9.532  -0.129  0.00  0.00    +0.280 C 
ATOM      9  O   LIG    1       -1.326   9.843   0.702  0.00  0.00    -0.500 OA
ENDROOT
BRANCH   1  12
ATOM     10  C   LIG    1        1.317   8.929   1.327  0.00  0.00    +0.210 C 
ATOM     11  C   LIG    1        0.476   7.679   1.366  0.00  0.00    +0.050 A 
ATOM     12  C   LIG    1       -0.855   7.591   1.091  0.00  0.00    -0.070 A 
ATOM     13  N   LIG    1       -1.212   6.289   1.239  0.00  0.00    -0.450 NA
ATOM     14  C   LIG    1       -0.152   5.608   1.596  0.00  0.00    +0.240 A 
ATOM     15  O   LIG    1        0.899   6.443   1.677  0.00  0.00    -0.190 OA
BRANCH  14  16
ATOM     16  C   LIG    1       -0.115   4.154   1.861  0.00  0.00    -0.030 A 
ATOM     17  C   LIG    1        1.082   3.539   2.230  0.00  0.00    +0.040 A 
ATOM     18  C   LIG    1        1.110   2.182   2.475  0.00  0.00    +0.010 A 
ATOM     19  C   LIG    1       -0.045   1.430   2.355  0.00  0.00    +0.030 A 
ATOM     20  C   LIG    1       -1.234   2.032   1.984  0.00  0.00    +0.010 A 
ATOM     21  C   LIG    1       -1.277   3.390   1.742  0.00  0.00    +0.070 A 
ENDBRANCH  14  16
ENDBRANCH   1  12
BRANCH   8  22
ATOM     22  C   LIG    1       -3.089  10.788  -0.331  0.00  0.00    -0.060 A 
ATOM     23  C   LIG    1       -2.046  10.802  -1.238  0.00  0.00    +0.030 A 
ATOM     24  C   LIG    1       -1.308  11.955  -1.426  0.00  0.00    -0.010 A 
ATOM     25  C   LIG    1       -1.607  13.093  -0.700  0.00  0.00    +0.000 A 
ATOM     26  C   LIG    1       -2.647  13.078   0.211  0.00  0.00    +0.000 A 
ATOM     27  C   LIG    1       -3.388  11.926   0.396  0.00  0.00    +0.010 A 
ENDBRANCH   8  22
TORSDOF 3
