REMARK  Name = ZINCrH00000tj13Y.0
REMARK                            x       y       z     vdW  Elec       q    Type
REMARK                         _______ _______ _______ _____ _____    ______ ____
ROOT
ATOM      1  C   LIG    1        1.983   0.831   0.733  0.00  0.00    +0.190 C 
ATOM      2  C   LIG    1        1.141  -0.423   0.386  0.00  0.00    +0.050 C 
ATOM      3  C   LIG    1       -0.311   0.077   0.558  0.00  0.00    +0.010 C 
ATOM      4  C   LIG    1       -0.228   1.609   0.421  0.00  0.00    +0.170 C 
ATOM      5  N   LIG    1        1.188   1.944   0.155  0.00  0.00    -0.490 NA
ENDROOT
BRANCH   1   9
ATOM      6  C   LIG    1        5.838   0.618  -1.106  0.00  0.00    +0.160 A 
ATOM      7  C   LIG    1        4.825   1.361  -1.694  0.00  0.00    -0.120 A 
ATOM      8  C   LIG    1        3.580   1.428  -1.097  0.00  0.00    +0.130 A 
ATOM      9  C   LIG    1        3.341   0.755   0.085  0.00  0.00    -0.140 A 
ATOM     10  C   LIG    1        4.353   0.014   0.679  0.00  0.00    +0.170 A 
ATOM     11  C   LIG    1        5.601  -0.059   0.080  0.00  0.00    -0.110 A 
BRANCH   6  13
ATOM     12  C   LIG    1        7.235   1.275  -2.914  0.00  0.00    +0.250 C 
ATOM     13  O   LIG    1        7.062   0.552  -1.693  0.00  0.00    -0.320 OA
ENDBRANCH   6  13
BRANCH  10  14
ATOM     14  O   LIG    1        4.119  -0.644   1.845  0.00  0.00    -0.310 OA
ATOM     15  C   LIG    1        5.206  -1.387   2.400  0.00  0.00    +0.240 C 
ENDBRANCH  10  14
ENDBRANCH   1   9
BRANCH   5  16
ATOM     16  C   LIG    1        1.550   3.226   0.775  0.00  0.00    +0.200 C 
BRANCH  16  17
ATOM     17  C   LIG    1        0.786   4.340   0.106  0.00  0.00    +0.520 C 
ATOM     18  N   LIG    1        0.871   5.597   0.586  0.00  0.00    -0.730 N 
ATOM     19  H   LIG    1        1.423   5.785   1.361  0.00  0.00    +0.400 HD
ATOM     20  O   LIG    1        0.096   4.106  -0.863  0.00  0.00    -0.520 OA
BRANCH  18  21
ATOM     21  C   LIG    1        0.128   6.680  -0.064  0.00  0.00    +0.290 C 
ATOM     22  C   LIG    1       -1.298   6.723   0.487  0.00  0.00    +0.040 C 
BRANCH  21  23
ATOM     23  C   LIG    1        0.813   7.994   0.212  0.00  0.00    -0.090 A 
ATOM     24  C   LIG    1        1.335   8.251   1.466  0.00  0.00    +0.000 A 
ATOM     25  C   LIG    1        1.967   9.455   1.718  0.00  0.00    +0.000 A 
ATOM     26  C   LIG    1        2.067  10.405   0.719  0.00  0.00    +0.000 A 
ATOM     27  C   LIG    1        1.540  10.150  -0.533  0.00  0.00    +0.020 A 
ATOM     28  C   LIG    1        0.913   8.945  -0.786  0.00  0.00    +0.010 A 
ENDBRANCH  21  23
ENDBRANCH  18  21
ENDBRANCH  16  17
ENDBRANCH   5  16
TORSDOF 7
