REMARK  Name = ZINCpe000000Yk36.0
REMARK                            x       y       z     vdW  Elec       q    Type
REMARK                         _______ _______ _______ _____ _____    ______ ____
ROOT
ATOM      1  C   LIG    1       -0.156  -5.784  -1.455  0.00  0.00    +0.520 C 
ATOM      2  N   LIG    1       -0.819  -6.008  -2.607  0.00  0.00    -0.640 N 
ATOM      3  H   LIG    1       -1.433  -5.341  -2.950  0.00  0.00    +0.410 HD
ATOM      4  O   LIG    1        0.613  -6.619  -1.025  0.00  0.00    -0.520 OA
ENDROOT
BRANCH   1  11
ATOM      5  C   LIG    1       -0.018   1.461   0.010  0.00  0.00    +0.350 C 
ATOM      6  N   LIG    1        0.002  -0.004   0.002  0.00  0.00    -0.380 N 
ATOM      7  C   LIG    1        0.023  -0.805   1.091  0.00  0.00    +0.230 A 
ATOM      8  C   LIG    1        0.037  -2.079   0.660  0.00  0.00    -0.240 A 
ATOM      9  C   LIG    1        0.068  -3.345   1.481  0.00  0.00    +0.110 C 
ATOM     10  C   LIG    1        0.492  -4.500   0.565  0.00  0.00    +0.050 C 
ATOM     11  C   LIG    1       -0.369  -4.497  -0.701  0.00  0.00    +0.010 C 
ATOM     12  C   LIG    1        0.025  -3.312  -1.592  0.00  0.00    +0.150 C 
ATOM     13  C   LIG    1        0.022  -2.063  -0.745  0.00  0.00    +0.080 A 
ATOM     14  N   LIG    1       -0.004  -0.823  -1.137  0.00  0.00    -0.290 NA
ENDBRANCH   1  11
BRANCH   2  15
ATOM     15  C   LIG    1       -0.620  -7.211  -3.311  0.00  0.00    +0.010 A 
ATOM     16  C   LIG    1       -1.224  -7.565  -4.474  0.00  0.00    +0.190 A 
ATOM     17  N   LIG    1       -0.758  -8.793  -4.819  0.00  0.00    -0.370 N 
ATOM     18  N   LIG    1        0.150  -9.202  -3.834  0.00  0.00    -0.280 NA
ATOM     19  C   LIG    1        0.233  -8.258  -2.933  0.00  0.00    +0.270 A 
BRANCH  17  20
ATOM     20  C   LIG    1       -1.141  -9.558  -6.009  0.00  0.00    +0.280 C 
ATOM     21  C   LIG    1       -2.432 -10.336  -5.726  0.00  0.00    +0.030 C 
ATOM     22  C   LIG    1       -2.711 -11.259  -6.914  0.00  0.00    +0.090 C 
ATOM     23  C   LIG    1       -2.598 -10.491  -8.199  0.00  0.00    +0.520 C 
ATOM     24  N   LIG    1       -1.984  -9.311  -8.301  0.00  0.00    -0.720 N 
ATOM     25  H   LIG    1       -1.930  -8.900  -9.178  0.00  0.00    +0.410 HD
ATOM     26  O   LIG    1       -3.093 -10.968  -9.199  0.00  0.00    -0.550 OA
ATOM     27  C   LIG    1       -1.388  -8.601  -7.176  0.00  0.00    +0.270 C 
ENDBRANCH  17  20
ENDBRANCH   2  15
TORSDOF 3
