REMARK  Name = ZINCrH000004nA6r.0
REMARK                            x       y       z     vdW  Elec       q    Type
REMARK                         _______ _______ _______ _____ _____    ______ ____
ROOT
ATOM      1  C   LIG    1        3.551  -0.115  -0.850  0.00  0.00    -0.180 A 
ATOM      2  C   LIG    1        3.373   0.516   0.390  0.00  0.00    +0.220 A 
ATOM      3  C   LIG    1        4.529   0.803   1.156  0.00  0.00    -0.140 A 
ATOM      4  C   LIG    1        4.435   1.426   2.407  0.00  0.00    +0.030 A 
ATOM      5  C   LIG    1        5.569   1.687   3.118  0.00  0.00    +0.020 A 
ATOM      6  C   LIG    1        6.819   1.343   2.614  0.00  0.00    +0.040 A 
ATOM      7  C   LIG    1        6.945   0.736   1.400  0.00  0.00    +0.040 A 
ATOM      8  C   LIG    1        5.799   0.451   0.640  0.00  0.00    +0.150 A 
ATOM      9  N   LIG    1        5.901  -0.146  -0.556  0.00  0.00    -0.480 NA
ATOM     10  C   LIG    1        4.850  -0.423  -1.284  0.00  0.00    +0.330 A 
ENDROOT
BRANCH   2  11
ATOM     11  N   LIG    1        2.116   0.839   0.850  0.00  0.00    -0.470 N 
ATOM     12  C   LIG    1        1.864   0.232   2.175  0.00  0.00    +0.180 C 
ATOM     13  C   LIG    1        0.968   1.256   2.915  0.00  0.00    +0.030 C 
ATOM     14  C   LIG    1        1.562   2.603   2.426  0.00  0.00    +0.010 C 
ATOM     15  C   LIG    1        1.955   2.300   0.965  0.00  0.00    +0.200 C 
ENDBRANCH   2  11
BRANCH   1  18
ATOM     16  N   LIG    1        2.557  -1.142  -2.832  0.00  0.00    -0.720 N 
ATOM     17  H   LIG    1        3.445  -1.426  -3.099  0.00  0.00    +0.400 HD
ATOM     18  C   LIG    1        2.388  -0.445  -1.690  0.00  0.00    +0.560 C 
ATOM     19  O   LIG    1        1.274  -0.089  -1.355  0.00  0.00    -0.500 OA
BRANCH  16  20
ATOM     20  C   LIG    1        1.400  -1.471  -3.668  0.00  0.00    +0.340 C 
BRANCH  20  26
ATOM     21  C   LIG    1        2.127  -3.605  -4.766  0.00  0.00    +0.140 A 
ATOM     22  C   LIG    1        2.542  -4.319  -5.881  0.00  0.00    -0.080 A 
ATOM     23  C   LIG    1        2.697  -3.675  -7.094  0.00  0.00    +0.060 A 
ATOM     24  C   LIG    1        2.434  -2.322  -7.198  0.00  0.00    -0.030 A 
ATOM     25  C   LIG    1        2.014  -1.609  -6.090  0.00  0.00    +0.070 A 
ATOM     26  C   LIG    1        1.857  -2.248  -4.875  0.00  0.00    -0.140 A 
BRANCH  21  28
ATOM     27  C   LIG    1        2.274  -5.632  -3.533  0.00  0.00    +0.250 C 
ATOM     28  O   LIG    1        1.979  -4.234  -3.571  0.00  0.00    -0.310 OA
ENDBRANCH  21  28
ENDBRANCH  20  26
ENDBRANCH  16  20
ENDBRANCH   1  18
TORSDOF 5
