REMARK  Name = ZINCqH0000033olk.0
REMARK                            x       y       z     vdW  Elec       q    Type
REMARK                         _______ _______ _______ _____ _____    ______ ____
ROOT
ATOM      1  C   LIG    1       -2.683   5.239  -1.907  0.00  0.00    +0.580 C 
ATOM      2  N   LIG    1       -2.732   3.974  -1.443  0.00  0.00    -0.610 N 
ATOM      3  C   LIG    1       -3.224   2.896  -2.304  0.00  0.00    +0.300 C 
ATOM      4  O   LIG    1       -2.156   6.110  -1.244  0.00  0.00    -0.530 OA
ENDROOT
BRANCH   1   8
ATOM      5  C   LIG    1       -4.398   6.104  -5.639  0.00  0.00    +0.440 A 
ATOM      6  N   LIG    1       -4.749   5.015  -4.970  0.00  0.00    -0.530 NA
ATOM      7  C   LIG    1       -4.223   4.724  -3.798  0.00  0.00    +0.360 A 
ATOM      8  C   LIG    1       -3.271   5.565  -3.220  0.00  0.00    -0.250 A 
ATOM      9  C   LIG    1       -2.885   6.729  -3.904  0.00  0.00    +0.190 A 
ATOM     10  C   LIG    1       -3.451   6.989  -5.123  0.00  0.00    -0.170 A 
ATOM     11 CL   LIG    1       -3.003   8.410  -6.013  0.00  0.00    -0.050 Cl
BRANCH   5  12
ATOM     12  N   LIG    1       -4.979   6.367  -6.869  0.00  0.00    -0.710 N 
ATOM     13  H   LIG    1       -4.727   7.162  -7.365  0.00  0.00    +0.410 HD
BRANCH  12  15
ATOM     14  C   LIG    1       -6.453   5.963  -8.779  0.00  0.00    +0.030 C 
ATOM     15  C   LIG    1       -5.974   5.444  -7.422  0.00  0.00    +0.260 C 
ENDBRANCH  12  15
ENDBRANCH   5  12
ENDBRANCH   1   8
BRANCH   2  16
ATOM     16  C   LIG    1       -2.291   3.678  -0.077  0.00  0.00    +0.360 C 
BRANCH  16  17
ATOM     17  C   LIG    1       -0.820   3.352  -0.083  0.00  0.00    -0.090 A 
ATOM     18  C   LIG    1       -0.404   2.046  -0.259  0.00  0.00    +0.060 A 
ATOM     19  C   LIG    1        0.945   1.741  -0.259  0.00  0.00    +0.070 A 
ATOM     20  C   LIG    1        1.883   2.747  -0.093  0.00  0.00    +0.030 A 
ATOM     21  O   LIG    1        3.247   2.716  -0.061  0.00  0.00    -0.290 OA
ATOM     22  C   LIG    1        3.646   3.962   0.539  0.00  0.00    +0.570 C 
ATOM     23  O   LIG    1        2.565   4.858   0.218  0.00  0.00    -0.280 OA
ATOM     24  F   LIG    1        4.846   4.415  -0.020  0.00  0.00    -0.120 F 
ATOM     25  F   LIG    1        3.773   3.822   1.925  0.00  0.00    -0.150 F 
ATOM     26  C   LIG    1        1.464   4.064   0.078  0.00  0.00    +0.020 A 
ATOM     27  C   LIG    1        0.111   4.362   0.083  0.00  0.00    +0.090 A 
ENDBRANCH  16  17
ENDBRANCH   2  16
TORSDOF 5
