REMARK  Name = ZINCtV00000L6l54.0
REMARK                            x       y       z     vdW  Elec       q    Type
REMARK                         _______ _______ _______ _____ _____    ______ ____
ROOT
ATOM      1  C   LIG    1       -0.010   1.354   0.128  0.00  0.00    +0.190 A 
ATOM      2  N   LIG    1        1.211   1.807  -0.034  0.00  0.00    -0.470 NA
ATOM      3  C   LIG    1        2.065   0.772  -0.157  0.00  0.00    +0.070 A 
ATOM      4  C   LIG    1        1.328  -0.393  -0.066  0.00  0.00    +0.040 A 
ATOM      5  N   LIG    1        0.013  -0.008   0.115  0.00  0.00    -0.540 N 
ATOM      6  H   LIG    1       -0.751  -0.597   0.213  0.00  0.00    +0.430 HD
ENDROOT
BRANCH   4   7
ATOM      7  C   LIG    1        1.843  -1.773  -0.146  0.00  0.00    -0.020 A 
ATOM      8  C   LIG    1        2.969  -2.146   0.593  0.00  0.00    +0.050 A 
ATOM      9  C   LIG    1        3.442  -3.439   0.518  0.00  0.00    +0.010 A 
ATOM     10  C   LIG    1        2.810  -4.364  -0.296  0.00  0.00    +0.020 A 
ATOM     11  C   LIG    1        1.698  -4.000  -1.034  0.00  0.00    +0.010 A 
ATOM     12  C   LIG    1        1.211  -2.712  -0.965  0.00  0.00    +0.010 A 
ENDBRANCH   4   7
BRANCH   3  13
ATOM     13  C   LIG    1        3.530   0.867  -0.354  0.00  0.00    -0.010 A 
ATOM     14  C   LIG    1        4.274   1.803   0.364  0.00  0.00    +0.030 A 
ATOM     15  C   LIG    1        5.639   1.882   0.180  0.00  0.00    +0.000 A 
ATOM     16  C   LIG    1        6.268   1.044  -0.722  0.00  0.00    +0.000 A 
ATOM     17  C   LIG    1        5.535   0.117  -1.442  0.00  0.00    +0.000 A 
ATOM     18  C   LIG    1        4.170   0.024  -1.263  0.00  0.00    +0.020 A 
ENDBRANCH   3  13
BRANCH   1  19
ATOM     19  S   LIG    1       -1.451   2.349   0.324  0.00  0.00    +0.040 S 
BRANCH  19  20
ATOM     20  C   LIG    1       -0.708   3.998   0.239  0.00  0.00    +0.100 C 
BRANCH  20  21
ATOM     21  C   LIG    1       -1.785   5.042   0.387  0.00  0.00    +0.420 C 
ATOM     22  O   LIG    1       -2.940   4.705   0.536  0.00  0.00    -0.440 OA
BRANCH  21  26
ATOM     23  C   LIG    1       -0.773   9.160   0.287  0.00  0.00    -0.040 A 
ATOM     24  C   LIG    1       -2.093   8.779   0.456  0.00  0.00    +0.000 A 
ATOM     25  C   LIG    1       -2.430   7.442   0.490  0.00  0.00    +0.090 A 
ATOM     26  C   LIG    1       -1.434   6.471   0.352  0.00  0.00    -0.170 A 
ATOM     27  C   LIG    1       -0.102   6.863   0.187  0.00  0.00    +0.060 A 
ATOM     28  C   LIG    1        0.218   8.204   0.150  0.00  0.00    +0.000 A 
BRANCH  23  30
ATOM     29  C   LIG    1       -0.105  11.107   1.669  0.00  0.00    +0.030 C 
ATOM     30  C   LIG    1       -0.414  10.623   0.251  0.00  0.00    +0.070 C 
ENDBRANCH  23  30
ENDBRANCH  21  26
ENDBRANCH  20  21
ENDBRANCH  19  20
ENDBRANCH   1  19
TORSDOF 7
