REMARK  Name = ZINCvU0000000BBS.0
REMARK                            x       y       z     vdW  Elec       q    Type
REMARK                         _______ _______ _______ _____ _____    ______ ____
ROOT
ATOM      1  C   LIG    1       -4.859   0.954   0.049  0.00  0.00    +0.100 A 
ATOM      2  C   LIG    1       -3.676   1.665   0.049  0.00  0.00    -0.010 A 
ATOM      3  C   LIG    1       -2.454   0.984   0.032  0.00  0.00    -0.080 A 
ATOM      4  C   LIG    1       -2.438  -0.415   0.028  0.00  0.00    +0.040 A 
ATOM      5  C   LIG    1       -3.623  -1.118   0.035  0.00  0.00    -0.040 A 
ATOM      6  C   LIG    1       -4.835  -0.441   0.046  0.00  0.00    +0.120 A 
ENDROOT
BRANCH   1   8
ATOM      7  C   LIG    1       -6.000   3.041   0.063  0.00  0.00    +0.240 C 
ATOM      8  O   LIG    1       -6.049   1.613   0.060  0.00  0.00    -0.300 OA
ENDBRANCH   1   8
BRANCH   3   9
ATOM      9  C   LIG    1       -1.191   1.736   0.024  0.00  0.00    +0.130 C 
ATOM     10  C   LIG    1       -0.013   1.076   0.013  0.00  0.00    -0.090 C 
BRANCH  10  11
ATOM     11  C   LIG    1        1.244   1.824   0.000  0.00  0.00    +0.550 C 
ATOM     12  N   LIG    1        2.419   1.170   0.087  0.00  0.00    -0.610 N 
ATOM     13  C   LIG    1        2.466  -0.301   0.087  0.00  0.00    +0.260 C 
ATOM     14  C   LIG    1        3.253  -0.782   1.303  0.00  0.00    +0.010 C 
ATOM     15  C   LIG    1        4.625  -0.102   1.335  0.00  0.00    +0.020 C 
ATOM     16  C   LIG    1        4.434   1.411   1.433  0.00  0.00    -0.030 C 
ATOM     17  C   LIG    1        5.784   2.122   1.517  0.00  0.00    +0.020 C 
ATOM     18  C   LIG    1        5.546   3.630   1.639  0.00  0.00    +0.000 C 
ATOM     19  C   LIG    1        4.768   4.134   0.424  0.00  0.00    -0.010 C 
ATOM     20  C   LIG    1        3.426   3.404   0.325  0.00  0.00    +0.050 C 
ATOM     21  C   LIG    1        3.684   1.904   0.190  0.00  0.00    +0.220 C 
ATOM     22  O   LIG    1        1.229   3.038  -0.090  0.00  0.00    -0.540 OA
ENDBRANCH  10  11
ENDBRANCH   3   9
BRANCH   6  23
ATOM     23  O   LIG    1       -6.000  -1.138   0.053  0.00  0.00    -0.290 OA
BRANCH  23  24
ATOM     24  C   LIG    1       -5.903  -2.564   0.048  0.00  0.00    +0.300 C 
BRANCH  24  25
ATOM     25  C   LIG    1       -7.286  -3.162   0.057  0.00  0.00    -0.220 A 
ATOM     26  C   LIG    1       -8.059  -3.490  -1.006  0.00  0.00    +0.010 A 
ATOM     27  O   LIG    1       -9.200  -3.987  -0.506  0.00  0.00    +0.100 OA
ATOM     28  N   LIG    1       -9.191  -3.991   0.704  0.00  0.00    -0.360 NA
ATOM     29  C   LIG    1       -7.708  -3.329  -2.462  0.00  0.00    +0.190 C 
ATOM     30  C   LIG    1       -8.074  -3.516   1.176  0.00  0.00    +0.040 A 
ATOM     31  C   LIG    1       -7.698  -3.370   2.628  0.00  0.00    +0.160 C 
ENDBRANCH  24  25
ENDBRANCH  23  24
ENDBRANCH   6  23
TORSDOF 6
