REMARK  Name = ZINCpk00000xXtT7.0
REMARK                            x       y       z     vdW  Elec       q    Type
REMARK                         _______ _______ _______ _____ _____    ______ ____
ROOT
ATOM      1  C   LIG    1        1.418   1.954  -0.001  0.00  0.00    +0.190 C 
ATOM      2  C   LIG    1        1.399   3.481  -0.116  0.00  0.00    +0.210 C 
ATOM      3  N   LIG    1        2.777   3.990  -0.048  0.00  0.00    -0.430 N 
ATOM      4  C   LIG    1        3.420   3.586   1.212  0.00  0.00    +0.200 C 
ATOM      5  C   LIG    1        3.418   2.059   1.312  0.00  0.00    +0.120 C 
ATOM      6  C   LIG    1        4.255   1.471   0.174  0.00  0.00    +0.040 C 
ATOM      7  C   LIG    1        4.014   1.635   2.657  0.00  0.00    +0.070 C 
ATOM      8  O   LIG    1        2.074   1.580   1.213  0.00  0.00    -0.360 OA
ENDROOT
BRANCH   3   9
ATOM      9  C   LIG    1        2.806   5.369  -0.202  0.00  0.00    +0.350 A 
ATOM     10  N   LIG    1        3.324   6.231   0.632  0.00  0.00    -0.410 NA
ATOM     11  O   LIG    1        3.187   7.358   0.206  0.00  0.00    +0.080 OA
ATOM     12  C   LIG    1        2.553   7.328  -0.971  0.00  0.00    +0.210 A 
ATOM     13  N   LIG    1        2.309   6.069  -1.244  0.00  0.00    -0.480 NA
BRANCH  12  14
ATOM     14  C   LIG    1        2.192   8.516  -1.824  0.00  0.00    +0.030 C 
ATOM     15  C   LIG    1        2.870   8.388  -3.190  0.00  0.00    +0.070 C 
ATOM     16  C   LIG    1        2.664   9.799  -1.139  0.00  0.00    +0.070 C 
ATOM     17  C   LIG    1        0.674   8.566  -2.012  0.00  0.00    +0.070 C 
ENDBRANCH  12  14
ENDBRANCH   3   9
BRANCH   1  18
ATOM     18  C   LIG    1       -0.017   1.425   0.010  0.00  0.00    +0.200 C 
BRANCH  18  19
ATOM     19  O   LIG    1        0.002  -0.004   0.002  0.00  0.00    -0.350 OA
BRANCH  19  20
ATOM     20  C   LIG    1       -1.295  -0.603   0.011  0.00  0.00    +0.210 C 
BRANCH  20  23
ATOM     21  C   LIG    1       -2.120  -4.341  -0.001  0.00  0.00    +0.290 C 
ATOM     22  N   LIG    1       -2.256  -2.882   0.008  0.00  0.00    -0.620 N 
ATOM     23  C   LIG    1       -1.156  -2.103   0.002  0.00  0.00    +0.510 C 
ATOM     24  O   LIG    1       -0.054  -2.610  -0.011  0.00  0.00    -0.510 OA
ATOM     25  C   LIG    1       -3.587  -2.271   0.024  0.00  0.00    +0.280 C 
ENDBRANCH  20  23
ENDBRANCH  19  20
ENDBRANCH  18  19
ENDBRANCH   1  18
TORSDOF 6
