REMARK  Name = ZINCrg000000pw5t.0
REMARK                            x       y       z     vdW  Elec       q    Type
REMARK                         _______ _______ _______ _____ _____    ______ ____
ROOT
ATOM      1  C   LIG    1        0.148   5.950  -0.338  0.00  0.00    +0.320 C 
ENDROOT
BRANCH   1   2
ATOM      2  C   LIG    1       -0.543   4.931   0.530  0.00  0.00    -0.110 A 
ATOM      3  C   LIG    1       -1.350   5.347   1.573  0.00  0.00    +0.020 A 
ATOM      4  C   LIG    1       -1.986   4.415   2.373  0.00  0.00    -0.030 A 
ATOM      5  C   LIG    1       -1.815   3.062   2.130  0.00  0.00    +0.110 A 
ATOM      6  C   LIG    1       -1.004   2.643   1.079  0.00  0.00    +0.100 A 
ATOM      7  C   LIG    1       -0.365   3.581   0.285  0.00  0.00    +0.020 A 
BRANCH   6   8
ATOM      8  O   LIG    1       -0.834   1.316   0.837  0.00  0.00    -0.310 OA
ATOM      9  C   LIG    1        0.013   0.960  -0.258  0.00  0.00    +0.250 C 
ENDBRANCH   6   8
BRANCH   5  10
ATOM     10  O   LIG    1       -2.440   2.145   2.916  0.00  0.00    -0.310 OA
ATOM     11  C   LIG    1       -3.257   2.647   3.975  0.00  0.00    +0.250 C 
ENDBRANCH   5  10
ENDBRANCH   1   2
BRANCH   1  12
ATOM     12  N   LIG    1        0.640   7.049   0.496  0.00  0.00    -0.700 N 
ATOM     13  H   LIG    1        0.205   7.249   1.340  0.00  0.00    +0.410 HD
ATOM     14  C   LIG    1        1.696   7.783   0.091  0.00  0.00    +0.580 C 
ATOM     15  O   LIG    1        2.297   7.476  -0.921  0.00  0.00    -0.510 OA
BRANCH  14  16
ATOM     16  C   LIG    1        2.120   8.951   0.871  0.00  0.00    +0.080 C 
ATOM     17  N   LIG    1        1.470   9.273   1.946  0.00  0.00    -0.200 NA
ATOM     18  N   LIG    1        1.847  10.377   2.716  0.00  0.00    -0.460 N 
ATOM     19  C   LIG    1        2.614  11.349   2.183  0.00  0.00    +0.500 C 
ATOM     20  C   LIG    1        3.075  11.237   0.752  0.00  0.00    +0.090 C 
ATOM     21  O   LIG    1        2.931  12.309   2.852  0.00  0.00    -0.510 OA
ATOM     22  C   LIG    1        1.403  10.482   4.108  0.00  0.00    +0.340 C 
ATOM     23  C   LIG    1        3.301   9.763   0.410  0.00  0.00    +0.110 C 
ENDBRANCH  14  16
ENDBRANCH   1  12
BRANCH   1  24
ATOM     24  C   LIG    1       -0.840   6.496  -1.370  0.00  0.00    +0.100 C 
BRANCH  24  25
ATOM     25  C   LIG    1       -1.222   5.398  -2.330  0.00  0.00    +0.470 C 
ATOM     26  O   LIG    1       -0.662   4.329  -2.278  0.00  0.00    -0.500 OA
BRANCH  25  28
ATOM     27  C   LIG    1       -2.500   4.507  -4.133  0.00  0.00    +0.260 C 
ATOM     28  O   LIG    1       -2.184   5.609  -3.242  0.00  0.00    -0.360 OA
ENDBRANCH  25  28
ENDBRANCH  24  25
ENDBRANCH   1  24
TORSDOF 8
