REMARK  Name = ZINCrH000004tM9A.0
REMARK                            x       y       z     vdW  Elec       q    Type
REMARK                         _______ _______ _______ _____ _____    ______ ____
ROOT
ATOM      1  N   LIG    1       -2.461   0.983   0.077  0.00  0.00    -0.470 NA
ATOM      2  C   LIG    1       -3.591   1.775   0.630  0.00  0.00    +0.180 C 
ATOM      3  C   LIG    1       -2.953   2.654   1.726  0.00  0.00    +0.040 C 
ATOM      4  C   LIG    1       -1.465   2.766   1.335  0.00  0.00    +0.040 C 
ATOM      5  C   LIG    1       -1.329   1.945   0.035  0.00  0.00    +0.130 C 
ENDROOT
BRANCH   5   6
ATOM      6  C   LIG    1       -0.015   1.209   0.012  0.00  0.00    +0.520 C 
ATOM      7  N   LIG    1        1.143   1.898   0.001  0.00  0.00    -0.670 N 
ATOM      8  H   LIG    1        1.131   2.866  -0.069  0.00  0.00    +0.410 HD
ATOM      9  O   LIG    1        0.002  -0.004  -0.001  0.00  0.00    -0.490 OA
BRANCH   7  10
ATOM     10  C   LIG    1        2.364   1.218   0.092  0.00  0.00    +0.170 A 
ATOM     11  C   LIG    1        2.420  -0.033   0.690  0.00  0.00    +0.060 A 
ATOM     12  C   LIG    1        3.626  -0.702   0.778  0.00  0.00    +0.070 A 
ATOM     13  C   LIG    1        4.777  -0.127   0.270  0.00  0.00    -0.050 A 
ATOM     14  C   LIG    1        4.724   1.120  -0.328  0.00  0.00    +0.070 A 
ATOM     15 CL   LIG    1        6.290  -0.971   0.382  0.00  0.00    -0.060 Cl
ATOM     16  C   LIG    1        3.521   1.792  -0.423  0.00  0.00    -0.060 A 
ATOM     17 CL   LIG    1        3.454   3.354  -1.179  0.00  0.00    -0.050 Cl
ENDBRANCH   7  10
ENDBRANCH   5   6
BRANCH   1  18
ATOM     18  C   LIG    1       -2.775   0.480  -1.267  0.00  0.00    +0.210 C 
BRANCH  18  20
ATOM     19  O   LIG    1       -4.144  -1.025  -0.072  0.00  0.00    -0.520 OA
ATOM     20  C   LIG    1       -3.750  -0.664  -1.161  0.00  0.00    +0.520 C 
ATOM     21  N   LIG    1       -4.184  -1.286  -2.275  0.00  0.00    -0.730 N 
ATOM     22  H   LIG    1       -3.868  -0.997  -3.146  0.00  0.00    +0.400 HD
BRANCH  21  23
ATOM     23  C   LIG    1       -5.131  -2.398  -2.171  0.00  0.00    +0.320 C 
BRANCH  23  24
ATOM     24  C   LIG    1       -5.453  -2.914  -3.550  0.00  0.00    -0.110 A 
ATOM     25  C   LIG    1       -6.518  -2.383  -4.255  0.00  0.00    +0.020 A 
ATOM     26  C   LIG    1       -6.810  -2.853  -5.522  0.00  0.00    +0.000 A 
ATOM     27  C   LIG    1       -6.045  -3.860  -6.080  0.00  0.00    +0.010 A 
ATOM     28  C   LIG    1       -4.984  -4.394  -5.373  0.00  0.00    +0.010 A 
ATOM     29  C   LIG    1       -4.688  -3.921  -4.108  0.00  0.00    +0.020 A 
ENDBRANCH  23  24
ENDBRANCH  21  23
ENDBRANCH  18  20
ENDBRANCH   1  18
TORSDOF 6
