REMARK  Name = ZINC9u0000000C6I.0
REMARK                            x       y       z     vdW  Elec       q    Type
REMARK                         _______ _______ _______ _____ _____    ______ ____
ROOT
ATOM      1 CL   LIG    1        0.002  -0.004   0.002  0.00  0.00    +0.030 Cl
ATOM      2  C   LIG    1       -0.021   1.732   0.012  0.00  0.00    +0.120 A 
ATOM      3  C   LIG    1        1.169   2.443   0.004  0.00  0.00    +0.100 A 
ATOM      4  C   LIG    1        1.099   3.831   0.012  0.00  0.00    -0.020 A 
ATOM      5  C   LIG    1       -0.159   4.419   0.027  0.00  0.00    +0.120 A 
ATOM      6  N   LIG    1       -1.238   3.659   0.034  0.00  0.00    -0.190 NA
ATOM      7 CL   LIG    1       -0.311   6.148   0.038  0.00  0.00    +0.030 Cl
ATOM      8 CL   LIG    1        2.540   4.799   0.003  0.00  0.00    +0.010 Cl
ATOM      9  N   LIG    1       -1.173   2.378   0.021  0.00  0.00    -0.200 NA
ENDROOT
TORSDOF 0
