REMARK  Name = ZINCrD00000F5Lpl.0
REMARK                            x       y       z     vdW  Elec       q    Type
REMARK                         _______ _______ _______ _____ _____    ______ ____
ROOT
ATOM      1  C   LIG    1       -1.751   3.317  -3.279  0.00  0.00    +0.220 A 
ATOM      2  C   LIG    1       -2.933   2.899  -2.704  0.00  0.00    +0.080 A 
ATOM      3  N   LIG    1       -2.632   2.186  -1.603  0.00  0.00    -0.430 NA
ATOM      4  C   LIG    1       -1.318   2.138  -1.462  0.00  0.00    +0.220 A 
ATOM      5  C   LIG    1       -0.495   1.527  -0.491  0.00  0.00    +0.100 A 
ATOM      6  C   LIG    1        0.853   1.643  -0.598  0.00  0.00    +0.050 A 
ATOM      7  C   LIG    1        1.421   2.365  -1.668  0.00  0.00    -0.090 A 
ATOM      8  C   LIG    1        0.627   2.945  -2.590  0.00  0.00    +0.060 A 
ATOM      9  C   LIG    1        1.467   3.657  -3.631  0.00  0.00    +0.220 C 
ATOM     10  C   LIG    1        2.862   3.804  -2.988  0.00  0.00    +0.030 C 
ATOM     11  C   LIG    1        2.879   2.626  -1.991  0.00  0.00    +0.110 C 
ATOM     12  N   LIG    1       -0.739   2.836  -2.494  0.00  0.00    -0.370 N 
ENDROOT
BRANCH   2  13
ATOM     13  C   LIG    1       -4.296   3.186  -3.211  0.00  0.00    +0.330 A 
ATOM     14  N   LIG    1       -4.582   3.797  -4.341  0.00  0.00    -0.250 NA
ATOM     15  N   LIG    1       -5.982   3.855  -4.425  0.00  0.00    -0.450 N 
ATOM     16  H   LIG    1       -6.505   4.244  -5.144  0.00  0.00    +0.450 HD
ATOM     17  C   LIG    1       -6.458   3.268  -3.312  0.00  0.00    +0.190 A 
ATOM     18  N   LIG    1       -5.442   2.871  -2.591  0.00  0.00    -0.450 NA
BRANCH  17  19
ATOM     19  C   LIG    1       -7.912   3.098  -2.957  0.00  0.00    +0.560 C 
ATOM     20  F   LIG    1       -8.467   2.077  -3.736  0.00  0.00    -0.160 F 
ATOM     21  F   LIG    1       -8.595   4.295  -3.201  0.00  0.00    -0.160 F 
ATOM     22  F   LIG    1       -8.025   2.765  -1.603  0.00  0.00    -0.140 F 
ENDBRANCH  17  19
ENDBRANCH   2  13
BRANCH   1  23
ATOM     23  N   LIG    1       -1.613   4.083  -4.437  0.00  0.00    -0.580 N 
ATOM     24  H   LIG    1       -0.645   4.312  -4.606  0.00  0.00    +0.370 HD
BRANCH  23  25
ATOM     25  C   LIG    1       -2.202   3.397  -5.595  0.00  0.00    +0.180 C 
ATOM     26  C   LIG    1       -2.587   4.428  -6.657  0.00  0.00    +0.050 C 
BRANCH  25  28
ATOM     27  C   LIG    1       -0.893   1.313  -5.161  0.00  0.00    -0.000 C 
ATOM     28  C   LIG    1       -1.182   2.417  -6.180  0.00  0.00    -0.010 C 
ENDBRANCH  25  28
ENDBRANCH  23  25
ENDBRANCH   1  23
BRANCH   9  29
ATOM     29  O   LIG    1        0.914   4.944  -3.919  0.00  0.00    -0.550 OA
ATOM     30  H   LIG    1        1.466   5.488  -4.497  0.00  0.00    +0.390 HD
ENDBRANCH   9  29
TORSDOF 6
