REMARK  Name = ZINCrD00000F5LpL.1
REMARK                            x       y       z     vdW  Elec       q    Type
REMARK                         _______ _______ _______ _____ _____    ______ ____
ROOT
ATOM      1  C   LIG    1        5.216   0.216  -0.039  0.00  0.00    +0.130 C 
ENDROOT
BRANCH   1   4
ATOM      2  N   LIG    1        6.968  -1.531  -0.071  0.00  0.00    -0.660 N 
ATOM      3  H   LIG    1        6.265  -2.195   0.007  0.00  0.00    +0.420 HD
ATOM      4  C   LIG    1        6.659  -0.219  -0.064  0.00  0.00    +0.530 C 
ATOM      5  O   LIG    1        7.543   0.612  -0.077  0.00  0.00    -0.500 OA
BRANCH   2   8
ATOM      6  C   LIG    1       10.632  -1.584   0.274  0.00  0.00    +0.180 A 
ATOM      7  C   LIG    1        9.311  -1.183   0.394  0.00  0.00    -0.040 A 
ATOM      8  C   LIG    1        8.302  -1.935  -0.192  0.00  0.00    +0.220 A 
ATOM      9  C   LIG    1        8.616  -3.092  -0.892  0.00  0.00    -0.070 A 
ATOM     10  C   LIG    1        9.939  -3.489  -1.015  0.00  0.00    +0.180 A 
ATOM     11  C   LIG    1       10.946  -2.737  -0.430  0.00  0.00    -0.170 A 
BRANCH   6  13
ATOM     12  C   LIG    1       12.959  -1.320   0.684  0.00  0.00    +0.250 C 
ATOM     13  O   LIG    1       11.620  -0.848   0.847  0.00  0.00    -0.310 OA
ENDBRANCH   6  13
BRANCH  10  14
ATOM     14  O   LIG    1       10.247  -4.619  -1.705  0.00  0.00    -0.310 OA
ATOM     15  C   LIG    1       11.629  -4.971  -1.787  0.00  0.00    +0.250 C 
ENDBRANCH  10  14
ENDBRANCH   2   8
ENDBRANCH   1   4
BRANCH   1  16
ATOM     16  S   LIG    1        5.131   2.024  -0.035  0.00  0.00    +0.100 S 
BRANCH  16  17
ATOM     17  C   LIG    1        3.384   2.248  -0.005  0.00  0.00    +0.250 A 
ATOM     18  N   LIG    1        2.484   1.290   0.008  0.00  0.00    -0.530 NA
ATOM     19  C   LIG    1        1.252   1.829   0.029  0.00  0.00    +0.270 A 
ATOM     20  N   LIG    1        1.363   3.141   0.025  0.00  0.00    -0.290 NA
ATOM     21  N   LIG    1        2.736   3.435   0.008  0.00  0.00    -0.460 N 
ATOM     22  H   LIG    1        3.141   4.317   0.003  0.00  0.00    +0.450 HD
BRANCH  19  23
ATOM     23  C   LIG    1       -0.012   1.075   0.049  0.00  0.00    +0.090 C 
ATOM     24  C   LIG    1       -1.188   1.732   0.064  0.00  0.00    +0.120 C 
BRANCH  24  25
ATOM     25  C   LIG    1       -2.447   0.983   0.077  0.00  0.00    +0.000 A 
ATOM     26  C   LIG    1       -3.701   1.521   0.093  0.00  0.00    -0.030 A 
ATOM     27  C   LIG    1       -4.604   0.442   0.102  0.00  0.00    -0.070 A 
ATOM     28  C   LIG    1       -3.871  -0.690   0.090  0.00  0.00    +0.180 A 
ATOM     29  O   LIG    1       -2.569  -0.360   0.070  0.00  0.00    -0.170 OA
ENDBRANCH  24  25
ENDBRANCH  19  23
ENDBRANCH  16  17
ENDBRANCH   1  16
TORSDOF 8
