REMARK  Name = ZINCnE00000rhmTt.0
REMARK                            x       y       z     vdW  Elec       q    Type
REMARK                         _______ _______ _______ _____ _____    ______ ____
ROOT
ATOM      1  N   LIG    1        1.935   2.712   0.770  0.00  0.00    -0.710 N 
ATOM      2  H   LIG    1        1.228   3.366   0.887  0.00  0.00    +0.400 HD
ENDROOT
BRANCH   1   6
ATOM      3  C   LIG    1        5.735   3.453   2.314  0.00  0.00    +0.050 A 
ATOM      4  C   LIG    1        5.518   2.345   1.508  0.00  0.00    -0.050 A 
ATOM      5  C   LIG    1        4.258   2.096   1.001  0.00  0.00    -0.070 A 
ATOM      6  C   LIG    1        3.211   2.961   1.288  0.00  0.00    +0.250 A 
ATOM      7  C   LIG    1        3.429   4.070   2.095  0.00  0.00    -0.010 A 
ATOM      8  C   LIG    1        4.688   4.315   2.606  0.00  0.00    -0.070 A 
ATOM      9  C   LIG    1        4.925   5.519   3.481  0.00  0.00    +0.080 C 
BRANCH   3  10
ATOM     10  O   LIG    1        6.975   3.695   2.817  0.00  0.00    -0.320 OA
BRANCH  10  11
ATOM     11  C   LIG    1        8.006   2.766   2.476  0.00  0.00    +0.160 C 
BRANCH  11  13
ATOM     12  C   LIG    1       10.424   2.206   2.764  0.00  0.00    +0.030 C 
ATOM     13  C   LIG    1        9.320   3.200   3.129  0.00  0.00    +0.020 C 
ENDBRANCH  11  13
ENDBRANCH  10  11
ENDBRANCH   3  10
ENDBRANCH   1   6
BRANCH   1  14
ATOM     14  C   LIG    1        1.667   1.464   0.051  0.00  0.00    +0.240 C 
ATOM     15  C   LIG    1        1.442   1.754  -1.443  0.00  0.00    -0.010 C 
ATOM     16  C   LIG    1        0.013   1.278  -1.775  0.00  0.00    +0.000 C 
ATOM     17  C   LIG    1       -0.723   1.308  -0.413  0.00  0.00    +0.010 C 
ATOM     18  C   LIG    1        0.366   0.821   0.575  0.00  0.00    +0.000 C 
BRANCH  18  19
ATOM     19  C   LIG    1        0.062   1.308   1.994  0.00  0.00    +0.080 C 
BRANCH  19  20
ATOM     20  C   LIG    1        1.226   0.988   2.895  0.00  0.00    +0.480 C 
ATOM     21  O   LIG    1        1.521  -0.173   3.122  0.00  0.00    -0.710 OA
ATOM     22  O   LIG    1        1.874   1.890   3.397  0.00  0.00    -0.660 OA
ENDBRANCH  19  20
BRANCH  19  23
ATOM     23  O   LIG    1       -0.154   2.720   1.977  0.00  0.00    -0.370 OA
ATOM     24  C   LIG    1       -1.056   3.183   2.984  0.00  0.00    +0.170 C 
ENDBRANCH  19  23
ENDBRANCH  18  19
ENDBRANCH   1  14
TORSDOF 8
