REMARK  Name = ZINCqH0000006I6O.0
REMARK                            x       y       z     vdW  Elec       q    Type
REMARK                         _______ _______ _______ _____ _____    ______ ____
ROOT
ATOM      1  C   LIG    1        2.517   5.583   0.009  0.00  0.00    +0.120 A 
ATOM      2  C   LIG    1        2.468   4.203   0.007  0.00  0.00    +0.030 A 
ATOM      3  C   LIG    1        1.232   3.549   0.009  0.00  0.00    -0.080 A 
ATOM      4  C   LIG    1        0.051   4.296   0.025  0.00  0.00    +0.080 A 
ATOM      5  C   LIG    1        0.106   5.674   0.032  0.00  0.00    -0.030 A 
ATOM      6 CL   LIG    1       -1.362   6.600   0.050  0.00  0.00    -0.030 Cl
ATOM      7  C   LIG    1        1.335   6.322   0.024  0.00  0.00    +0.110 A 
ENDROOT
BRANCH   1   9
ATOM      8  C   LIG    1        4.888   5.401  -0.013  0.00  0.00    +0.250 C 
ATOM      9  O   LIG    1        3.718   6.221   0.002  0.00  0.00    -0.300 OA
ENDBRANCH   1   9
BRANCH   3  10
ATOM     10  C   LIG    1        1.175   2.076   0.002  0.00  0.00    +0.520 C 
ATOM     11  O   LIG    1        2.202   1.428  -0.011  0.00  0.00    -0.490 OA
BRANCH  10  12
ATOM     12  O   LIG    1       -0.018   1.448   0.010  0.00  0.00    -0.340 OA
BRANCH  12  13
ATOM     13  C   LIG    1        0.002  -0.004   0.002  0.00  0.00    +0.230 C 
ATOM     14  C   LIG    1        0.023  -0.522   1.442  0.00  0.00    +0.060 C 
BRANCH  13  15
ATOM     15  C   LIG    1       -1.228  -0.519  -0.700  0.00  0.00    -0.090 A 
ATOM     16  C   LIG    1       -2.372   0.255  -0.748  0.00  0.00    +0.060 A 
ATOM     17  C   LIG    1       -3.499  -0.215  -1.396  0.00  0.00    +0.020 A 
ATOM     18  C   LIG    1       -3.486  -1.465  -1.986  0.00  0.00    +0.040 A 
ATOM     19  C   LIG    1       -2.345  -2.243  -1.933  0.00  0.00    +0.030 A 
ATOM     20  C   LIG    1       -1.215  -1.771  -1.290  0.00  0.00    -0.030 A 
ATOM     21 CL   LIG    1        0.218  -2.747  -1.223  0.00  0.00    -0.060 Cl
ENDBRANCH  13  15
ENDBRANCH  12  13
ENDBRANCH  10  12
ENDBRANCH   3  10
BRANCH   7  22
ATOM     22  O   LIG    1        1.385   7.679   0.032  0.00  0.00    -0.290 OA
BRANCH  22  23
ATOM     23  C   LIG    1        1.420   8.320   1.308  0.00  0.00    +0.220 C 
BRANCH  23  24
ATOM     24  C   LIG    1        1.473   9.815   1.119  0.00  0.00    +0.520 C 
ATOM     25  O   LIG    1        1.480  10.284   0.001  0.00  0.00    -0.510 OA
ATOM     26  N   LIG    1        1.514  10.629   2.192  0.00  0.00    -0.850 N 
ATOM     27  H   LIG    1        1.548  11.591   2.070  0.00  0.00    +0.410 HD
ATOM     28  H   LIG    1        1.508  10.253   3.086  0.00  0.00    +0.400 HD
ENDBRANCH  23  24
ENDBRANCH  22  23
ENDBRANCH   7  22
TORSDOF 8
