REMARK  Name = ZINCrH000005ua3y.0
REMARK                            x       y       z     vdW  Elec       q    Type
REMARK                         _______ _______ _______ _____ _____    ______ ____
ROOT
ATOM      1  C   LIG    1        2.903   3.615  -0.451  0.00  0.00    +0.200 C 
ENDROOT
BRANCH   1   2
ATOM      2  N   LIG    1        3.197   2.176  -0.416  0.00  0.00    -0.470 N 
ATOM      3  C   LIG    1        4.360   1.856  -1.254  0.00  0.00    +0.250 C 
BRANCH   2   7
ATOM      4  C   LIG    1        2.960  -2.165  -0.667  0.00  0.00    -0.160 A 
ATOM      5  C   LIG    1        3.244  -0.885  -0.525  0.00  0.00    +0.050 A 
ATOM      6  C   LIG    1        2.153   0.019  -0.835  0.00  0.00    -0.190 A 
ATOM      7  C   LIG    1        2.092   1.435  -0.796  0.00  0.00    +0.410 A 
ATOM      8  N   LIG    1        0.961   2.038  -1.131  0.00  0.00    -0.560 NA
ATOM      9  C   LIG    1       -0.102   1.343  -1.497  0.00  0.00    +0.540 A 
ATOM     10  N   LIG    1       -0.096   0.032  -1.548  0.00  0.00    -0.510 NA
ATOM     11  C   LIG    1        1.001  -0.667  -1.229  0.00  0.00    +0.100 A 
ATOM     12  S   LIG    1        1.306  -2.398  -1.202  0.00  0.00    +0.170 S 
BRANCH   4  14
ATOM     13  C   LIG    1        3.825  -3.721   1.060  0.00  0.00    +0.040 C 
ATOM     14  C   LIG    1        3.933  -3.286  -0.403  0.00  0.00    +0.110 C 
ENDBRANCH   4  14
ENDBRANCH   2   7
ENDBRANCH   1   2
BRANCH   1  15
ATOM     15  C   LIG    1        4.049   4.386   0.208  0.00  0.00    +0.300 C 
BRANCH  15  16
ATOM     16  N   LIG    1        3.757   5.821   0.173  0.00  0.00    -0.610 N 
ATOM     17  C   LIG    1        4.158   6.565  -0.876  0.00  0.00    +0.560 C 
ATOM     18  O   LIG    1        4.650   6.028  -1.850  0.00  0.00    -0.520 OA
ATOM     19  C   LIG    1        3.027   6.446   1.279  0.00  0.00    +0.300 C 
BRANCH  17  20
ATOM     20  C   LIG    1        4.001   8.034  -0.843  0.00  0.00    -0.120 A 
ATOM     21  C   LIG    1        4.000   8.765  -2.032  0.00  0.00    +0.110 A 
ATOM     22  C   LIG    1        3.853  10.136  -1.997  0.00  0.00    +0.030 A 
ATOM     23  C   LIG    1        3.708  10.789  -0.783  0.00  0.00    +0.100 A 
ATOM     24  C   LIG    1        3.709  10.067   0.404  0.00  0.00    +0.060 A 
ATOM     25  F   LIG    1        3.567  10.710   1.584  0.00  0.00    -0.120 F 
ATOM     26  F   LIG    1        3.565  12.132  -0.754  0.00  0.00    -0.120 F 
ATOM     27  C   LIG    1        3.849   8.694   0.378  0.00  0.00    +0.050 A 
ENDBRANCH  17  20
ENDBRANCH  15  16
ENDBRANCH   1  15
TORSDOF 6
