REMARK  Name = ZINCtV000002GZj6.0
REMARK                            x       y       z     vdW  Elec       q    Type
REMARK                         _______ _______ _______ _____ _____    ______ ____
ROOT
ATOM      1  N   LIG    1       -0.023   2.554   0.586  0.00  0.00    -0.620 N 
ATOM      2  H   LIG    1        0.391   1.678   0.617  0.00  0.00    +0.420 HD
ATOM      3  C   LIG    1       -1.352   2.666   0.395  0.00  0.00    +0.510 C 
ATOM      4  O   LIG    1       -1.869   3.762   0.355  0.00  0.00    -0.490 OA
ENDROOT
BRANCH   1   8
ATOM      5  C   LIG    1        2.619   4.895   1.033  0.00  0.00    +0.130 A 
ATOM      6  C   LIG    1        1.791   5.952   0.949  0.00  0.00    -0.120 A 
ATOM      7  S   LIG    1        0.154   5.350   0.698  0.00  0.00    +0.210 S 
ATOM      8  C   LIG    1        0.756   3.696   0.732  0.00  0.00    +0.280 A 
ATOM      9  N   LIG    1        2.039   3.709   0.919  0.00  0.00    -0.500 NA
BRANCH   5  14
ATOM     10  C   LIG    1        8.289   5.484   1.854  0.00  0.00    +0.090 C 
ATOM     11  C   LIG    1        6.805   5.330   1.639  0.00  0.00    -0.080 A 
ATOM     12  C   LIG    1        6.253   4.067   1.522  0.00  0.00    +0.000 A 
ATOM     13  C   LIG    1        4.895   3.920   1.325  0.00  0.00    +0.050 A 
ATOM     14  C   LIG    1        4.079   5.047   1.244  0.00  0.00    -0.030 A 
ATOM     15  C   LIG    1        4.641   6.317   1.358  0.00  0.00    +0.020 A 
ATOM     16  C   LIG    1        6.000   6.452   1.561  0.00  0.00    +0.010 A 
ENDBRANCH   5  14
ENDBRANCH   1   8
BRANCH   3  17
ATOM     17  C   LIG    1       -2.196   1.428   0.230  0.00  0.00    +0.090 C 
BRANCH  17  18
ATOM     18  C   LIG    1       -3.658   1.831   0.029  0.00  0.00    +0.110 C 
BRANCH  18  19
ATOM     19  C   LIG    1       -4.519   0.594  -0.013  0.00  0.00    -0.080 A 
ATOM     20  C   LIG    1       -4.204  -0.438  -0.876  0.00  0.00    +0.010 A 
ATOM     21  C   LIG    1       -4.990  -1.574  -0.911  0.00  0.00    +0.000 A 
ATOM     22  C   LIG    1       -6.098  -1.674  -0.090  0.00  0.00    +0.000 A 
ATOM     23  C   LIG    1       -6.416  -0.639   0.770  0.00  0.00    +0.000 A 
ATOM     24  C   LIG    1       -5.626   0.495   0.809  0.00  0.00    +0.010 A 
ENDBRANCH  18  19
BRANCH  18  25
ATOM     25  C   LIG    1       -3.798   2.584  -1.268  0.00  0.00    -0.070 A 
ATOM     26  C   LIG    1       -4.432   3.813  -1.289  0.00  0.00    +0.030 A 
ATOM     27  C   LIG    1       -4.556   4.506  -2.479  0.00  0.00    +0.000 A 
ATOM     28  C   LIG    1       -4.056   3.966  -3.649  0.00  0.00    +0.000 A 
ATOM     29  C   LIG    1       -3.427   2.736  -3.629  0.00  0.00    +0.000 A 
ATOM     30  C   LIG    1       -3.298   2.045  -2.438  0.00  0.00    +0.000 A 
ENDBRANCH  18  25
ENDBRANCH  17  18
ENDBRANCH   3  17
TORSDOF 6
