REMARK  Name = ZINCpe00000MxWJd.2
REMARK                            x       y       z     vdW  Elec       q    Type
REMARK                         _______ _______ _______ _____ _____    ______ ____
ROOT
ATOM      1  C   LIG    1       -0.014   1.209   0.009  0.00  0.00    +0.530 C 
ATOM      2  N   LIG    1       -1.273   1.691   0.025  0.00  0.00    -0.610 N 
ATOM      3  C   LIG    1       -1.532   3.135  -0.081  0.00  0.00    +0.260 C 
ATOM      4  C   LIG    1       -2.477   3.542   1.056  0.00  0.00    +0.230 C 
ATOM      5  O   LIG    1       -3.624   2.688   1.042  0.00  0.00    -0.360 OA
ATOM      6  C   LIG    1       -3.330   1.309   1.275  0.00  0.00    +0.280 C 
ATOM      7  C   LIG    1       -2.429   0.788   0.144  0.00  0.00    +0.280 C 
ATOM      8  O   LIG    1        0.176   0.011   0.010  0.00  0.00    -0.520 OA
ENDROOT
BRANCH   1  13
ATOM      9  C   LIG    1        4.989   3.927   0.572  0.00  0.00    +0.290 C 
ATOM     10  N   LIG    1        3.715   3.221   0.416  0.00  0.00    -0.610 N 
ATOM     11  C   LIG    1        3.485   2.493  -0.826  0.00  0.00    +0.270 C 
ATOM     12  C   LIG    1        2.371   1.462  -0.644  0.00  0.00    +0.060 C 
ATOM     13  C   LIG    1        1.156   2.158  -0.018  0.00  0.00    -0.010 C 
ATOM     14  C   LIG    1        1.518   2.569   1.412  0.00  0.00    +0.100 C 
ATOM     15  C   LIG    1        2.839   3.284   1.419  0.00  0.00    +0.520 C 
ATOM     16  O   LIG    1        3.124   3.954   2.389  0.00  0.00    -0.550 OA
ENDBRANCH   1  13
BRANCH   6  17
ATOM     17  C   LIG    1       -4.612   0.518   1.299  0.00  0.00    +0.230 A 
ATOM     18  N   LIG    1       -5.596   0.640   0.448  0.00  0.00    -0.280 NA
ATOM     19  N   LIG    1       -6.584  -0.281   0.833  0.00  0.00    -0.480 N 
ATOM     20  H   LIG    1       -7.437  -0.434   0.399  0.00  0.00    +0.440 HD
ATOM     21  C   LIG    1       -6.113  -0.905   1.927  0.00  0.00    +0.300 A 
ATOM     22  N   LIG    1       -4.929  -0.415   2.196  0.00  0.00    -0.520 NA
BRANCH  21  23
ATOM     23  C   LIG    1       -6.824  -1.979   2.709  0.00  0.00    +0.010 C 
ATOM     24  C   LIG    1       -7.142  -1.462   4.114  0.00  0.00    +0.060 C 
ATOM     25  C   LIG    1       -5.927  -3.214   2.810  0.00  0.00    +0.060 C 
ATOM     26  C   LIG    1       -8.126  -2.351   1.996  0.00  0.00    +0.040 C 
ENDBRANCH  21  23
ENDBRANCH   6  17
TORSDOF 3
