REMARK  Name = ZINCpe00000MxWJd.0
REMARK                            x       y       z     vdW  Elec       q    Type
REMARK                         _______ _______ _______ _____ _____    ______ ____
ROOT
ATOM      1  C   LIG    1        3.118  -0.543   1.615  0.00  0.00    +0.530 C 
ATOM      2  N   LIG    1        2.057   0.043   1.026  0.00  0.00    -0.610 N 
ATOM      3  C   LIG    1        0.772  -0.664   0.906  0.00  0.00    +0.260 C 
ATOM      4  C   LIG    1        0.307  -0.576  -0.552  0.00  0.00    +0.230 C 
ATOM      5  O   LIG    1        0.321   0.791  -0.969  0.00  0.00    -0.350 OA
ATOM      6  C   LIG    1        1.617   1.395  -0.953  0.00  0.00    +0.250 C 
ATOM      7  C   LIG    1        2.150   1.408   0.484  0.00  0.00    +0.270 C 
ATOM      8  O   LIG    1        2.997  -1.631   2.139  0.00  0.00    -0.520 OA
ENDROOT
BRANCH   1  13
ATOM      9  C   LIG    1        8.322   1.549   2.750  0.00  0.00    +0.290 C 
ATOM     10  N   LIG    1        6.997   0.998   2.456  0.00  0.00    -0.610 N 
ATOM     11  C   LIG    1        6.921  -0.180   1.601  0.00  0.00    +0.270 C 
ATOM     12  C   LIG    1        5.575  -0.884   1.778  0.00  0.00    +0.060 C 
ATOM     13  C   LIG    1        4.455   0.152   1.623  0.00  0.00    -0.010 C 
ATOM     14  C   LIG    1        4.525   1.121   2.806  0.00  0.00    +0.100 C 
ATOM     15  C   LIG    1        5.935   1.606   2.987  0.00  0.00    +0.520 C 
ATOM     16  O   LIG    1        6.117   2.605   3.650  0.00  0.00    -0.540 OA
ENDBRANCH   1  13
BRANCH   6  17
ATOM     17  C   LIG    1        1.522   2.808  -1.467  0.00  0.00    +0.280 A 
ATOM     18  N   LIG    1        0.453   3.563  -1.445  0.00  0.00    -0.500 NA
ATOM     19  C   LIG    1        0.729   4.752  -1.979  0.00  0.00    +0.240 A 
ATOM     20  N   LIG    1        1.980   4.768  -2.357  0.00  0.00    -0.300 NA
ATOM     21  N   LIG    1        2.518   3.511  -2.034  0.00  0.00    -0.480 N 
ATOM     22  H   LIG    1        3.427   3.210  -2.189  0.00  0.00    +0.440 HD
BRANCH  19  23
ATOM     23  C   LIG    1       -0.245   5.893  -2.127  0.00  0.00    +0.030 C 
ATOM     24  C   LIG    1       -0.755   6.310  -0.746  0.00  0.00    +0.050 C 
ATOM     25  C   LIG    1       -1.424   5.447  -2.993  0.00  0.00    +0.050 C 
ATOM     26  C   LIG    1        0.457   7.079  -2.791  0.00  0.00    +0.050 C 
ENDBRANCH  19  23
ENDBRANCH   6  17
TORSDOF 3
