REMARK  Name = ZINCpe00000MxWJd.1
REMARK                            x       y       z     vdW  Elec       q    Type
REMARK                         _______ _______ _______ _____ _____    ______ ____
ROOT
ATOM      1  C   LIG    1        5.818  -3.729  -4.406  0.00  0.00    +0.530 C 
ATOM      2  N   LIG    1        5.149  -2.561  -4.474  0.00  0.00    -0.610 N 
ATOM      3  C   LIG    1        5.338  -1.646  -5.611  0.00  0.00    +0.260 C 
ATOM      4  C   LIG    1        5.630  -0.245  -5.061  0.00  0.00    +0.230 C 
ATOM      5  O   LIG    1        4.615   0.112  -4.120  0.00  0.00    -0.360 OA
ATOM      6  C   LIG    1        4.558  -0.737  -2.971  0.00  0.00    +0.250 C 
ATOM      7  C   LIG    1        4.210  -2.163  -3.414  0.00  0.00    +0.280 C 
ATOM      8  O   LIG    1        6.516  -4.084  -5.333  0.00  0.00    -0.520 OA
ENDROOT
BRANCH   1  13
ATOM      9  C   LIG    1        5.474  -7.948  -0.556  0.00  0.00    +0.290 C 
ATOM     10  N   LIG    1        5.579  -6.871  -1.543  0.00  0.00    -0.610 N 
ATOM     11  C   LIG    1        6.877  -6.231  -1.720  0.00  0.00    +0.270 C 
ATOM     12  C   LIG    1        6.933  -5.497  -3.060  0.00  0.00    +0.060 C 
ATOM     13  C   LIG    1        5.698  -4.595  -3.179  0.00  0.00    -0.010 C 
ATOM     14  C   LIG    1        4.458  -5.485  -3.295  0.00  0.00    +0.100 C 
ATOM     15  C   LIG    1        4.482  -6.537  -2.223  0.00  0.00    +0.520 C 
ATOM     16  O   LIG    1        3.447  -7.113  -1.961  0.00  0.00    -0.540 OA
ENDBRANCH   1  13
BRANCH   6  17
ATOM     17  C   LIG    1        3.499  -0.232  -2.025  0.00  0.00    +0.170 A 
ATOM     18  N   LIG    1        2.215  -0.184  -2.255  0.00  0.00    -0.250 NA
ATOM     19  N   LIG    1        1.609   0.298  -1.228  0.00  0.00    -0.280 NA
ATOM     20  C   LIG    1        2.480   0.589  -0.300  0.00  0.00    +0.200 A 
ATOM     21  N   LIG    1        3.704   0.258  -0.778  0.00  0.00    -0.570 N 
ATOM     22  H   LIG    1        4.554   0.352  -0.321  0.00  0.00    +0.430 HD
BRANCH  20  23
ATOM     23  C   LIG    1        2.179   1.178   1.054  0.00  0.00    +0.020 C 
ATOM     24  C   LIG    1        0.682   1.055   1.342  0.00  0.00    +0.070 C 
ATOM     25  C   LIG    1        2.968   0.422   2.125  0.00  0.00    +0.040 C 
ATOM     26  C   LIG    1        2.583   2.654   1.069  0.00  0.00    +0.050 C 
ENDBRANCH  20  23
ENDBRANCH   6  17
TORSDOF 3
