REMARK  Name = ZINCrD00000sboj8.0
REMARK                            x       y       z     vdW  Elec       q    Type
REMARK                         _______ _______ _______ _____ _____    ______ ____
ROOT
ATOM      1  N   LIG    1       -0.721   1.571  -1.179  0.00  0.00    -0.750 N 
ATOM      2  H   LIG    1       -1.516   2.118  -1.079  0.00  0.00    +0.400 HD
ENDROOT
BRANCH   1   3
ATOM      3  C   LIG    1       -0.251   1.246  -2.456  0.00  0.00    +0.180 A 
ATOM      4  C   LIG    1        0.891   0.469  -2.599  0.00  0.00    -0.040 A 
ATOM      5  C   LIG    1        1.351   0.145  -3.860  0.00  0.00    -0.030 A 
ATOM      6  C   LIG    1        0.680   0.604  -4.984  0.00  0.00    +0.070 A 
ATOM      7  C   LIG    1       -0.457   1.385  -4.842  0.00  0.00    +0.030 A 
ATOM      8  C   LIG    1       -0.922   1.706  -3.581  0.00  0.00    -0.020 A 
BRANCH   6   9
ATOM      9  O   LIG    1        1.138   0.289  -6.225  0.00  0.00    -0.320 OA
BRANCH   9  10
ATOM     10  C   LIG    1        2.315  -0.518  -6.297  0.00  0.00    +0.190 C 
BRANCH  10  11
ATOM     11  C   LIG    1        2.674  -0.766  -7.763  0.00  0.00    -0.020 C 
ATOM     12  C   LIG    1        3.917  -1.682  -7.880  0.00  0.00    +0.010 C 
ATOM     13  C   LIG    1        4.739  -1.059  -9.025  0.00  0.00    +0.200 C 
ATOM     14  O   LIG    1        3.994   0.063  -9.525  0.00  0.00    -0.380 OA
ATOM     15  C   LIG    1        3.167   0.538  -8.440  0.00  0.00    +0.210 C 
ENDBRANCH  10  11
ENDBRANCH   9  10
ENDBRANCH   6   9
ENDBRANCH   1   3
BRANCH   1  16
ATOM     16  C   LIG    1       -0.013   1.086   0.008  0.00  0.00    +0.310 C 
BRANCH  16  27
ATOM     17  O   LIG    1       -3.328  -0.707   3.799  0.00  0.00    -0.530 OA
ATOM     18  C   LIG    1       -3.459   0.481   3.580  0.00  0.00    +0.570 C 
ATOM     19  N   LIG    1       -4.606   1.119   3.894  0.00  0.00    -0.720 N 
ATOM     20  H   LIG    1       -5.306   0.650   4.374  0.00  0.00    +0.410 HD
ATOM     21  C   LIG    1       -4.793   2.517   3.511  0.00  0.00    +0.280 C 
ATOM     22  C   LIG    1       -4.081   3.454   4.479  0.00  0.00    +0.030 C 
ATOM     23  C   LIG    1       -2.678   2.942   4.796  0.00  0.00    +0.070 C 
ATOM     24  C   LIG    1       -1.994   2.480   3.537  0.00  0.00    -0.040 A 
ATOM     25  C   LIG    1       -0.999   3.236   2.957  0.00  0.00    +0.010 A 
ATOM     26  C   LIG    1       -0.358   2.780   1.818  0.00  0.00    +0.060 A 
ATOM     27  C   LIG    1       -0.718   1.572   1.248  0.00  0.00    -0.120 A 
ATOM     28  C   LIG    1       -1.718   0.807   1.816  0.00  0.00    +0.080 A 
ATOM     29  C   LIG    1       -2.365   1.263   2.962  0.00  0.00    -0.130 A 
ENDBRANCH  16  27
ENDBRANCH   1  16
TORSDOF 6
