REMARK  Name = ZINCkj00000a6VtP.0
REMARK                            x       y       z     vdW  Elec       q    Type
REMARK                         _______ _______ _______ _____ _____    ______ ____
ROOT
ATOM      1  C   LIG    1       -0.016   1.313   0.009  0.00  0.00    +0.090 A 
ATOM      2  C   LIG    1        1.161   2.039   0.002  0.00  0.00    +0.000 A 
ATOM      3  C   LIG    1        2.375   1.367  -0.013  0.00  0.00    +0.080 A 
ATOM      4  C   LIG    1        2.364  -0.017  -0.020  0.00  0.00    +0.040 A 
ATOM      5  C   LIG    1        1.141  -0.684  -0.013  0.00  0.00    +0.170 A 
ATOM      6  N   LIG    1        0.002  -0.004   0.002  0.00  0.00    -0.460 NA
ENDROOT
BRANCH   5   7
ATOM      7  C   LIG    1        1.112  -2.167  -0.020  0.00  0.00    +0.150 A 
ATOM      8  C   LIG    1       -0.111  -2.834  -0.012  0.00  0.00    +0.010 A 
ATOM      9  C   LIG    1       -0.122  -4.219  -0.020  0.00  0.00    +0.060 A 
ATOM     10  C   LIG    1        1.091  -4.891  -0.035  0.00  0.00    -0.020 A 
ATOM     11  C   LIG    1        2.269  -4.165  -0.043  0.00  0.00    +0.280 A 
ATOM     12  N   LIG    1        2.251  -2.848  -0.040  0.00  0.00    -0.470 NA
ENDBRANCH   5   7
BRANCH   1  13
ATOM     13  C   LIG    1       -1.337   2.038   0.019  0.00  0.00    +0.380 C 
BRANCH  13  15
ATOM     14  C   LIG    1       -3.002   2.796  -1.590  0.00  0.00    +0.500 C 
ATOM     15  N   LIG    1       -1.829   2.175  -1.353  0.00  0.00    -0.700 N 
ATOM     16  H   LIG    1       -1.311   1.820  -2.092  0.00  0.00    +0.410 HD
ATOM     17  O   LIG    1       -3.650   3.241  -0.666  0.00  0.00    -0.530 OA
BRANCH  14  18
ATOM     18  C   LIG    1       -3.509   2.937  -3.002  0.00  0.00    +0.290 C 
BRANCH  18  20
ATOM     19  C   LIG    1       -4.597   5.018  -2.512  0.00  0.00    +0.330 C 
ATOM     20  N   LIG    1       -4.796   3.644  -2.992  0.00  0.00    -0.370 N 
ATOM     21  C   LIG    1       -5.348   3.676  -4.354  0.00  0.00    +0.330 C 
ATOM     22  H   LIG    1       -5.439   3.164  -2.381  0.00  0.00    +0.430 HD
ENDBRANCH  18  20
ENDBRANCH  14  18
ENDBRANCH  13  15
ENDBRANCH   1  13
TORSDOF 5
