REMARK  Name = ZINCkj000018RED4.0
REMARK                            x       y       z     vdW  Elec       q    Type
REMARK                         _______ _______ _______ _____ _____    ______ ____
ROOT
ATOM      1  C   LIG    1       -4.962  -2.613   0.034  0.00  0.00    +0.610 C 
ATOM      2  N   LIG    1       -6.097  -1.896   0.149  0.00  0.00    -0.640 N 
ATOM      3  C   LIG    1       -6.446  -0.467   0.202  0.00  0.00    +0.320 C 
ATOM      4  C   LIG    1       -7.819  -0.843  -0.365  0.00  0.00    +0.010 C 
ATOM      5  C   LIG    1       -7.875  -0.886  -1.889  0.00  0.00    +0.100 C 
ATOM      6  C   LIG    1       -9.217  -1.487  -2.323  0.00  0.00    +0.040 C 
ATOM      7  C   LIG    1      -10.353  -0.692  -1.674  0.00  0.00    +0.050 C 
ATOM      8  C   LIG    1      -10.205  -0.740  -0.152  0.00  0.00    +0.260 C 
ATOM      9  N   LIG    1       -8.934  -0.115   0.240  0.00  0.00    -0.490 N 
ATOM     10  H   LIG    1       -8.920   0.844  -0.075  0.00  0.00    +0.430 HD
ATOM     11  H   LIG    1       -8.845  -0.138   1.245  0.00  0.00    +0.430 HD
ATOM     12  C   LIG    1       -7.531  -2.198   0.285  0.00  0.00    +0.330 C 
ATOM     13  O   LIG    1       -5.016  -3.823  -0.075  0.00  0.00    -0.500 OA
ENDROOT
BRANCH   1  17
ATOM     14  C   LIG    1       -1.192  -0.651   0.049  0.00  0.00    +0.150 A 
ATOM     15  C   LIG    1       -1.265  -2.012  -0.215  0.00  0.00    -0.050 A 
ATOM     16  C   LIG    1       -2.486  -2.651  -0.220  0.00  0.00    +0.140 A 
ATOM     17  C   LIG    1       -3.654  -1.930   0.039  0.00  0.00    -0.170 A 
ATOM     18  C   LIG    1       -3.580  -0.559   0.305  0.00  0.00    +0.060 A 
ATOM     19  C   LIG    1       -2.353   0.074   0.315  0.00  0.00    +0.070 A 
BRANCH  14  21
ATOM     20  C   LIG    1        1.163  -0.830  -0.220  0.00  0.00    +0.250 C 
ATOM     21  O   LIG    1        0.013  -0.026   0.054  0.00  0.00    -0.300 OA
ENDBRANCH  14  21
BRANCH  19  22
ATOM     22  O   LIG    1       -2.277   1.406   0.579  0.00  0.00    -0.480 OA
ATOM     23  H   LIG    1       -2.343   1.967  -0.205  0.00  0.00    +0.390 HD
ENDBRANCH  19  22
ENDBRANCH   1  17
TORSDOF 3
