REMARK  Name = ZINCqH0000001Khg.1
REMARK                            x       y       z     vdW  Elec       q    Type
REMARK                         _______ _______ _______ _____ _____    ______ ____
ROOT
ATOM      1  C   LIG    1       -1.089   6.333   2.035  0.00  0.00    +0.580 C 
ATOM      2  N   LIG    1       -1.312   5.374   1.115  0.00  0.00    -0.600 N 
ATOM      3  C   LIG    1       -2.602   5.286   0.415  0.00  0.00    +0.290 C 
ATOM      4  C   LIG    1       -2.382   5.547  -1.081  0.00  0.00    +0.130 C 
ATOM      5  C   LIG    1       -1.182   4.759  -1.542  0.00  0.00    +0.030 A 
ATOM      6  C   LIG    1       -0.243   4.247  -0.717  0.00  0.00    -0.050 A 
ATOM      7  N   LIG    1        0.677   3.617  -1.495  0.00  0.00    -0.550 N 
ATOM      8  H   LIG    1        1.473   3.155  -1.188  0.00  0.00    +0.420 HD
ATOM      9  C   LIG    1        0.272   3.757  -2.778  0.00  0.00    +0.410 A 
ATOM     10  N   LIG    1       -0.842   4.442  -2.795  0.00  0.00    -0.480 NA
ATOM     11  C   LIG    1       -0.269   4.386   0.785  0.00  0.00    +0.360 C 
ATOM     12  O   LIG    1       -1.999   7.052   2.397  0.00  0.00    -0.520 OA
ENDROOT
BRANCH   1  16
ATOM     13  C   LIG    1        2.788   6.816   3.584  0.00  0.00    +0.160 A 
ATOM     14  C   LIG    1        1.716   7.085   4.414  0.00  0.00    -0.020 A 
ATOM     15  C   LIG    1        0.428   6.940   3.928  0.00  0.00    +0.140 A 
ATOM     16  C   LIG    1        0.264   6.511   2.605  0.00  0.00    -0.190 A 
ATOM     17  C   LIG    1        1.398   6.258   1.832  0.00  0.00    +0.290 A 
ATOM     18  N   LIG    1        2.603   6.417   2.340  0.00  0.00    -0.480 NA
BRANCH  13  20
ATOM     19  C   LIG    1        4.626   8.438   3.959  0.00  0.00    +0.050 C 
ATOM     20  C   LIG    1        4.192   6.979   4.109  0.00  0.00    +0.040 C 
ATOM     21  C   LIG    1        4.233   6.583   5.586  0.00  0.00    +0.040 C 
ENDBRANCH  13  20
ENDBRANCH   1  16
BRANCH  11  22
ATOM     22  C   LIG    1       -0.601   3.058   1.417  0.00  0.00    -0.100 A 
ATOM     23  C   LIG    1        0.332   2.039   1.415  0.00  0.00    +0.010 A 
ATOM     24  C   LIG    1        0.027   0.821   1.994  0.00  0.00    +0.020 A 
ATOM     25  C   LIG    1       -1.212   0.624   2.575  0.00  0.00    +0.000 A 
ATOM     26  C   LIG    1       -2.147   1.641   2.572  0.00  0.00    +0.020 A 
ATOM     27  C   LIG    1       -1.840   2.860   1.997  0.00  0.00    +0.020 A 
ENDBRANCH  11  22
TORSDOF 3
