REMARK  Name = ZINCqH0000001Khg.0
REMARK                            x       y       z     vdW  Elec       q    Type
REMARK                         _______ _______ _______ _____ _____    ______ ____
ROOT
ATOM      1  C   LIG    1       -3.246  -0.676   1.443  0.00  0.00    +0.570 C 
ATOM      2  N   LIG    1       -2.657  -0.296   0.292  0.00  0.00    -0.600 N 
ATOM      3  C   LIG    1       -3.179   0.841  -0.482  0.00  0.00    +0.280 C 
ATOM      4  C   LIG    1       -2.126   1.956  -0.508  0.00  0.00    +0.120 C 
ATOM      5  C   LIG    1       -0.781   1.347  -0.805  0.00  0.00    -0.020 A 
ATOM      6  C   LIG    1       -0.482   0.037  -0.675  0.00  0.00    +0.000 A 
ATOM      7  N   LIG    1        0.797  -0.133  -1.016  0.00  0.00    -0.470 NA
ATOM      8  C   LIG    1        1.306   1.022  -1.357  0.00  0.00    +0.400 A 
ATOM      9  N   LIG    1        0.349   1.971  -1.239  0.00  0.00    -0.560 N 
ATOM     10  H   LIG    1        0.449   2.917  -1.428  0.00  0.00    +0.420 HD
ATOM     11  C   LIG    1       -1.473  -1.009  -0.221  0.00  0.00    +0.390 C 
ATOM     12  O   LIG    1       -2.755  -1.563   2.113  0.00  0.00    -0.520 OA
ENDROOT
BRANCH   1  16
ATOM     13  C   LIG    1       -6.748   1.280   2.696  0.00  0.00    +0.160 A 
ATOM     14  C   LIG    1       -6.682  -0.094   2.838  0.00  0.00    -0.020 A 
ATOM     15  C   LIG    1       -5.540  -0.762   2.433  0.00  0.00    +0.130 A 
ATOM     16  C   LIG    1       -4.489  -0.013   1.891  0.00  0.00    -0.190 A 
ATOM     17  C   LIG    1       -4.633   1.371   1.787  0.00  0.00    +0.300 A 
ATOM     18  N   LIG    1       -5.742   1.961   2.181  0.00  0.00    -0.480 NA
BRANCH  13  20
ATOM     19  C   LIG    1       -9.023   1.988   2.007  0.00  0.00    +0.050 C 
ATOM     20  C   LIG    1       -7.990   2.012   3.136  0.00  0.00    +0.040 C 
ATOM     21  C   LIG    1       -8.572   1.329   4.375  0.00  0.00    +0.040 C 
ENDBRANCH  13  20
ENDBRANCH   1  16
BRANCH  11  22
ATOM     22  C   LIG    1       -1.866  -1.883  -1.385  0.00  0.00    -0.090 A 
ATOM     23  C   LIG    1       -2.347  -1.310  -2.547  0.00  0.00    +0.020 A 
ATOM     24  C   LIG    1       -2.703  -2.112  -3.616  0.00  0.00    +0.000 A 
ATOM     25  C   LIG    1       -2.586  -3.486  -3.519  0.00  0.00    +0.010 A 
ATOM     26  C   LIG    1       -2.109  -4.058  -2.354  0.00  0.00    +0.000 A 
ATOM     27  C   LIG    1       -1.750  -3.256  -1.287  0.00  0.00    +0.030 A 
ENDBRANCH  11  22
TORSDOF 3
