REMARK  Name = ZINCrg00000SjSzx.0
REMARK                            x       y       z     vdW  Elec       q    Type
REMARK                         _______ _______ _______ _____ _____    ______ ____
ROOT
ATOM      1  C   LIG    1       -3.223  -3.736  -4.377  0.00  0.00    +0.510 C 
ATOM      2  O   LIG    1       -4.337  -3.669  -4.857  0.00  0.00    -0.490 OA
ENDROOT
BRANCH   1   3
ATOM      3  C   LIG    1       -2.516  -2.502  -3.976  0.00  0.00    -0.070 A 
ATOM      4  C   LIG    1       -3.126  -1.258  -4.148  0.00  0.00    +0.080 A 
ATOM      5  C   LIG    1       -2.460  -0.110  -3.772  0.00  0.00    +0.120 A 
ATOM      6  C   LIG    1       -1.191  -0.189  -3.225  0.00  0.00    -0.650 A 
ATOM      7  C   LIG    1       -0.579  -1.419  -3.058  0.00  0.00    +0.120 A 
ATOM      8  C   LIG    1       -1.236  -2.575  -3.425  0.00  0.00    +0.070 A 
BRANCH   6   9
ATOM      9  S   LIG    1       -0.348   1.282  -2.747  0.00  0.00    +2.710 S 
ATOM     10  O   LIG    1        1.039   0.973  -2.762  0.00  0.00    -0.940 OA
ATOM     11  O   LIG    1       -0.917   2.337  -3.511  0.00  0.00    -0.940 OA
BRANCH   9  12
ATOM     12  N   LIG    1       -0.743   1.582  -1.167  0.00  0.00    -1.010 NA
ATOM     13  C   LIG    1       -0.013   1.086   0.008  0.00  0.00    +0.270 C 
ATOM     14  C   LIG    1       -0.756   1.594   1.262  0.00  0.00    +0.030 C 
ATOM     15  C   LIG    1       -2.187   1.874   0.722  0.00  0.00    +0.040 C 
ATOM     16  C   LIG    1       -1.886   2.391  -0.707  0.00  0.00    +0.280 C 
ENDBRANCH   9  12
ENDBRANCH   6   9
ENDBRANCH   1   3
BRANCH   1  17
ATOM     17  O   LIG    1       -2.632  -4.935  -4.210  0.00  0.00    -0.330 OA
BRANCH  17  18
ATOM     18  C   LIG    1       -3.386  -6.104  -4.626  0.00  0.00    +0.280 C 
BRANCH  18  20
ATOM     19  O   LIG    1       -1.465  -7.253  -3.877  0.00  0.00    -0.440 OA
ATOM     20  C   LIG    1       -2.571  -7.345  -4.365  0.00  0.00    +0.510 C 
ATOM     21  N   LIG    1       -3.073  -8.558  -4.675  0.00  0.00    -0.640 N 
ATOM     22  H   LIG    1       -3.957  -8.631  -5.066  0.00  0.00    +0.430 HD
BRANCH  21  23
ATOM     23  C   LIG    1       -2.322  -9.702  -4.435  0.00  0.00    +0.540 A 
ATOM     24  N   LIG    1       -1.114  -9.582  -3.906  0.00  0.00    -0.510 NA
ATOM     25  C   LIG    1       -0.375 -10.652  -3.659  0.00  0.00    +0.350 A 
ATOM     26  C   LIG    1       -0.875 -11.906  -3.972  0.00  0.00    -0.110 A 
ATOM     27  C   LIG    1       -2.142 -11.993  -4.529  0.00  0.00    +0.360 A 
ATOM     28  N   LIG    1       -2.830 -10.885  -4.745  0.00  0.00    -0.550 NA
ENDBRANCH  21  23
ENDBRANCH  18  20
ENDBRANCH  17  18
ENDBRANCH   1  17
TORSDOF 7
