REMARK  Name = ZINCpk00000xSwqj.0
REMARK                            x       y       z     vdW  Elec       q    Type
REMARK                         _______ _______ _______ _____ _____    ______ ____
ROOT
ATOM      1  O   LIG    1        2.722   3.476  -1.330  0.00  0.00    -0.510 OA
ATOM      2  C   LIG    1        2.586   2.362  -1.788  0.00  0.00    +0.520 C 
ATOM      3  N   LIG    1        2.152   1.358  -1.001  0.00  0.00    -0.620 N 
ATOM      4  C   LIG    1        1.834   1.581   0.420  0.00  0.00    +0.310 C 
ATOM      5  C   LIG    1        0.354   1.260   0.635  0.00  0.00    +0.280 C 
ATOM      6  N   LIG    1        0.002  -0.004   0.002  0.00  0.00    -0.560 N 
ATOM      7  C   LIG    1        0.687  -0.569  -0.993  0.00  0.00    +0.510 C 
ATOM      8  O   LIG    1        0.250  -1.585  -1.492  0.00  0.00    -0.520 OA
ATOM      9  C   LIG    1        1.976  -0.005  -1.525  0.00  0.00    +0.340 C 
ENDROOT
BRANCH   6  10
ATOM     10  C   LIG    1       -1.134  -0.673   0.472  0.00  0.00    +0.120 A 
ATOM     11  C   LIG    1       -1.017  -1.615   1.486  0.00  0.00    +0.010 A 
ATOM     12  C   LIG    1       -2.141  -2.268   1.951  0.00  0.00    +0.020 A 
ATOM     13  C   LIG    1       -3.380  -1.994   1.401  0.00  0.00    +0.020 A 
ATOM     14  C   LIG    1       -3.498  -1.061   0.388  0.00  0.00    +0.020 A 
ATOM     15  C   LIG    1       -2.379  -0.400  -0.078  0.00  0.00    +0.020 A 
ENDBRANCH   6  10
BRANCH   2  16
ATOM     16  C   LIG    1        2.902   2.099  -3.238  0.00  0.00    +0.370 C 
BRANCH  16  17
ATOM     17  N   LIG    1        3.351   3.341  -3.873  0.00  0.00    -0.330 N 
ATOM     18  N   LIG    1        2.484   4.111  -4.423  0.00  0.00    -0.190 NA
ATOM     19  C   LIG    1        2.810   5.233  -5.002  0.00  0.00    +0.270 A 
ATOM     20  C   LIG    1        4.154   5.643  -5.053  0.00  0.00    +0.010 A 
ATOM     21  C   LIG    1        5.100   4.838  -4.479  0.00  0.00    -0.110 A 
ATOM     22 CL   LIG    1        6.781   5.272  -4.500  0.00  0.00    +0.020 Cl
ATOM     23 CL   LIG    1        4.602   7.131  -5.827  0.00  0.00    +0.000 Cl
ATOM     24  C   LIG    1        4.664   3.643  -3.868  0.00  0.00    +0.500 A 
ATOM     25  O   LIG    1        5.468   2.890  -3.341  0.00  0.00    -0.500 OA
ENDBRANCH  16  17
ENDBRANCH   2  16
TORSDOF 3
