REMARK  Name = ZINCrD00000743p0.0
REMARK                            x       y       z     vdW  Elec       q    Type
REMARK                         _______ _______ _______ _____ _____    ______ ____
ROOT
ATOM      1  C   LIG    1       -0.688   1.552  -1.310  0.00  0.00    +0.070 C 
ATOM      2  C   LIG    1       -0.071   1.375   0.079  0.00  0.00    +0.300 C 
ATOM      3  C   LIG    1       -1.025   1.888   1.135  0.00  0.00    +0.060 A 
ATOM      4  C   LIG    1       -0.659   2.735   2.122  0.00  0.00    -0.160 A 
ATOM      5  C   LIG    1       -1.839   2.985   2.924  0.00  0.00    -0.100 A 
ATOM      6  C   LIG    1       -2.064   3.767   4.061  0.00  0.00    +0.060 A 
ATOM      7  C   LIG    1       -3.340   3.772   4.568  0.00  0.00    -0.030 A 
ATOM      8  C   LIG    1       -4.365   3.040   3.991  0.00  0.00    +0.020 A 
ATOM      9  C   LIG    1       -4.170   2.257   2.865  0.00  0.00    +0.000 A 
ATOM     10  C   LIG    1       -2.885   2.234   2.328  0.00  0.00    +0.100 A 
ATOM     11  C   LIG    1        0.731   3.287   2.309  0.00  0.00    +0.100 C 
ATOM     12  C   LIG    1        1.722   2.424   1.519  0.00  0.00    +0.300 C 
ATOM     13  N   LIG    1       -2.355   1.584   1.250  0.00  0.00    -0.580 N 
ATOM     14  H   LIG    1       -2.847   0.997   0.656  0.00  0.00    +0.420 HD
ATOM     15  N   LIG    1        1.168   2.165   0.181  0.00  0.00    -0.580 N 
ATOM     16  C   LIG    1        1.779   2.638  -0.923  0.00  0.00    +0.590 C 
ATOM     17  O   LIG    1        1.250   2.514  -2.011  0.00  0.00    -0.520 OA
ENDROOT
BRANCH  16  18
ATOM     18  C   LIG    1        3.092   3.308  -0.812  0.00  0.00    -0.000 A 
ATOM     19  C   LIG    1        3.545   4.140  -1.843  0.00  0.00    +0.130 A 
ATOM     20  C   LIG    1        4.778   4.749  -1.692  0.00  0.00    +0.030 A 
ATOM     21  C   LIG    1        5.499   4.489  -0.526  0.00  0.00    +0.270 A 
ATOM     22  N   LIG    1        4.993   3.681   0.400  0.00  0.00    -0.280 NA
ATOM     23  N   LIG    1        3.847   3.119   0.263  0.00  0.00    -0.180 NA
BRANCH  21  24
ATOM     24  N   LIG    1        6.740   5.073  -0.333  0.00  0.00    -0.460 N 
ATOM     25  C   LIG    1        6.630   6.553  -0.276  0.00  0.00    +0.200 C 
ATOM     26  C   LIG    1        7.934   6.978   0.445  0.00  0.00    +0.040 C 
ATOM     27  C   LIG    1        8.127   5.862   1.497  0.00  0.00    +0.020 C 
ATOM     28  C   LIG    1        7.324   4.662   0.962  0.00  0.00    +0.210 C 
ENDBRANCH  21  24
ENDBRANCH  16  18
TORSDOF 2
