REMARK  Name = ZINCqH0000000vyK.0
REMARK                            x       y       z     vdW  Elec       q    Type
REMARK                         _______ _______ _______ _____ _____    ______ ____
ROOT
ATOM      1  C   LIG    1        4.087   3.489  -1.901  0.00  0.00    +0.600 C 
ATOM      2  N   LIG    1        3.885   3.820  -0.610  0.00  0.00    -0.730 N 
ATOM      3  H   LIG    1        3.556   4.704  -0.382  0.00  0.00    +0.390 HD
ATOM      4  O   LIG    1        4.499   2.381  -2.187  0.00  0.00    -0.510 OA
ENDROOT
BRANCH   1   9
ATOM      5  C   LIG    1        3.587   5.454  -4.952  0.00  0.00    -0.260 A 
ATOM      6  C   LIG    1        3.204   6.349  -3.965  0.00  0.00    +0.110 A 
ATOM      7  N   LIG    1        3.335   5.746  -2.775  0.00  0.00    -0.530 N 
ATOM      8  H   LIG    1        3.130   6.149  -1.916  0.00  0.00    +0.420 HD
ATOM      9  C   LIG    1        3.808   4.465  -2.962  0.00  0.00    -0.070 A 
ATOM     10  C   LIG    1        2.718   7.758  -4.192  0.00  0.00    +0.160 C 
ATOM     11  C   LIG    1        3.969   4.258  -4.299  0.00  0.00    -0.020 A 
ATOM     12  C   LIG    1        4.462   2.995  -4.957  0.00  0.00    +0.120 C 
BRANCH   5  14
ATOM     13  C   LIG    1        2.351   5.444  -7.211  0.00  0.00    +0.070 C 
ATOM     14  C   LIG    1        3.594   5.699  -6.397  0.00  0.00    +0.440 C 
ATOM     15  O   LIG    1        4.600   6.107  -6.939  0.00  0.00    -0.450 OA
ENDBRANCH   5  14
ENDBRANCH   1   9
BRANCH   2  16
ATOM     16  C   LIG    1        4.162   2.846   0.448  0.00  0.00    +0.340 C 
BRANCH  16  17
ATOM     17  C   LIG    1        2.961   1.956   0.639  0.00  0.00    -0.050 A 
ATOM     18  C   LIG    1        1.677   2.477   0.591  0.00  0.00    -0.030 A 
ATOM     19  C   LIG    1        0.600   1.630   0.770  0.00  0.00    +0.260 A 
ATOM     20  N   LIG    1        0.783   0.341   0.984  0.00  0.00    -0.480 NA
ATOM     21  C   LIG    1        1.990  -0.189   1.036  0.00  0.00    +0.260 A 
ATOM     22  C   LIG    1        3.114   0.597   0.866  0.00  0.00    -0.010 A 
ENDBRANCH  16  17
BRANCH  16  23
ATOM     23  C   LIG    1        4.459   3.572   1.735  0.00  0.00    -0.090 A 
ATOM     24  C   LIG    1        3.730   4.696   2.077  0.00  0.00    +0.010 A 
ATOM     25  C   LIG    1        3.999   5.360   3.260  0.00  0.00    +0.020 A 
ATOM     26  C   LIG    1        5.003   4.905   4.095  0.00  0.00    +0.020 A 
ATOM     27  C   LIG    1        5.735   3.785   3.749  0.00  0.00    +0.020 A 
ATOM     28  C   LIG    1        5.463   3.118   2.569  0.00  0.00    +0.030 A 
ENDBRANCH  16  23
ENDBRANCH   2  16
TORSDOF 5
