REMARK  Name = ZINCpk00000KfLE9.0
REMARK                            x       y       z     vdW  Elec       q    Type
REMARK                         _______ _______ _______ _____ _____    ______ ____
ROOT
ATOM      1  N   LIG    1       -0.912   3.087  -0.986  0.00  0.00    -0.720 N 
ATOM      2  H   LIG    1       -0.169   3.538  -0.555  0.00  0.00    +0.400 HD
ATOM      3  C   LIG    1       -1.786   3.789  -1.734  0.00  0.00    +0.560 C 
ATOM      4  O   LIG    1       -2.716   3.224  -2.273  0.00  0.00    -0.510 OA
ENDROOT
BRANCH   3   5
ATOM      5  C   LIG    1       -1.612   5.249  -1.897  0.00  0.00    -0.100 A 
ATOM      6  C   LIG    1       -0.619   5.921  -1.184  0.00  0.00    +0.040 A 
ATOM      7  C   LIG    1       -0.462   7.282  -1.341  0.00  0.00    +0.020 A 
ATOM      8  C   LIG    1       -1.288   7.982  -2.204  0.00  0.00    +0.030 A 
ATOM      9  C   LIG    1       -2.275   7.321  -2.914  0.00  0.00    +0.020 A 
ATOM     10  C   LIG    1       -2.438   5.959  -2.770  0.00  0.00    -0.060 A 
BRANCH  10  11
ATOM     11  C   LIG    1       -3.509   5.240  -3.549  0.00  0.00    +0.380 C 
BRANCH  11  12
ATOM     12  N   LIG    1       -4.706   5.096  -2.716  0.00  0.00    -0.360 N 
ATOM     13  C   LIG    1       -5.951   5.504  -3.017  0.00  0.00    +0.450 A 
ATOM     14  N   LIG    1       -6.734   5.190  -2.017  0.00  0.00    -0.550 NA
ATOM     15  C   LIG    1       -6.026   4.591  -1.060  0.00  0.00    +0.390 A 
ATOM     16  N   LIG    1       -4.778   4.511  -1.442  0.00  0.00    -0.280 NA
ENDBRANCH  11  12
ENDBRANCH  10  11
ENDBRANCH   3   5
BRANCH   1  18
ATOM     17  C   LIG    1       -0.433   0.915  -2.003  0.00  0.00    +0.030 C 
ATOM     18  C   LIG    1       -1.084   1.641  -0.824  0.00  0.00    +0.240 C 
BRANCH  18  19
ATOM     19  C   LIG    1       -0.421   1.192   0.480  0.00  0.00    +0.010 C 
BRANCH  19  20
ATOM     20  C   LIG    1       -1.152   1.822   1.667  0.00  0.00    +0.290 C 
BRANCH  20  21
ATOM     21  N   LIG    1       -0.518   1.391   2.916  0.00  0.00    -0.620 N 
ATOM     22  C   LIG    1       -0.907   0.196   3.673  0.00  0.00    +0.250 C 
ATOM     23  C   LIG    1        0.279  -0.091   4.624  0.00  0.00    +0.040 C 
ATOM     24  C   LIG    1        0.905   1.315   4.777  0.00  0.00    +0.040 C 
ATOM     25  C   LIG    1        0.492   2.044   3.518  0.00  0.00    +0.520 C 
ATOM     26  O   LIG    1        0.997   3.069   3.111  0.00  0.00    -0.530 OA
ENDBRANCH  20  21
ENDBRANCH  19  20
ENDBRANCH  18  19
ENDBRANCH   1  18
TORSDOF 7
