REMARK  Name = ZINCkj00000cxUPm.0
REMARK                            x       y       z     vdW  Elec       q    Type
REMARK                         _______ _______ _______ _____ _____    ______ ____
ROOT
ATOM      1  C   LIG    1       -0.014   1.209   0.009  0.00  0.00    +0.500 C 
ATOM      2  N   LIG    1        1.143   1.898   0.001  0.00  0.00    -0.730 N 
ATOM      3  H   LIG    1        1.130   2.868   0.007  0.00  0.00    +0.410 HD
ATOM      4  O   LIG    1        0.002  -0.004   0.002  0.00  0.00    -0.500 OA
ENDROOT
BRANCH   1   5
ATOM      5  C   LIG    1       -1.330   1.944   0.019  0.00  0.00    +0.380 C 
BRANCH   5  12
ATOM      6  C   LIG    1       -2.700   0.781  -2.507  0.00  0.00    +0.150 C 
ATOM      7  C   LIG    1       -3.035   0.463  -1.072  0.00  0.00    +0.090 A 
ATOM      8  C   LIG    1       -3.994  -0.392  -0.648  0.00  0.00    -0.110 A 
ATOM      9  C   LIG    1       -3.982  -0.393   0.751  0.00  0.00    +0.090 A 
ATOM     10  N   LIG    1       -3.044   0.427   1.152  0.00  0.00    -0.290 NA
ATOM     11  C   LIG    1       -4.891  -1.199   1.642  0.00  0.00    +0.150 C 
ATOM     12  N   LIG    1       -2.430   0.977   0.019  0.00  0.00    -0.370 N 
ENDBRANCH   5  12
ENDBRANCH   1   5
BRANCH   2  13
ATOM     13  C   LIG    1        2.422   1.183  -0.015  0.00  0.00    +0.270 C 
BRANCH  13  14
ATOM     14  C   LIG    1        3.571   2.193  -0.020  0.00  0.00    +0.260 C 
BRANCH  14  15
ATOM     15  N   LIG    1        4.853   1.476  -0.036  0.00  0.00    -0.380 N 
ATOM     16  C   LIG    1        4.877   0.544  -1.171  0.00  0.00    +0.240 C 
ATOM     17  C   LIG    1        6.176  -0.263  -1.145  0.00  0.00    +0.060 C 
ATOM     18  C   LIG    1        7.368   0.694  -1.244  0.00  0.00    -0.010 C 
ATOM     19  C   LIG    1        7.292   1.708  -0.098  0.00  0.00    +0.060 C 
ATOM     20  C   LIG    1        8.673  -0.098  -1.140  0.00  0.00    +0.050 C 
ATOM     21  C   LIG    1        5.951   2.442  -0.162  0.00  0.00    +0.260 C 
ATOM     22  H   LIG    1        4.959   0.959   0.823  0.00  0.00    +0.430 HD
ENDBRANCH  14  15
ENDBRANCH  13  14
ENDBRANCH   2  13
TORSDOF 5
