REMARK  Name = ZINCqH0000005nRG.1
REMARK                            x       y       z     vdW  Elec       q    Type
REMARK                         _______ _______ _______ _____ _____    ______ ____
ROOT
ATOM      1  N   LIG    1        2.936   7.880   0.015  0.00  0.00    -0.670 N 
ATOM      2  H   LIG    1        2.535   7.141  -0.469  0.00  0.00    +0.410 HD
ATOM      3  C   LIG    1        4.147   7.732   0.588  0.00  0.00    +0.510 C 
ATOM      4  O   LIG    1        4.686   8.680   1.120  0.00  0.00    -0.520 OA
ENDROOT
BRANCH   1   8
ATOM      5  C   LIG    1        0.912  11.514   0.324  0.00  0.00    +0.100 A 
ATOM      6  C   LIG    1        2.297  11.497   0.214  0.00  0.00    +0.010 A 
ATOM      7  C   LIG    1        2.966  10.294   0.112  0.00  0.00    +0.050 A 
ATOM      8  C   LIG    1        2.256   9.101   0.119  0.00  0.00    +0.110 A 
ATOM      9  C   LIG    1        0.871   9.118   0.222  0.00  0.00    +0.010 A 
ATOM     10  C   LIG    1        0.202  10.321   0.330  0.00  0.00    -0.020 A 
BRANCH   5  15
ATOM     11  C   LIG    1       -2.141  15.941   1.813  0.00  0.00    +0.190 C 
ATOM     12  N   LIG    1       -1.428  14.661   1.703  0.00  0.00    -0.550 NA
ATOM     13  C   LIG    1       -1.927  13.876   0.565  0.00  0.00    +0.170 C 
ATOM     14  C   LIG    1       -1.217  12.521   0.533  0.00  0.00    +0.200 C 
ATOM     15  N   LIG    1        0.234  12.733   0.428  0.00  0.00    -0.490 N 
ATOM     16  C   LIG    1        0.732  13.517   1.567  0.00  0.00    +0.200 C 
ATOM     17  C   LIG    1        0.022  14.873   1.598  0.00  0.00    +0.180 C 
ENDBRANCH   5  15
ENDBRANCH   1   8
BRANCH   3  18
ATOM     18  C   LIG    1        4.832   6.390   0.566  0.00  0.00    +0.090 C 
BRANCH  18  19
ATOM     19  C   LIG    1        6.182   6.495   1.278  0.00  0.00    +0.060 C 
BRANCH  19  20
ATOM     20  C   LIG    1        6.867   5.153   1.257  0.00  0.00    +0.430 C 
ATOM     21  O   LIG    1        6.328   4.205   0.724  0.00  0.00    -0.450 OA
BRANCH  20  22
ATOM     22  C   LIG    1        8.135   4.999   1.856  0.00  0.00    -0.310 A 
ATOM     23  C   LIG    1        8.858   3.833   1.902  0.00  0.00    +0.130 A 
ATOM     24  C   LIG    1       10.060   3.966   2.547  0.00  0.00    +0.010 A 
ATOM     25  C   LIG    1       10.321   5.196   3.017  0.00  0.00    -0.160 A 
ATOM     26 CL   LIG    1       11.768   5.636   3.870  0.00  0.00    +0.000 Cl
ATOM     27  S   LIG    1        9.043   6.269   2.664  0.00  0.00    +0.290 S 
ENDBRANCH  20  22
ENDBRANCH  19  20
ENDBRANCH  18  19
ENDBRANCH   3  18
TORSDOF 6
