REMARK  Name = ZINCtV000002BwFW.0
REMARK                            x       y       z     vdW  Elec       q    Type
REMARK                         _______ _______ _______ _____ _____    ______ ____
ROOT
ATOM      1  N   LIG    1        2.363   3.886  -0.002  0.00  0.00    -0.480 N 
ATOM      2  C   LIG    1        3.543   3.234   0.003  0.00  0.00    +0.530 C 
ATOM      3  O   LIG    1        3.566   2.022  -0.003  0.00  0.00    -0.490 OA
ENDROOT
BRANCH   1   4
ATOM      4  C   LIG    1        2.335   5.269  -0.100  0.00  0.00    +0.340 A 
ATOM      5  N   LIG    1        3.376   6.019  -0.209  0.00  0.00    -0.500 NA
ATOM      6  C   LIG    1        3.188   7.351  -0.296  0.00  0.00    +0.110 A 
ATOM      7  C   LIG    1        4.152   8.373  -0.421  0.00  0.00    +0.070 A 
ATOM      8  C   LIG    1        3.766   9.687  -0.497  0.00  0.00    +0.040 A 
ATOM      9  C   LIG    1        2.424  10.033  -0.452  0.00  0.00    +0.030 A 
ATOM     10  C   LIG    1        1.464   9.052  -0.331  0.00  0.00    +0.060 A 
ATOM     11  C   LIG    1        1.838   7.713  -0.252  0.00  0.00    -0.190 A 
ATOM     12  S   LIG    1        0.873   6.246  -0.102  0.00  0.00    +0.100 S 
ENDBRANCH   1   4
BRANCH   1  17
ATOM     13  C   LIG    1       -0.562   2.166   1.429  0.00  0.00    +0.140 A 
ATOM     14  C   LIG    1       -1.208   1.748   0.274  0.00  0.00    -0.050 A 
ATOM     15  C   LIG    1       -0.666   2.031  -0.965  0.00  0.00    +0.070 A 
ATOM     16  C   LIG    1        0.516   2.740  -1.059  0.00  0.00    +0.000 A 
ATOM     17  C   LIG    1        1.165   3.166   0.094  0.00  0.00    +0.140 A 
ATOM     18  C   LIG    1        0.624   2.878   1.339  0.00  0.00    +0.010 A 
BRANCH  13  20
ATOM     19  C   LIG    1       -2.318   1.146   2.664  0.00  0.00    +0.250 C 
ATOM     20  O   LIG    1       -1.094   1.883   2.647  0.00  0.00    -0.310 OA
ENDBRANCH  13  20
ENDBRANCH   1  17
BRANCH   2  21
ATOM     21  C   LIG    1        4.833   4.012   0.015  0.00  0.00    +0.120 C 
BRANCH  21  22
ATOM     22  C   LIG    1        6.015   3.040   0.017  0.00  0.00    +0.040 C 
ATOM     23  C   LIG    1        6.029   2.252  -1.294  0.00  0.00    +0.030 C 
BRANCH  22  24
ATOM     24  C   LIG    1        7.301   3.814   0.153  0.00  0.00    -0.070 A 
ATOM     25  C   LIG    1        7.648   4.751  -0.802  0.00  0.00    +0.010 A 
ATOM     26  C   LIG    1        8.826   5.463  -0.675  0.00  0.00    +0.000 A 
ATOM     27  C   LIG    1        9.661   5.232   0.402  0.00  0.00    +0.000 A 
ATOM     28  C   LIG    1        9.317   4.291   1.354  0.00  0.00    +0.000 A 
ATOM     29  C   LIG    1        8.137   3.582   1.230  0.00  0.00    +0.000 A 
ENDBRANCH  22  24
ENDBRANCH  21  22
ENDBRANCH   2  21
TORSDOF 6
