REMARK  Name = ZINCpk00000eb2h0.0
REMARK                            x       y       z     vdW  Elec       q    Type
REMARK                         _______ _______ _______ _____ _____    ______ ____
ROOT
ATOM      1  C   LIG    1        1.645   7.280   0.227  0.00  0.00    +0.200 C 
ATOM      2  C   LIG    1        1.804   7.809  -1.200  0.00  0.00    +0.070 C 
ENDROOT
BRANCH   1   3
ATOM      3  C   LIG    1        2.839   7.688   1.051  0.00  0.00    +0.510 C 
ATOM      4  N   LIG    1        3.071   8.992   1.301  0.00  0.00    -0.640 N 
ATOM      5  H   LIG    1        2.469   9.668   0.952  0.00  0.00    +0.430 HD
ATOM      6  O   LIG    1        3.591   6.844   1.488  0.00  0.00    -0.430 OA
BRANCH   4   7
ATOM      7  C   LIG    1        4.172   9.368   2.060  0.00  0.00    +0.480 A 
ATOM      8  C   LIG    1        4.432  10.722   2.326  0.00  0.00    -0.090 A 
ATOM      9  N   LIG    1        3.820  11.889   2.014  0.00  0.00    -0.470 NA
ATOM     10  C   LIG    1        4.487  12.880   2.530  0.00  0.00    +0.500 A 
ATOM     11  N   LIG    1        5.568  12.409   3.213  0.00  0.00    -0.580 N 
ATOM     12  H   LIG    1        6.224  12.942   3.689  0.00  0.00    +0.440 HD
ATOM     13  C   LIG    1        5.559  11.041   3.105  0.00  0.00    +0.300 A 
ATOM     14  N   LIG    1        6.335  10.059   3.549  0.00  0.00    -0.540 NA
ATOM     15  C   LIG    1        6.055   8.803   3.269  0.00  0.00    +0.560 A 
ATOM     16  N   LIG    1        5.006   8.456   2.546  0.00  0.00    -0.520 NA
ENDBRANCH   4   7
ENDBRANCH   1   3
BRANCH   1  17
ATOM     17  O   LIG    1        1.548   5.832   0.199  0.00  0.00    -0.320 OA
BRANCH  17  18
ATOM     18  C   LIG    1        0.314   5.303   0.084  0.00  0.00    +0.530 C 
ATOM     19  O   LIG    1       -0.655   6.032   0.009  0.00  0.00    -0.520 OA
BRANCH  18  25
ATOM     20  C   LIG    1       -2.679   1.295   0.013  0.00  0.00    +0.090 C 
ATOM     21  C   LIG    1       -1.300   1.902   0.015  0.00  0.00    -0.180 A 
ATOM     22  C   LIG    1       -0.188   1.086  -0.019  0.00  0.00    +0.100 A 
ATOM     23  C   LIG    1        1.086   1.634  -0.024  0.00  0.00    -0.060 A 
ATOM     24  C   LIG    1        1.256   3.000   0.009  0.00  0.00    +0.130 A 
ATOM     25  C   LIG    1        0.140   3.841   0.049  0.00  0.00    -0.220 A 
ATOM     26  C   LIG    1       -1.149   3.283   0.054  0.00  0.00    +0.290 A 
BRANCH  26  27
ATOM     27  N   LIG    1       -2.266   4.106   0.093  0.00  0.00    -0.850 N 
ATOM     28  H   LIG    1       -3.151   3.719   0.181  0.00  0.00    +0.400 HD
ATOM     29  H   LIG    1       -2.162   5.068   0.032  0.00  0.00    +0.420 HD
ENDBRANCH  26  27
ENDBRANCH  18  25
ENDBRANCH  17  18
ENDBRANCH   1  17
TORSDOF 6
