REMARK  Name = ZINCrH000004v2Br.0
REMARK                            x       y       z     vdW  Elec       q    Type
REMARK                         _______ _______ _______ _____ _____    ______ ____
ROOT
ATOM      1  C   LIG    1       -0.090   1.047  -0.262  0.00  0.00    +0.570 C 
ATOM      2  N   LIG    1        1.086   1.683  -0.095  0.00  0.00    -0.650 N 
ATOM      3  H   LIG    1        1.110   2.651  -0.033  0.00  0.00    +0.420 HD
ATOM      4  O   LIG    1       -0.115  -0.162  -0.384  0.00  0.00    -0.490 OA
ENDROOT
BRANCH   1   8
ATOM      5  O   LIG    1       -2.588   5.136  -0.174  0.00  0.00    -0.520 OA
ATOM      6  C   LIG    1       -2.600   3.921  -0.257  0.00  0.00    +0.540 A 
ATOM      7  C   LIG    1       -1.339   3.184  -0.205  0.00  0.00    +0.010 A 
ATOM      8  C   LIG    1       -1.353   1.822  -0.305  0.00  0.00    -0.030 A 
ATOM      9  C   LIG    1       -2.649   1.142  -0.450  0.00  0.00    -0.110 A 
ATOM     10  C   LIG    1       -2.716  -0.251  -0.551  0.00  0.00    +0.110 A 
ATOM     11  C   LIG    1       -3.929  -0.865  -0.685  0.00  0.00    -0.020 A 
ATOM     12  C   LIG    1       -5.098  -0.117  -0.723  0.00  0.00    +0.080 A 
ATOM     13  C   LIG    1       -5.055   1.257  -0.625  0.00  0.00    -0.030 A 
ATOM     14  C   LIG    1       -3.830   1.904  -0.488  0.00  0.00    +0.190 A 
ATOM     15  N   LIG    1       -3.773   3.278  -0.390  0.00  0.00    -0.620 N 
ATOM     16  H   LIG    1       -4.596   3.791  -0.417  0.00  0.00    +0.420 HD
ENDBRANCH   1   8
BRANCH   2  17
ATOM     17  C   LIG    1        2.274   0.947  -0.009  0.00  0.00    +0.140 A 
ATOM     18  C   LIG    1        2.231  -0.438   0.051  0.00  0.00    +0.150 A 
ATOM     19  C   LIG    1        3.406  -1.162   0.130  0.00  0.00    -0.040 A 
ATOM     20  C   LIG    1        4.624  -0.509   0.160  0.00  0.00    +0.130 A 
ATOM     21  C   LIG    1        4.675   0.872   0.105  0.00  0.00    -0.010 A 
ATOM     22  C   LIG    1        3.503   1.605   0.021  0.00  0.00    +0.130 A 
BRANCH  19  23
ATOM     23  N   LIG    1        3.359  -2.640   0.190  0.00  0.00    +0.030 N 
ATOM     24  O   LIG    1        2.286  -3.217   0.164  0.00  0.00    -0.150 OA
ATOM     25  O   LIG    1        4.393  -3.280   0.265  0.00  0.00    -0.160 OA
ENDBRANCH  19  23
BRANCH  22  26
ATOM     26  O   LIG    1        3.550   2.963  -0.033  0.00  0.00    -0.320 OA
BRANCH  26  27
ATOM     27  C   LIG    1        4.845   3.568   0.002  0.00  0.00    +0.600 C 
ATOM     28  F   LIG    1        5.598   3.122  -1.089  0.00  0.00    -0.190 F 
ATOM     29  F   LIG    1        5.492   3.215   1.191  0.00  0.00    -0.190 F 
ENDBRANCH  26  27
ENDBRANCH  22  26
ENDBRANCH   2  17
TORSDOF 5
