REMARK  Name = ZINCqH0000008xFf.0
REMARK                            x       y       z     vdW  Elec       q    Type
REMARK                         _______ _______ _______ _____ _____    ______ ____
ROOT
ATOM      1  N   LIG    1       -0.979   1.301  -0.066  0.00  0.00    -0.610 N 
ATOM      2  C   LIG    1       -0.367   2.605  -0.350  0.00  0.00    +0.300 C 
ATOM      3  C   LIG    1        1.153   2.397  -0.171  0.00  0.00    +0.010 C 
ATOM      4  C   LIG    1        1.297   0.880  -0.438  0.00  0.00    +0.070 C 
ATOM      5  C   LIG    1       -0.067   0.314  -0.109  0.00  0.00    +0.520 C 
ATOM      6  O   LIG    1       -0.304  -0.860   0.083  0.00  0.00    -0.520 OA
ENDROOT
BRANCH   3   7
ATOM      7  C   LIG    1        1.931   3.199  -1.182  0.00  0.00    +0.530 C 
ATOM      8  N   LIG    1        3.268   3.056  -1.270  0.00  0.00    -0.670 N 
ATOM      9  H   LIG    1        3.721   2.385  -0.736  0.00  0.00    +0.410 HD
ATOM     10  O   LIG    1        1.353   3.972  -1.917  0.00  0.00    -0.510 OA
BRANCH   8  11
ATOM     11  C   LIG    1        4.003   3.876  -2.134  0.00  0.00    +0.140 A 
ATOM     12  C   LIG    1        3.462   4.270  -3.350  0.00  0.00    +0.020 A 
ATOM     13  C   LIG    1        4.189   5.084  -4.195  0.00  0.00    +0.030 A 
ATOM     14  C   LIG    1        5.462   5.499  -3.841  0.00  0.00    -0.110 A 
ATOM     15  C   LIG    1        6.449   6.374  -4.584  0.00  0.00    +0.080 C 
ATOM     16  C   LIG    1        7.470   6.827  -3.519  0.00  0.00    +0.030 C 
ATOM     17  C   LIG    1        7.396   5.686  -2.482  0.00  0.00    +0.080 C 
ATOM     18  C   LIG    1        6.007   5.104  -2.632  0.00  0.00    -0.080 A 
ATOM     19  C   LIG    1        5.279   4.293  -1.780  0.00  0.00    -0.010 A 
ENDBRANCH   8  11
ENDBRANCH   3   7
BRANCH   1  21
ATOM     20  C   LIG    1       -2.758   1.830   1.525  0.00  0.00    +0.040 C 
ATOM     21  C   LIG    1       -2.399   1.101   0.229  0.00  0.00    +0.300 C 
BRANCH  21  22
ATOM     22  C   LIG    1       -3.230   1.650  -0.902  0.00  0.00    -0.100 A 
ATOM     23  C   LIG    1       -3.061   2.960  -1.311  0.00  0.00    +0.010 A 
ATOM     24  C   LIG    1       -3.819   3.462  -2.352  0.00  0.00    +0.000 A 
ATOM     25  C   LIG    1       -4.754   2.658  -2.978  0.00  0.00    +0.000 A 
ATOM     26  C   LIG    1       -4.926   1.350  -2.565  0.00  0.00    +0.000 A 
ATOM     27  C   LIG    1       -4.164   0.846  -1.528  0.00  0.00    +0.010 A 
ENDBRANCH  21  22
ENDBRANCH   1  21
TORSDOF 4
