REMARK  Name = ZINCrH000004nCpG.0
REMARK                            x       y       z     vdW  Elec       q    Type
REMARK                         _______ _______ _______ _____ _____    ______ ____
ROOT
ATOM      1  C   LIG    1        4.833   4.227  -0.236  0.00  0.00    -0.120 A 
ATOM      2  C   LIG    1        6.052   3.546  -0.246  0.00  0.00    +0.040 A 
ATOM      3  C   LIG    1        7.232   4.252  -0.364  0.00  0.00    +0.030 A 
ATOM      4  C   LIG    1        7.209   5.632  -0.461  0.00  0.00    -0.100 A 
ATOM      5  C   LIG    1        6.005   6.313  -0.446  0.00  0.00    +0.040 A 
ATOM      6  C   LIG    1        4.818   5.620  -0.334  0.00  0.00    +0.080 A 
ENDROOT
BRANCH   1   9
ATOM      7  N   LIG    1        3.583   2.133  -0.022  0.00  0.00    -0.660 N 
ATOM      8  H   LIG    1        4.429   1.663   0.048  0.00  0.00    +0.410 HD
ATOM      9  C   LIG    1        3.565   3.477  -0.116  0.00  0.00    +0.560 C 
ATOM     10  O   LIG    1        2.506   4.073  -0.102  0.00  0.00    -0.510 OA
BRANCH   7  16
ATOM     11  C   LIG    1        2.319   0.155   0.568  0.00  0.00    +0.100 A 
ATOM     12  C   LIG    1        1.127  -0.551   0.561  0.00  0.00    -0.060 A 
ATOM     13  C   LIG    1        0.004  -0.007  -0.032  0.00  0.00    +0.030 A 
ATOM     14  C   LIG    1        0.065   1.243  -0.620  0.00  0.00    +0.000 A 
ATOM     15  C   LIG    1        1.250   1.954  -0.618  0.00  0.00    +0.050 A 
ATOM     16  C   LIG    1        2.381   1.414  -0.025  0.00  0.00    +0.120 A 
BRANCH  11  18
ATOM     17  C   LIG    1        3.287  -1.675   1.738  0.00  0.00    +0.250 C 
ATOM     18  O   LIG    1        3.425  -0.380   1.150  0.00  0.00    -0.320 OA
ENDBRANCH  11  18
ENDBRANCH   7  16
ENDBRANCH   1   9
BRANCH   4  19
ATOM     19  C   LIG    1        8.502   6.396  -0.583  0.00  0.00    +0.400 C 
BRANCH  19  20
ATOM     20  N   LIG    1        8.993   6.742   0.753  0.00  0.00    -0.390 N 
ATOM     21  N   LIG    1        8.705   7.908   1.478  0.00  0.00    -0.000 NA
ATOM     22  N   LIG    1        9.309   7.867   2.613  0.00  0.00    -0.220 NA
ATOM     23  C   LIG    1       10.020   6.727   2.724  0.00  0.00    -0.020 A 
ATOM     24  C   LIG    1       10.841   6.206   3.732  0.00  0.00    +0.110 A 
ATOM     25  C   LIG    1       11.447   4.996   3.559  0.00  0.00    +0.000 A 
ATOM     26  C   LIG    1       11.261   4.269   2.391  0.00  0.00    +0.080 A 
ATOM     27  C   LIG    1       10.459   4.759   1.385  0.00  0.00    +0.000 A 
ATOM     28  C   LIG    1        9.832   5.990   1.541  0.00  0.00    +0.090 A 
ENDBRANCH  19  20
ENDBRANCH   4  19
TORSDOF 5
