REMARK  Name = ZINCrH000004qio8.0
REMARK                            x       y       z     vdW  Elec       q    Type
REMARK                         _______ _______ _______ _____ _____    ______ ____
ROOT
ATOM      1  C   LIG    1       -2.258  -4.184  -0.107  0.00  0.00    +0.570 C 
ATOM      2  N   LIG    1       -2.395  -2.846  -0.018  0.00  0.00    -0.550 N 
ATOM      3  C   LIG    1       -3.730  -2.251   0.074  0.00  0.00    +0.310 C 
ATOM      4  O   LIG    1       -1.150  -4.684  -0.094  0.00  0.00    -0.490 OA
ENDROOT
BRANCH   1  11
ATOM      5  C   LIG    1       -2.634  -6.360   1.761  0.00  0.00    +0.110 C 
ATOM      6  C   LIG    1       -3.647  -6.097   0.676  0.00  0.00    -0.000 A 
ATOM      7  C   LIG    1       -4.763  -6.896   0.568  0.00  0.00    +0.030 A 
ATOM      8  C   LIG    1       -5.698  -6.654  -0.433  0.00  0.00    +0.180 A 
ATOM      9  C   LIG    1       -5.510  -5.606  -1.327  0.00  0.00    +0.000 A 
ATOM     10  C   LIG    1       -4.398  -4.800  -1.221  0.00  0.00    +0.090 A 
ATOM     11  C   LIG    1       -3.454  -5.043  -0.220  0.00  0.00    -0.140 A 
BRANCH   8  12
ATOM     12  N   LIG    1       -6.831  -7.468  -0.541  0.00  0.00    -0.340 N 
ATOM     13  C   LIG    1       -7.822  -7.357  -1.447  0.00  0.00    +0.500 A 
ATOM     14  N   LIG    1       -8.692  -8.306  -1.214  0.00  0.00    -0.530 NA
ATOM     15  C   LIG    1       -8.299  -9.033  -0.168  0.00  0.00    +0.440 A 
ATOM     16  N   LIG    1       -7.165  -8.559   0.278  0.00  0.00    -0.310 NA
ENDBRANCH   8  12
ENDBRANCH   1  11
BRANCH   2  17
ATOM     17  C   LIG    1       -1.262  -2.026  -0.015  0.00  0.00    +0.190 A 
ATOM     18  C   LIG    1        0.005  -2.591   0.057  0.00  0.00    +0.010 A 
ATOM     19  C   LIG    1        1.124  -1.781   0.060  0.00  0.00    +0.090 A 
ATOM     20  C   LIG    1        0.987  -0.408  -0.014  0.00  0.00    -0.080 A 
ATOM     21  C   LIG    1       -0.277   0.162  -0.080  0.00  0.00    +0.130 A 
ATOM     22  C   LIG    1       -1.402  -0.647  -0.083  0.00  0.00    -0.030 A 
BRANCH  21  23
ATOM     23  O   LIG    1       -0.411   1.513  -0.147  0.00  0.00    -0.310 OA
BRANCH  23  24
ATOM     24  C   LIG    1        0.791   2.285  -0.139  0.00  0.00    +0.610 C 
ATOM     25  F   LIG    1        1.498   2.035   1.042  0.00  0.00    -0.160 F 
ATOM     26  F   LIG    1        0.472   3.645  -0.213  0.00  0.00    -0.130 F 
ATOM     27  F   LIG    1        1.580   1.931  -1.239  0.00  0.00    -0.160 F 
ENDBRANCH  23  24
ENDBRANCH  21  23
ENDBRANCH   2  17
TORSDOF 5
