REMARK  Name = ZINCrD00000cI0vD.0
REMARK                            x       y       z     vdW  Elec       q    Type
REMARK                         _______ _______ _______ _____ _____    ______ ____
ROOT
ATOM      1  C   LIG    1       -0.019   1.526   0.010  0.00  0.00    +0.060 C 
ATOM      2  C   LIG    1        0.002  -0.004   0.002  0.00  0.00    -0.080 C 
ATOM      3  C   LIG    1       -1.308  -0.639  -0.500  0.00  0.00    +0.290 C 
ATOM      4  N   LIG    1       -0.448  -1.584  -1.239  0.00  0.00    -0.620 N 
ATOM      5  C   LIG    1       -0.610  -2.836  -1.713  0.00  0.00    +0.610 C 
ATOM      6  O   LIG    1        0.301  -3.385  -2.303  0.00  0.00    -0.510 OA
ATOM      7  C   LIG    1        0.512  -0.601   1.315  0.00  0.00    +0.070 C 
ATOM      8  C   LIG    1        0.662  -0.608  -1.251  0.00  0.00    +0.340 C 
ENDROOT
BRANCH   5   9
ATOM      9  C   LIG    1       -1.887  -3.537  -1.516  0.00  0.00    +0.000 A 
ATOM     10  C   LIG    1       -2.185  -4.814  -1.946  0.00  0.00    +0.050 A 
ATOM     11  C   LIG    1       -3.493  -5.093  -1.557  0.00  0.00    +0.040 A 
ATOM     12  C   LIG    1       -3.975  -3.982  -0.893  0.00  0.00    +0.090 A 
ATOM     13  N   LIG    1       -2.987  -3.038  -0.867  0.00  0.00    -0.520 N 
ATOM     14  H   LIG    1       -3.054  -2.160  -0.459  0.00  0.00    +0.420 HD
BRANCH  12  15
ATOM     15  C   LIG    1       -5.283  -3.845  -0.326  0.00  0.00    +0.270 C 
ATOM     16  N   LIG    1       -6.320  -3.736   0.125  0.00  0.00    -0.390 NA
ENDBRANCH  12  15
ENDBRANCH   5   9
BRANCH   8  17
ATOM     17  C   LIG    1        0.651   0.310  -2.446  0.00  0.00    +0.200 A 
ATOM     18  N   LIG    1       -0.386   0.574  -3.193  0.00  0.00    -0.470 NA
ATOM     19  C   LIG    1       -0.028   1.431  -4.160  0.00  0.00    +0.140 A 
ATOM     20  C   LIG    1        1.283   1.703  -4.011  0.00  0.00    +0.140 A 
ATOM     21  N   LIG    1        1.714   0.992  -2.924  0.00  0.00    -0.440 N 
BRANCH  21  22
ATOM     22  C   LIG    1        3.074   0.974  -2.381  0.00  0.00    +0.350 C 
BRANCH  22  23
ATOM     23  C   LIG    1        3.826  -0.202  -2.948  0.00  0.00    -0.120 A 
ATOM     24  C   LIG    1        3.802  -1.419  -2.292  0.00  0.00    +0.020 A 
ATOM     25  C   LIG    1        4.488  -2.499  -2.814  0.00  0.00    +0.020 A 
ATOM     26  C   LIG    1        5.205  -2.361  -3.988  0.00  0.00    +0.020 A 
ATOM     27  C   LIG    1        5.234  -1.143  -4.641  0.00  0.00    +0.010 A 
ATOM     28  C   LIG    1        4.544  -0.063  -4.121  0.00  0.00    +0.020 A 
ENDBRANCH  22  23
ENDBRANCH  21  22
ENDBRANCH   8  17
TORSDOF 5
