REMARK  Name = ZINCrg000009DEHh.0
REMARK                            x       y       z     vdW  Elec       q    Type
REMARK                         _______ _______ _______ _____ _____    ______ ____
ROOT
ATOM      1  N   LIG    1       -0.721   1.571  -1.179  0.00  0.00    -0.720 N 
ATOM      2  H   LIG    1       -1.516   2.118  -1.079  0.00  0.00    +0.410 HD
ATOM      3  C   LIG    1       -0.268   1.258  -2.409  0.00  0.00    +0.610 C 
ATOM      4  O   LIG    1        0.730   0.573  -2.534  0.00  0.00    -0.520 OA
ENDROOT
BRANCH   3   5
ATOM      5  C   LIG    1       -0.978   1.744  -3.597  0.00  0.00    -0.070 A 
ATOM      6  C   LIG    1       -0.628   1.503  -4.895  0.00  0.00    +0.040 A 
ATOM      7  C   LIG    1       -1.579   2.154  -5.697  0.00  0.00    -0.010 A 
ATOM      8  C   LIG    1       -2.455   2.757  -4.864  0.00  0.00    -0.010 A 
ATOM      9  O   LIG    1       -2.093   2.503  -3.599  0.00  0.00    -0.160 OA
BRANCH   8  10
ATOM     10  C   LIG    1       -3.648   3.574  -5.287  0.00  0.00    +0.460 C 
BRANCH  10  11
ATOM     11  N   LIG    1       -4.816   2.700  -5.423  0.00  0.00    -0.380 N 
ATOM     12  C   LIG    1       -6.005   2.862  -4.804  0.00  0.00    +0.240 A 
ATOM     13  C   LIG    1       -6.813   1.848  -5.192  0.00  0.00    -0.120 A 
ATOM     14  C   LIG    1       -6.093   1.039  -6.078  0.00  0.00    +0.240 A 
ATOM     15  N   LIG    1       -4.898   1.552  -6.221  0.00  0.00    -0.290 NA
ENDBRANCH  10  11
ENDBRANCH   8  10
ENDBRANCH   3   5
BRANCH   1  16
ATOM     16  C   LIG    1       -0.013   1.086   0.008  0.00  0.00    +0.290 C 
BRANCH  16  23
ATOM     17  C   LIG    1       -1.934  -0.171   6.619  0.00  0.00    +0.570 C 
ATOM     18  N   LIG    1       -1.335   0.210   5.473  0.00  0.00    -0.640 N 
ATOM     19  C   LIG    1       -0.852  -0.504   4.272  0.00  0.00    +0.300 C 
ATOM     20  C   LIG    1       -1.018   0.832   3.552  0.00  0.00    -0.130 C 
ATOM     21  C   LIG    1       -2.346   1.037   2.813  0.00  0.00    +0.240 C 
ATOM     22  O   LIG    1       -2.004   0.915   1.413  0.00  0.00    -0.360 OA
ATOM     23  C   LIG    1       -0.729   1.579   1.267  0.00  0.00    +0.140 C 
ATOM     24  C   LIG    1        0.071   1.184   2.531  0.00  0.00    +0.050 C 
ATOM     25  C   LIG    1       -0.900   1.508   4.916  0.00  0.00    +0.300 C 
ATOM     26  O   LIG    1       -2.180  -1.345   6.816  0.00  0.00    -0.540 OA
BRANCH  17  28
ATOM     27  C   LIG    1       -2.880   0.459   8.764  0.00  0.00    +0.150 C 
ATOM     28  C   LIG    1       -2.289   0.834   7.633  0.00  0.00    -0.100 C 
ENDBRANCH  17  28
ENDBRANCH  16  23
ENDBRANCH   1  16
TORSDOF 6
