REMARK  Name = ZINCkj000005fiSy.0
REMARK                            x       y       z     vdW  Elec       q    Type
REMARK                         _______ _______ _______ _____ _____    ______ ____
ROOT
ATOM      1  S   LIG    1       -0.132  -2.491   0.791  0.00  0.00    +2.730 S 
ATOM      2  O   LIG    1       -1.137  -1.826   1.544  0.00  0.00    -0.950 OA
ATOM      3  O   LIG    1        0.288  -3.822   1.060  0.00  0.00    -0.960 OA
ENDROOT
BRANCH   1   6
ATOM      4  N   LIG    1        3.394  -0.833   0.874  0.00  0.00    -0.350 N 
ATOM      5  C   LIG    1        2.587  -1.903   0.721  0.00  0.00    +0.360 A 
ATOM      6  C   LIG    1        1.311  -1.484   0.889  0.00  0.00    -0.820 A 
ATOM      7  C   LIG    1        1.340  -0.111   1.153  0.00  0.00    +0.330 A 
ATOM      8  N   LIG    1        2.588   0.280   1.144  0.00  0.00    -0.280 NA
BRANCH   4  10
ATOM      9  C   LIG    1        5.459  -1.232   2.123  0.00  0.00    +0.060 C 
ATOM     10  C   LIG    1        4.856  -0.835   0.774  0.00  0.00    +0.250 C 
ATOM     11  C   LIG    1        5.293  -1.839  -0.295  0.00  0.00    +0.060 C 
ENDBRANCH   4  10
ENDBRANCH   1   6
BRANCH   1  12
ATOM     12  N   LIG    1       -0.638  -2.470  -0.785  0.00  0.00    -1.120 NA
ATOM     13  H   LIG    1       -1.492  -2.070  -1.015  0.00  0.00    +0.420 HD
BRANCH  12  14
ATOM     14  C   LIG    1        0.202  -3.057  -1.832  0.00  0.00    +0.300 C 
BRANCH  14  15
ATOM     15  C   LIG    1       -0.627  -3.248  -3.104  0.00  0.00    -0.090 C 
ATOM     16  C   LIG    1       -1.159  -1.893  -3.575  0.00  0.00    +0.060 C 
ATOM     17  C   LIG    1       -1.802  -4.183  -2.810  0.00  0.00    +0.050 C 
BRANCH  15  18
ATOM     18  C   LIG    1        0.251  -3.860  -4.197  0.00  0.00    +0.270 C 
BRANCH  18  19
ATOM     19  N   LIG    1       -0.492  -3.884  -5.465  0.00  0.00    -0.390 N 
ATOM     20  C   LIG    1       -1.561  -4.888  -5.388  0.00  0.00    +0.320 C 
ATOM     21  C   LIG    1        0.423  -4.226  -6.562  0.00  0.00    +0.320 C 
ATOM     22  H   LIG    1       -0.895  -2.974  -5.635  0.00  0.00    +0.420 HD
ENDBRANCH  18  19
ENDBRANCH  15  18
ENDBRANCH  14  15
ENDBRANCH  12  14
ENDBRANCH   1  12
TORSDOF 7
