REMARK  Name = ZINCpe000000SVR5.0
REMARK                            x       y       z     vdW  Elec       q    Type
REMARK                         _______ _______ _______ _____ _____    ______ ____
ROOT
ATOM      1  C   LIG    1       -2.523   4.358   2.501  0.00  0.00    +0.600 C 
ATOM      2  N   LIG    1       -1.534   3.443   2.474  0.00  0.00    -0.600 N 
ATOM      3  C   LIG    1       -1.013   2.866   3.721  0.00  0.00    +0.260 C 
ATOM      4  C   LIG    1       -1.077   1.339   3.623  0.00  0.00    +0.030 C 
ATOM      5  C   LIG    1       -0.340   0.881   2.362  0.00  0.00    +0.060 C 
ATOM      6  C   LIG    1       -1.021   1.474   1.127  0.00  0.00    +0.130 C 
ATOM      7  C   LIG    1       -0.956   3.003   1.196  0.00  0.00    +0.270 C 
ATOM      8  O   LIG    1       -2.899   4.877   1.468  0.00  0.00    -0.540 OA
ENDROOT
BRANCH   1  11
ATOM      9  N   LIG    1       -3.427   5.280   5.889  0.00  0.00    -0.350 N 
ATOM     10  C   LIG    1       -2.494   4.974   4.974  0.00  0.00    +0.270 A 
ATOM     11  C   LIG    1       -3.149   4.729   3.783  0.00  0.00    -0.280 A 
ATOM     12  C   LIG    1       -4.530   4.908   4.022  0.00  0.00    +0.290 A 
ATOM     13  N   LIG    1       -4.684   5.230   5.277  0.00  0.00    -0.290 NA
BRANCH   9  14
ATOM     14  C   LIG    1       -3.172   5.610   7.294  0.00  0.00    +0.320 C 
BRANCH  14  16
ATOM     15  C   LIG    1       -5.323   6.864   7.499  0.00  0.00    +0.030 C 
ATOM     16  C   LIG    1       -3.801   6.965   7.621  0.00  0.00    -0.030 C 
ATOM     17  C   LIG    1       -3.430   7.368   9.050  0.00  0.00    +0.030 C 
ENDBRANCH  14  16
ENDBRANCH   9  14
ENDBRANCH   1  11
BRANCH   6  18
ATOM     18  O   LIG    1       -2.387   1.055   1.088  0.00  0.00    -0.540 OA
ATOM     19  H   LIG    1       -2.881   1.395   0.330  0.00  0.00    +0.370 HD
ENDBRANCH   6  18
BRANCH   6  20
ATOM     20  C   LIG    1       -0.303   0.989  -0.134  0.00  0.00    +0.150 C 
BRANCH  20  21
ATOM     21  C   LIG    1       -0.895   1.668  -1.342  0.00  0.00    +0.160 A 
ATOM     22  N   LIG    1       -0.502   2.797  -1.865  0.00  0.00    -0.280 NA
ATOM     23  N   LIG    1       -1.230   3.078  -2.887  0.00  0.00    -0.290 NA
ATOM     24  C   LIG    1       -2.122   2.141  -3.062  0.00  0.00    +0.370 A 
ATOM     25  N   LIG    1       -1.931   1.217  -2.090  0.00  0.00    -0.480 N 
ATOM     26  C   LIG    1       -2.692  -0.018  -1.886  0.00  0.00    +0.350 C 
ENDBRANCH  20  21
ENDBRANCH   6  20
TORSDOF 6
