REMARK  Name = ZINCrD00000lcvrV.0
REMARK                            x       y       z     vdW  Elec       q    Type
REMARK                         _______ _______ _______ _____ _____    ______ ____
ROOT
ATOM      1  O   LIG    1       -5.940   3.082  -0.879  0.00  0.00    -0.310 OA
ENDROOT
BRANCH   1   2
ATOM      2  C   LIG    1       -7.170   3.617  -1.014  0.00  0.00    +0.550 C 
ATOM      3  O   LIG    1       -7.350   4.793  -0.769  0.00  0.00    -0.490 OA
BRANCH   2   4
ATOM      4  C   LIG    1       -8.296   2.775  -1.458  0.00  0.00    +0.060 A 
ATOM      5  N   LIG    1       -8.110   1.504  -1.724  0.00  0.00    -0.150 NA
ATOM      6  N   LIG    1       -9.032   0.707  -2.112  0.00  0.00    -0.450 N 
ATOM      7  H   LIG    1       -8.797  -0.218  -2.285  0.00  0.00    +0.450 HD
ATOM      8  C   LIG    1      -10.314   1.084  -2.296  0.00  0.00    +0.520 A 
ATOM      9  C   LIG    1      -10.676   2.485  -2.037  0.00  0.00    -0.140 A 
ATOM     10  C   LIG    1      -11.969   2.973  -2.195  0.00  0.00    +0.100 A 
ATOM     11  C   LIG    1      -12.227   4.301  -1.930  0.00  0.00    +0.030 A 
ATOM     12  C   LIG    1      -11.212   5.151  -1.509  0.00  0.00    +0.060 A 
ATOM     13  C   LIG    1       -9.924   4.686  -1.346  0.00  0.00    +0.070 A 
ATOM     14  O   LIG    1      -11.152   0.283  -2.668  0.00  0.00    -0.490 OA
ATOM     15  C   LIG    1       -9.644   3.349  -1.602  0.00  0.00    -0.030 A 
ENDBRANCH   2   4
ENDBRANCH   1   2
BRANCH   1  16
ATOM     16  C   LIG    1       -4.879   3.970  -0.438  0.00  0.00    +0.270 C 
BRANCH  16  19
ATOM     17  N   LIG    1       -2.458   3.825   0.045  0.00  0.00    -0.680 N 
ATOM     18  H   LIG    1       -2.491   4.749   0.338  0.00  0.00    +0.420 HD
ATOM     19  C   LIG    1       -3.586   3.201  -0.347  0.00  0.00    +0.520 C 
ATOM     20  O   LIG    1       -3.561   2.021  -0.625  0.00  0.00    -0.490 OA
BRANCH  17  26
ATOM     21  C   LIG    1        0.861   1.034   2.367  0.00  0.00    +0.120 C 
ATOM     22  C   LIG    1        0.396   1.778   1.141  0.00  0.00    -0.060 A 
ATOM     23  C   LIG    1        1.176   1.783  -0.000  0.00  0.00    +0.060 A 
ATOM     24  C   LIG    1        0.754   2.465  -1.127  0.00  0.00    +0.050 A 
ATOM     25  C   LIG    1       -0.448   3.147  -1.114  0.00  0.00    -0.030 A 
ATOM     26  C   LIG    1       -1.237   3.139   0.030  0.00  0.00    +0.160 A 
ATOM     27 CL   LIG    1       -0.974   4.008  -2.527  0.00  0.00    -0.050 Cl
ATOM     28  C   LIG    1       -0.809   2.454   1.160  0.00  0.00    -0.020 A 
ATOM     29 CL   LIG    1       -1.787   2.447   2.594  0.00  0.00    -0.040 Cl
ENDBRANCH  17  26
ENDBRANCH  16  19
ENDBRANCH   1  16
TORSDOF 5
