REMARK  Name = ZINCrD000000fAqR.0
REMARK                            x       y       z     vdW  Elec       q    Type
REMARK                         _______ _______ _______ _____ _____    ______ ____
ROOT
ATOM      1  C   LIG    1       -3.540   1.308   4.788  0.00  0.00    -0.010 C 
ATOM      2  C   LIG    1       -5.034   1.481   4.506  0.00  0.00    +0.060 C 
ATOM      3  C   LIG    1       -2.948   2.644   5.241  0.00  0.00    +0.060 C 
ENDROOT
BRANCH   1   4
ATOM      4  C   LIG    1       -3.349   0.280   5.873  0.00  0.00    +0.080 A 
ATOM      5  C   LIG    1       -3.601   0.550   7.158  0.00  0.00    -0.070 A 
ATOM      6  S   LIG    1       -3.258  -0.898   8.103  0.00  0.00    +0.120 S 
ATOM      7  C   LIG    1       -2.797  -1.745   6.629  0.00  0.00    +0.100 A 
ATOM      8  N   LIG    1       -2.931  -0.938   5.615  0.00  0.00    -0.410 NA
BRANCH   7   9
ATOM      9  C   LIG    1       -2.338  -3.148   6.553  0.00  0.00    -0.060 A 
ATOM     10  C   LIG    1       -2.005  -3.711   5.321  0.00  0.00    +0.110 A 
ATOM     11  C   LIG    1       -1.573  -5.020   5.258  0.00  0.00    +0.010 A 
ATOM     12  C   LIG    1       -1.478  -5.778   6.411  0.00  0.00    +0.060 A 
ATOM     13  C   LIG    1       -1.811  -5.230   7.636  0.00  0.00    -0.010 A 
ATOM     14  C   LIG    1       -2.240  -3.919   7.715  0.00  0.00    +0.110 A 
ATOM     15  F   LIG    1       -2.566  -3.383   8.912  0.00  0.00    -0.130 F 
ENDBRANCH   7   9
ENDBRANCH   1   4
BRANCH   1  18
ATOM     16  N   LIG    1       -2.877   1.613   2.424  0.00  0.00    -0.730 N 
ATOM     17  H   LIG    1       -3.352   2.459   2.433  0.00  0.00    +0.400 HD
ATOM     18  C   LIG    1       -2.842   0.849   3.534  0.00  0.00    +0.520 C 
ATOM     19  O   LIG    1       -2.248  -0.209   3.522  0.00  0.00    -0.490 OA
BRANCH  16  25
ATOM     20  C   LIG    1       -0.799   2.658  -3.401  0.00  0.00    +0.090 C 
ATOM     21  C   LIG    1       -0.078   2.260  -2.139  0.00  0.00    +0.510 C 
ATOM     22  N   LIG    1       -0.729   1.577  -1.177  0.00  0.00    -0.620 N 
ATOM     23  C   LIG    1       -0.011   1.076   0.003  0.00  0.00    +0.280 C 
ATOM     24  C   LIG    1       -0.722   1.575   1.265  0.00  0.00    +0.010 C 
ATOM     25  C   LIG    1       -2.199   1.167   1.205  0.00  0.00    +0.240 C 
ATOM     26  C   LIG    1       -2.861   1.815  -0.013  0.00  0.00    +0.020 C 
ATOM     27  C   LIG    1       -2.171   1.319  -1.288  0.00  0.00    +0.290 C 
ATOM     28  O   LIG    1        1.089   2.555  -1.989  0.00  0.00    -0.540 OA
ENDBRANCH  16  25
ENDBRANCH   1  18
TORSDOF 4
