REMARK  Name = ZINCpk00000KfKF7.0
REMARK                            x       y       z     vdW  Elec       q    Type
REMARK                         _______ _______ _______ _____ _____    ______ ____
ROOT
ATOM      1  N   LIG    1       -6.858   5.725   6.665  0.00  0.00    -0.450 N 
ATOM      2  C   LIG    1       -7.128   4.278   6.865  0.00  0.00    +0.210 C 
ATOM      3  C   LIG    1       -5.929   3.593   6.162  0.00  0.00    +0.050 C 
ATOM      4  C   LIG    1       -5.691   4.493   4.928  0.00  0.00    +0.240 C 
ATOM      5  C   LIG    1       -6.324   5.849   5.292  0.00  0.00    +0.160 C 
ATOM      6  C   LIG    1       -5.261   6.949   5.243  0.00  0.00    +0.060 C 
ENDROOT
BRANCH   1  11
ATOM      7  C   LIG    1       -9.576   7.934   5.960  0.00  0.00    +0.530 A 
ATOM      8  N   LIG    1      -10.262   7.934   7.092  0.00  0.00    -0.590 NA
ATOM      9  C   LIG    1       -9.865   7.213   8.130  0.00  0.00    +0.230 A 
ATOM     10  C   LIG    1       -8.717   6.452   8.024  0.00  0.00    -0.130 A 
ATOM     11  C   LIG    1       -8.014   6.472   6.818  0.00  0.00    +0.390 A 
ATOM     12  C   LIG    1      -10.657   7.223   9.412  0.00  0.00    +0.140 C 
ATOM     13  N   LIG    1       -8.469   7.223   5.819  0.00  0.00    -0.560 NA
BRANCH   7  15
ATOM     14  C   LIG    1      -11.211   9.438   5.127  0.00  0.00    +0.270 C 
ATOM     15  O   LIG    1      -10.015   8.684   4.922  0.00  0.00    -0.290 OA
ENDBRANCH   7  15
ENDBRANCH   1  11
BRANCH   4  16
ATOM     16  N   LIG    1       -4.256   4.651   4.683  0.00  0.00    -0.720 N 
ATOM     17  H   LIG    1       -3.780   5.409   5.056  0.00  0.00    +0.410 HD
ATOM     18  C   LIG    1       -3.595   3.741   3.939  0.00  0.00    +0.520 C 
ATOM     19  O   LIG    1       -4.189   2.792   3.473  0.00  0.00    -0.520 OA
BRANCH  18  20
ATOM     20  C   LIG    1       -2.118   3.903   3.687  0.00  0.00    +0.170 C 
BRANCH  20  21
ATOM     21  C   LIG    1       -1.626   2.762   2.835  0.00  0.00    +0.020 A 
ATOM     22  N   LIG    1       -1.754   1.491   3.084  0.00  0.00    -0.340 NA
ATOM     23  O   LIG    1       -1.256   0.814   2.214  0.00  0.00    +0.100 OA
ATOM     24  C   LIG    1       -0.718   1.572   1.248  0.00  0.00    -0.030 A 
ATOM     25  C   LIG    1       -0.013   1.086   0.008  0.00  0.00    +0.180 C 
ATOM     26  C   LIG    1       -0.929   2.860   1.609  0.00  0.00    -0.060 A 
ENDBRANCH  20  21
ENDBRANCH  18  20
ENDBRANCH   4  16
TORSDOF 5
