REMARK  Name = ZINCrD0000073B9R.0
REMARK                            x       y       z     vdW  Elec       q    Type
REMARK                         _______ _______ _______ _____ _____    ______ ____
ROOT
ATOM      1  C   LIG    1        1.767  -1.795  -0.025  0.00  0.00    +0.590 C 
ATOM      2  N   LIG    1        3.087  -2.064  -0.039  0.00  0.00    -0.730 N 
ATOM      3  H   LIG    1        3.731  -1.338  -0.042  0.00  0.00    +0.400 HD
ATOM      4  O   LIG    1        0.960  -2.705  -0.022  0.00  0.00    -0.520 OA
ENDROOT
BRANCH   1  10
ATOM      5  C   LIG    1        0.573   4.119   0.018  0.00  0.00    +0.160 A 
ATOM      6  C   LIG    1       -0.753   3.688   0.029  0.00  0.00    -0.090 A 
ATOM      7  C   LIG    1       -1.050   2.358   0.030  0.00  0.00    +0.110 A 
ATOM      8  C   LIG    1       -0.017   1.411   0.010  0.00  0.00    -0.150 A 
ATOM      9  C   LIG    1        0.002  -0.004   0.002  0.00  0.00    +0.080 A 
ATOM     10  C   LIG    1        1.302  -0.401  -0.013  0.00  0.00    -0.000 A 
ATOM     11  N   LIG    1        2.117   0.717  -0.014  0.00  0.00    -0.580 N 
ATOM     12  H   LIG    1        3.087   0.709  -0.024  0.00  0.00    +0.420 HD
ATOM     13  C   LIG    1        1.325   1.841  -0.001  0.00  0.00    +0.160 A 
ATOM     14  C   LIG    1        1.608   3.202   0.004  0.00  0.00    -0.050 A 
BRANCH   5  16
ATOM     15  C   LIG    1       -0.264   6.343   0.037  0.00  0.00    +0.250 C 
ATOM     16  O   LIG    1        0.850   5.448   0.022  0.00  0.00    -0.320 OA
ENDBRANCH   5  16
ENDBRANCH   1  10
BRANCH   2  17
ATOM     17  C   LIG    1        3.551  -3.454  -0.052  0.00  0.00    +0.320 C 
BRANCH  17  18
ATOM     18  C   LIG    1        5.058  -3.481  -0.067  0.00  0.00    -0.100 A 
ATOM     19  C   LIG    1        5.737  -3.492  -1.270  0.00  0.00    +0.030 A 
ATOM     20  C   LIG    1        7.119  -3.511  -1.284  0.00  0.00    +0.030 A 
ATOM     21  C   LIG    1        7.822  -3.530  -0.094  0.00  0.00    -0.110 A 
ATOM     22  C   LIG    1        7.143  -3.524   1.110  0.00  0.00    +0.030 A 
ATOM     23  C   LIG    1        5.761  -3.499   1.124  0.00  0.00    +0.030 A 
BRANCH  21  24
ATOM     24  C   LIG    1        9.329  -3.558  -0.109  0.00  0.00    +0.350 C 
BRANCH  24  25
ATOM     25  N   LIG    1        9.791  -4.948  -0.121  0.00  0.00    -0.460 N 
ATOM     26  C   LIG    1       10.037  -5.712  -1.230  0.00  0.00    +0.110 A 
ATOM     27  C   LIG    1       10.443  -6.918  -0.789  0.00  0.00    +0.140 A 
ATOM     28  N   LIG    1       10.444  -6.891   0.552  0.00  0.00    -0.490 NA
ATOM     29  C   LIG    1       10.061  -5.712   0.959  0.00  0.00    +0.380 A 
ENDBRANCH  24  25
ENDBRANCH  21  24
ENDBRANCH  17  18
ENDBRANCH   2  17
TORSDOF 6
