REMARK  Name = ZINCah0000003ZYr.0
REMARK                            x       y       z     vdW  Elec       q    Type
REMARK                         _______ _______ _______ _____ _____    ______ ____
ROOT
ATOM      1  C   LIG    1        0.002  -0.004   0.002  0.00  0.00    +0.460 A 
ATOM      2  N   LIG    1       -1.137  -0.678   0.015  0.00  0.00    -0.550 NA
ATOM      3  C   LIG    1       -1.165  -1.997   0.003  0.00  0.00    +0.370 A 
ATOM      4  C   LIG    1        0.001  -2.741  -0.012  0.00  0.00    -0.090 A 
ATOM      5  C   LIG    1        1.224  -2.093  -0.020  0.00  0.00    +0.100 A 
ATOM      6 CL   LIG    1        2.708  -2.993  -0.039  0.00  0.00    -0.020 Cl
ATOM      7  C   LIG    1        1.233  -0.688  -0.013  0.00  0.00    -0.310 A 
ENDROOT
BRANCH   1   8
ATOM      8  N   LIG    1       -0.017   1.377   0.010  0.00  0.00    -0.830 N 
ATOM      9  H   LIG    1       -0.863   1.850   0.016  0.00  0.00    +0.410 HD
ATOM     10  H   LIG    1        0.817   1.873   0.004  0.00  0.00    +0.410 HD
ENDBRANCH   1   8
BRANCH   7  11
ATOM     11  C   LIG    1        2.499   0.051  -0.022  0.00  0.00    +0.480 C 
ATOM     12  O   LIG    1        3.552  -0.551  -0.036  0.00  0.00    -0.440 OA
ENDBRANCH   7  11
TORSDOF 2
