REMARK  Name = ZINCqH0000037kJE.0
REMARK                            x       y       z     vdW  Elec       q    Type
REMARK                         _______ _______ _______ _____ _____    ______ ____
ROOT
ATOM      1  N   LIG    1        3.071   0.799  -1.657  0.00  0.00    -0.610 N 
ATOM      2  C   LIG    1        2.564   0.893  -0.282  0.00  0.00    +0.300 C 
ATOM      3  C   LIG    1        1.251   1.700  -0.382  0.00  0.00    +0.000 C 
ATOM      4  C   LIG    1        1.483   2.524  -1.670  0.00  0.00    +0.080 C 
ATOM      5  C   LIG    1        2.485   1.707  -2.457  0.00  0.00    +0.510 C 
ATOM      6  O   LIG    1        2.723   1.850  -3.637  0.00  0.00    -0.510 OA
ENDROOT
BRANCH   3   7
ATOM      7  C   LIG    1        0.064   0.784  -0.534  0.00  0.00    +0.520 C 
ATOM      8  N   LIG    1       -1.169   1.300  -0.706  0.00  0.00    -0.670 N 
ATOM      9  H   LIG    1       -1.305   2.259  -0.649  0.00  0.00    +0.420 HD
ATOM     10  O   LIG    1        0.220  -0.419  -0.507  0.00  0.00    -0.500 OA
BRANCH   8  11
ATOM     11  C   LIG    1       -2.249   0.456  -0.965  0.00  0.00    +0.190 A 
ATOM     12  C   LIG    1       -3.507   0.764  -0.459  0.00  0.00    +0.010 A 
ATOM     13  C   LIG    1       -4.576  -0.067  -0.712  0.00  0.00    +0.110 A 
ATOM     14  C   LIG    1       -4.396  -1.221  -1.479  0.00  0.00    -0.030 A 
ATOM     15  C   LIG    1       -3.129  -1.528  -1.987  0.00  0.00    +0.030 A 
ATOM     16 CL   LIG    1       -2.898  -2.960  -2.941  0.00  0.00    -0.040 Cl
ATOM     17  C   LIG    1       -2.066  -0.689  -1.734  0.00  0.00    +0.030 A 
BRANCH  14  18
ATOM     18  C   LIG    1       -5.505  -2.087  -1.744  0.00  0.00    +0.250 C 
ATOM     19  N   LIG    1       -6.385  -2.773  -1.955  0.00  0.00    -0.390 NA
ENDBRANCH  14  18
ENDBRANCH   8  11
ENDBRANCH   3   7
BRANCH   1  21
ATOM     20  C   LIG    1        5.343   0.591  -2.535  0.00  0.00    +0.030 C 
ATOM     21  C   LIG    1        4.084  -0.161  -2.101  0.00  0.00    +0.300 C 
BRANCH  21  22
ATOM     22  C   LIG    1        3.548  -0.957  -3.263  0.00  0.00    -0.090 A 
ATOM     23  C   LIG    1        2.192  -1.210  -3.360  0.00  0.00    +0.020 A 
ATOM     24  C   LIG    1        1.700  -1.937  -4.428  0.00  0.00    +0.000 A 
ATOM     25  C   LIG    1        2.564  -2.417  -5.394  0.00  0.00    +0.000 A 
ATOM     26  C   LIG    1        3.920  -2.168  -5.294  0.00  0.00    +0.000 A 
ATOM     27  C   LIG    1        4.412  -1.438  -4.228  0.00  0.00    +0.010 A 
ENDBRANCH  21  22
ENDBRANCH   1  21
TORSDOF 5
