REMARK  Name = ZINCrH000004jo6c.0
REMARK                            x       y       z     vdW  Elec       q    Type
REMARK                         _______ _______ _______ _____ _____    ______ ____
ROOT
ATOM      1  C   LIG    1        0.002  -0.004   0.002  0.00  0.00    +0.040 C 
ENDROOT
BRANCH   1   2
ATOM      2  C   LIG    1       -0.128  -0.500  -1.415  0.00  0.00    -0.090 A 
ATOM      3  C   LIG    1        0.814  -0.144  -2.362  0.00  0.00    +0.040 A 
ATOM      4  C   LIG    1        0.696  -0.603  -3.660  0.00  0.00    +0.010 A 
ATOM      5  C   LIG    1       -0.368  -1.411  -4.014  0.00  0.00    +0.010 A 
ATOM      6  C   LIG    1       -1.313  -1.763  -3.069  0.00  0.00    +0.000 A 
ATOM      7  C   LIG    1       -1.193  -1.308  -1.769  0.00  0.00    +0.040 A 
ENDBRANCH   1   2
BRANCH   1   8
ATOM      8  C   LIG    1       -0.018   1.503   0.010  0.00  0.00    +0.460 C 
ATOM      9  O   LIG    1        1.025   2.124   0.004  0.00  0.00    -0.450 OA
BRANCH   8  10
ATOM     10  C   LIG    1       -1.255   2.195   0.020  0.00  0.00    -0.270 A 
ATOM     11  C   LIG    1       -2.516   1.637   0.017  0.00  0.00    +0.330 A 
ATOM     12  N   LIG    1       -3.443   2.614   0.031  0.00  0.00    -0.560 N 
ATOM     13  H   LIG    1       -4.401   2.464   0.034  0.00  0.00    +0.420 HD
ATOM     14  C   LIG    1       -2.842   3.856   0.036  0.00  0.00    +0.070 A 
ATOM     15  C   LIG    1       -3.344   5.154   0.045  0.00  0.00    +0.000 A 
ATOM     16  C   LIG    1       -2.479   6.226   0.047  0.00  0.00    +0.030 A 
ATOM     17  C   LIG    1       -1.107   6.027   0.041  0.00  0.00    +0.000 A 
ATOM     18  C   LIG    1       -0.590   4.749   0.031  0.00  0.00    +0.060 A 
ATOM     19  C   LIG    1       -1.453   3.658   0.029  0.00  0.00    -0.050 A 
ENDBRANCH   8  10
ENDBRANCH   1   8
BRANCH   1  20
ATOM     20  S   LIG    1        1.563  -0.590   0.705  0.00  0.00    +0.090 S 
BRANCH  20  27
ATOM     21  N   LIG    1        2.141  -3.291   1.153  0.00  0.00    -0.530 N 
ATOM     22  C   LIG    1        1.555  -4.496   1.007  0.00  0.00    +0.650 A 
ATOM     23  N   LIG    1        0.332  -4.292   0.476  0.00  0.00    -0.540 N 
ATOM     24  H   LIG    1       -0.320  -4.976   0.255  0.00  0.00    +0.460 HD
ATOM     25  N   LIG    1        0.175  -2.910   0.301  0.00  0.00    -0.270 NA
ATOM     26  O   LIG    1        2.043  -5.574   1.298  0.00  0.00    -0.550 OA
ATOM     27  C   LIG    1        1.262  -2.326   0.714  0.00  0.00    +0.240 A 
BRANCH  21  29
ATOM     28  C   LIG    1        3.397  -2.862   3.207  0.00  0.00    +0.040 C 
ATOM     29  C   LIG    1        3.482  -3.049   1.691  0.00  0.00    +0.320 C 
ENDBRANCH  21  29
ENDBRANCH  20  27
ENDBRANCH   1  20
TORSDOF 6
