REMARK  Name = ZINCnE00000rhoeK.0
REMARK                            x       y       z     vdW  Elec       q    Type
REMARK                         _______ _______ _______ _____ _____    ______ ____
ROOT
ATOM      1  C   LIG    1        4.795  -2.279  -0.127  0.00  0.00    -0.080 A 
ATOM      2  C   LIG    1        4.234  -3.535   0.124  0.00  0.00    +0.060 A 
ATOM      3  C   LIG    1        5.035  -4.656   0.128  0.00  0.00    -0.020 A 
ATOM      4  C   LIG    1        6.400  -4.538  -0.104  0.00  0.00    +0.120 A 
ATOM      5  C   LIG    1        6.963  -3.292  -0.348  0.00  0.00    -0.080 A 
ATOM      6  C   LIG    1        6.169  -2.166  -0.360  0.00  0.00    +0.070 A 
ENDROOT
BRANCH   1   8
ATOM      7  C   LIG    1        2.619  -1.191   0.086  0.00  0.00    +0.050 C 
ATOM      8  C   LIG    1        3.942  -1.079  -0.139  0.00  0.00    +0.070 C 
BRANCH   7  13
ATOM      9  C   LIG    1       -1.242   2.577   0.234  0.00  0.00    +0.160 C 
ATOM     10  C   LIG    1       -0.008   1.715   0.148  0.00  0.00    -0.200 A 
ATOM     11  CA  LIG    1        1.255   2.163  -0.108  0.00  0.00    +0.000 A 
ATOM     12  N   LIG    1        2.186   1.219  -0.141  0.00  0.00    -0.400 NA
ATOM     13  C   LIG    1        1.770   0.005   0.074  0.00  0.00    +0.050 A 
ATOM     14  S   LIG    1        0.032   0.018   0.350  0.00  0.00    +0.080 S 
BRANCH  11  15
ATOM     15  C   LIG    1        1.561   3.583  -0.332  0.00  0.00    +0.550 C 
ATOM     16  OXT LIG    1        2.712   3.933  -0.559  0.00  0.00    -0.670 OA
ATOM     17  O   LIG    1        0.665   4.415  -0.292  0.00  0.00    -0.680 OA
ENDBRANCH  11  15
ENDBRANCH   7  13
ENDBRANCH   1   8
BRANCH   4  18
ATOM     18  O   LIG    1        7.187  -5.645  -0.093  0.00  0.00    -0.300 OA
BRANCH  18  19
ATOM     19  C   LIG    1        8.596  -5.441  -0.216  0.00  0.00    +0.140 C 
ATOM     20  C   LIG    1        9.370  -6.633   0.391  0.00  0.00    +0.030 C 
ATOM     21  C   LIG    1       10.165  -7.209  -0.802  0.00  0.00    +0.210 C 
ATOM     22  O   LIG    1       10.294  -6.108  -1.727  0.00  0.00    -0.370 OA
ATOM     23  C   LIG    1        9.014  -5.439  -1.703  0.00  0.00    +0.190 C 
ENDBRANCH  18  19
ENDBRANCH   4  18
TORSDOF 5
