REMARK  Name = ZINCrD0000073WPK.0
REMARK                            x       y       z     vdW  Elec       q    Type
REMARK                         _______ _______ _______ _____ _____    ______ ____
ROOT
ATOM      1  C   LIG    1        1.445  -2.073  -0.022  0.00  0.00    -0.310 A 
ATOM      2  C   LIG    1        1.190  -0.699  -0.013  0.00  0.00    +0.400 A 
ATOM      3  N   LIG    1        0.002  -0.004   0.002  0.00  0.00    -0.620 N 
ATOM      4  H   LIG    1       -0.836  -0.492   0.007  0.00  0.00    +0.440 HD
ATOM      5  C   LIG    1       -0.016   1.345   0.009  0.00  0.00    +0.560 A 
ATOM      6  C   LIG    1        1.270   2.064   0.001  0.00  0.00    -0.170 A 
ATOM      7  C   LIG    1        1.324   3.457   0.008  0.00  0.00    +0.130 A 
ATOM      8  C   LIG    1        2.549   4.090  -0.000  0.00  0.00    +0.020 A 
ATOM      9  C   LIG    1        3.721   3.350  -0.015  0.00  0.00    +0.090 A 
ATOM     10  C   LIG    1        3.681   1.970  -0.022  0.00  0.00    +0.030 A 
ATOM     11  C   LIG    1        2.458   1.315  -0.015  0.00  0.00    +0.190 A 
ATOM     12  O   LIG    1       -1.070   1.953   0.018  0.00  0.00    -0.480 OA
ATOM     13  N   LIG    1        2.386  -0.074  -0.021  0.00  0.00    -0.320 N 
ATOM     14  N   LIG    1        3.394  -1.048  -0.035  0.00  0.00    -0.270 NA
ATOM     15  C   LIG    1        2.849  -2.232  -0.036  0.00  0.00    +0.370 A 
ENDROOT
BRANCH   1  16
ATOM     16  C   LIG    1        0.446  -3.146  -0.017  0.00  0.00    +0.550 C 
ATOM     17  O   LIG    1       -0.739  -2.873  -0.004  0.00  0.00    -0.520 OA
BRANCH  16  18
ATOM     18  O   LIG    1        0.841  -4.435  -0.028  0.00  0.00    -0.330 OA
BRANCH  18  20
ATOM     19  C   LIG    1       -0.555  -5.806   1.423  0.00  0.00    +0.050 C 
ATOM     20  C   LIG    1       -0.203  -5.445  -0.022  0.00  0.00    +0.250 C 
BRANCH  20  21
ATOM     21  C   LIG    1        0.284  -6.675  -0.743  0.00  0.00    -0.170 A 
ATOM     22  C   LIG    1        1.555  -7.165  -0.497  0.00  0.00    +0.160 A 
ATOM     23  C   LIG    1        2.000  -8.298  -1.157  0.00  0.00    -0.020 A 
ATOM     24  C   LIG    1        1.179  -8.934  -2.069  0.00  0.00    +0.100 A 
ATOM     25  C   LIG    1       -0.088  -8.442  -2.320  0.00  0.00    -0.010 A 
ATOM     26  F   LIG    1        2.359  -6.540   0.391  0.00  0.00    -0.120 F 
ATOM     27  C   LIG    1       -0.537  -7.312  -1.657  0.00  0.00    +0.140 A 
ATOM     28  F   LIG    1       -1.776  -6.832  -1.903  0.00  0.00    -0.130 F 
ENDBRANCH  20  21
ENDBRANCH  18  20
ENDBRANCH  16  18
ENDBRANCH   1  16
TORSDOF 4
