REMARK  Name = ZINCqH0000001mWm.0
REMARK                            x       y       z     vdW  Elec       q    Type
REMARK                         _______ _______ _______ _____ _____    ______ ____
ROOT
ATOM      1  N   LIG    1        0.002  -0.004   0.002  0.00  0.00    -1.120 NA
ATOM      2  H   LIG    1        0.818  -0.477  -0.226  0.00  0.00    +0.420 HD
ENDROOT
BRANCH   1   3
ATOM      3  S   LIG    1       -1.368  -0.853   0.382  0.00  0.00    +2.690 S 
ATOM      4  O   LIG    1       -1.872  -0.285   1.583  0.00  0.00    -0.950 OA
ATOM      5  O   LIG    1       -1.037  -2.229   0.251  0.00  0.00    -0.960 OA
BRANCH   3   9
ATOM      6  C   LIG    1       -4.429   0.036  -2.833  0.00  0.00    -0.020 A 
ATOM      7  C   LIG    1       -3.562  -1.031  -2.980  0.00  0.00    -0.010 A 
ATOM      8  C   LIG    1       -2.627  -1.302  -1.998  0.00  0.00    +0.130 A 
ATOM      9  C   LIG    1       -2.560  -0.507  -0.870  0.00  0.00    -0.680 A 
ATOM     10  C   LIG    1       -3.430   0.556  -0.720  0.00  0.00    +0.120 A 
ATOM     11  C   LIG    1       -4.362   0.831  -1.704  0.00  0.00    -0.010 A 
BRANCH   6  12
ATOM     12  C   LIG    1       -5.448   0.332  -3.903  0.00  0.00    +0.070 C 
BRANCH  12  14
ATOM     13  C   LIG    1       -7.352   0.098  -2.303  0.00  0.00    +0.030 C 
ATOM     14  C   LIG    1       -6.740  -0.430  -3.601  0.00  0.00    -0.020 C 
ATOM     15  C   LIG    1       -7.730  -0.229  -4.750  0.00  0.00    +0.030 C 
ENDBRANCH  12  14
ENDBRANCH   6  12
ENDBRANCH   3   9
ENDBRANCH   1   3
BRANCH   1  16
ATOM     16  C   LIG    1       -0.018   1.461   0.010  0.00  0.00    +0.280 C 
BRANCH  16  17
ATOM     17  C   LIG    1        1.418   1.990  -0.001  0.00  0.00    +0.050 C 
BRANCH  17  18
ATOM     18  C   LIG    1        1.400   3.491   0.131  0.00  0.00    -0.080 A 
ATOM     19  C   LIG    1        0.758   4.262  -0.820  0.00  0.00    +0.000 A 
ATOM     20  C   LIG    1        0.738   5.638  -0.697  0.00  0.00    +0.000 A 
ATOM     21  C   LIG    1        1.369   6.245   0.373  0.00  0.00    +0.000 A 
ATOM     22  C   LIG    1        2.015   5.476   1.322  0.00  0.00    +0.000 A 
ATOM     23  C   LIG    1        2.031   4.099   1.201  0.00  0.00    +0.010 A 
ENDBRANCH  17  18
BRANCH  17  24
ATOM     24  C   LIG    1        2.095   1.602  -1.317  0.00  0.00    +0.050 C 
BRANCH  24  25
ATOM     25  C   LIG    1        3.565   2.022  -1.277  0.00  0.00    +0.160 C 
ATOM     26  C   LIG    1        4.211   1.747  -2.637  0.00  0.00    -0.010 C 
BRANCH  25  27
ATOM     27  O   LIG    1        4.247   1.276  -0.267  0.00  0.00    -0.570 OA
ATOM     28  H   LIG    1        5.186   1.490  -0.185  0.00  0.00    +0.380 HD
ENDBRANCH  25  27
ENDBRANCH  24  25
ENDBRANCH  17  24
ENDBRANCH  16  17
ENDBRANCH   1  16
TORSDOF 10
