REMARK  Name = ZINCkj000005iIMT.0
REMARK                            x       y       z     vdW  Elec       q    Type
REMARK                         _______ _______ _______ _____ _____    ______ ____
ROOT
ATOM      1  N   LIG    1       -0.469   1.210   3.666  0.00  0.00    -0.700 N 
ATOM      2  H   LIG    1       -1.239   1.790   3.769  0.00  0.00    +0.410 HD
ATOM      3  C   LIG    1       -0.011   0.910   2.434  0.00  0.00    +0.500 C 
ATOM      4  O   LIG    1        0.952   0.185   2.305  0.00  0.00    -0.530 OA
ENDROOT
BRANCH   3   5
ATOM      5  C   LIG    1       -0.696   1.477   1.217  0.00  0.00    +0.180 C 
ATOM      6  C   LIG    1       -0.647   3.005   1.272  0.00  0.00    +0.070 C 
ATOM      7  C   LIG    1       -1.345   3.576   0.035  0.00  0.00    +0.050 C 
ATOM      8  C   LIG    1       -0.672   3.019  -1.222  0.00  0.00    +0.060 C 
ATOM      9  C   LIG    1       -0.719   1.490  -1.184  0.00  0.00    +0.260 C 
ATOM     10  N   LIG    1       -0.012   1.005   0.008  0.00  0.00    -0.490 N 
ATOM     11  H   LIG    1        0.935   1.353   0.000  0.00  0.00    +0.430 HD
ATOM     12  H   LIG    1        0.002  -0.004   0.002  0.00  0.00    +0.440 HD
ENDBRANCH   3   5
BRANCH   1  13
ATOM     13  C   LIG    1        0.197   0.659   4.849  0.00  0.00    +0.310 C 
BRANCH  13  14
ATOM     14  C   LIG    1       -0.516   1.151   6.111  0.00  0.00    +0.200 C 
BRANCH  14  15
ATOM     15  O   LIG    1       -1.843   0.623   6.144  0.00  0.00    -0.320 OA
BRANCH  15  19
ATOM     16  C   LIG    1       -4.193   1.664   9.374  0.00  0.00    +0.100 A 
ATOM     17  C   LIG    1       -4.702   0.837   8.384  0.00  0.00    +0.030 A 
ATOM     18  C   LIG    1       -3.916   0.489   7.303  0.00  0.00    +0.030 A 
ATOM     19  C   LIG    1       -2.617   0.966   7.208  0.00  0.00    +0.080 A 
ATOM     20  C   LIG    1       -2.106   1.789   8.201  0.00  0.00    -0.040 A 
ATOM     21  C   LIG    1       -2.894   2.141   9.279  0.00  0.00    -0.040 A 
BRANCH  16  23
ATOM     22  C   LIG    1       -4.378   2.861  11.421  0.00  0.00    +0.250 C 
ATOM     23  O   LIG    1       -4.967   2.006  10.439  0.00  0.00    -0.320 OA
ENDBRANCH  16  23
ENDBRANCH  15  19
ENDBRANCH  14  15
ENDBRANCH  13  14
ENDBRANCH   1  13
TORSDOF 6
