REMARK  Name = ZINCpe00000gLFU4.0
REMARK                            x       y       z     vdW  Elec       q    Type
REMARK                         _______ _______ _______ _____ _____    ______ ____
ROOT
ATOM      1  C   LIG    1        1.140  -0.683  -0.013  0.00  0.00    +0.150 A 
ATOM      2  C   LIG    1        2.361  -0.017  -0.020  0.00  0.00    -0.020 A 
ATOM      3  C   LIG    1        2.374   1.366  -0.013  0.00  0.00    +0.200 A 
ATOM      4  C   LIG    1        1.160   2.039   0.002  0.00  0.00    -0.750 A 
ATOM      5  C   LIG    1       -0.016   1.315   0.009  0.00  0.00    +0.390 A 
ATOM      6  N   LIG    1        0.002  -0.004   0.002  0.00  0.00    -0.500 NA
ENDROOT
BRANCH   4   7
ATOM      7  S   LIG    1        1.119   3.801   0.011  0.00  0.00    +2.700 S 
ATOM      8  O   LIG    1       -0.144   4.176  -0.520  0.00  0.00    -0.950 OA
ATOM      9  O   LIG    1        2.355   4.233  -0.543  0.00  0.00    -0.950 OA
BRANCH   7  10
ATOM     10  N   LIG    1        1.123   4.283   1.595  0.00  0.00    -1.000 NA
ATOM     11  C   LIG    1       -0.137   4.480   2.328  0.00  0.00    +0.310 C 
ATOM     12  C   LIG    1       -0.057   3.692   3.645  0.00  0.00    +0.170 C 
ATOM     13  N   LIG    1        1.153   4.091   4.375  0.00  0.00    -0.540 NA
ATOM     14  C   LIG    1        2.367   3.748   3.623  0.00  0.00    +0.170 C 
ATOM     15  C   LIG    1        1.179   3.495   5.717  0.00  0.00    +0.190 C 
ATOM     16  C   LIG    1        2.387   4.532   2.306  0.00  0.00    +0.300 C 
ENDBRANCH   7  10
ENDBRANCH   4   7
BRANCH   1  17
ATOM     17  S   LIG    1        1.105  -2.445  -0.022  0.00  0.00    +0.030 S 
BRANCH  17  18
ATOM     18  C   LIG    1       -0.670  -2.818  -0.007  0.00  0.00    +0.010 C 
ATOM     19  C   LIG    1       -1.307  -2.319  -1.305  0.00  0.00    +0.090 C 
BRANCH  18  22
ATOM     20  N   LIG    1       -2.049  -4.797   0.541  0.00  0.00    -0.720 N 
ATOM     21  H   LIG    1       -2.770  -4.192   0.774  0.00  0.00    +0.400 HD
ATOM     22  C   LIG    1       -0.869  -4.307   0.111  0.00  0.00    +0.530 C 
ATOM     23  O   LIG    1        0.032  -5.064  -0.181  0.00  0.00    -0.520 OA
BRANCH  20  24
ATOM     24  C   LIG    1       -2.243  -6.245   0.655  0.00  0.00    +0.310 C 
BRANCH  24  26
ATOM     25  C   LIG    1       -4.428  -7.317   0.472  0.00  0.00    +0.050 C 
ATOM     26  C   LIG    1       -3.636  -6.527   1.154  0.00  0.00    -0.060 C 
ENDBRANCH  24  26
ENDBRANCH  20  24
ENDBRANCH  18  22
ENDBRANCH  17  18
ENDBRANCH   1  17
TORSDOF 7
