REMARK  Name = ZINCpk000000otyb.0
REMARK                            x       y       z     vdW  Elec       q    Type
REMARK                         _______ _______ _______ _____ _____    ______ ____
ROOT
ATOM      1  C   LIG    1       -4.891   5.171  -2.535  0.00  0.00    +0.500 C 
ATOM      2  N   LIG    1       -4.292   4.836  -1.375  0.00  0.00    -0.730 N 
ATOM      3  H   LIG    1       -4.707   5.068  -0.530  0.00  0.00    +0.400 HD
ATOM      4  O   LIG    1       -4.371   4.881  -3.592  0.00  0.00    -0.530 OA
ENDROOT
BRANCH   1   5
ATOM      5  C   LIG    1       -6.207   5.905  -2.519  0.00  0.00    +0.360 C 
BRANCH   5  10
ATOM      6  C   LIG    1       -6.996   7.072  -5.955  0.00  0.00    +0.120 C 
ATOM      7  N   LIG    1       -7.673   5.769  -5.838  0.00  0.00    -0.720 N 
ATOM      8  H   LIG    1       -8.205   5.328  -6.519  0.00  0.00    +0.440 HD
ATOM      9  C   LIG    1       -7.411   5.309  -4.601  0.00  0.00    +0.710 C 
ATOM     10  N   LIG    1       -6.646   6.150  -3.895  0.00  0.00    -0.560 N 
ATOM     11  O   LIG    1       -7.823   4.249  -4.173  0.00  0.00    -0.540 OA
ATOM     12  C   LIG    1       -5.953   7.037  -7.074  0.00  0.00    +0.080 C 
ATOM     13  C   LIG    1       -6.335   7.253  -4.604  0.00  0.00    +0.540 C 
ATOM     14  O   LIG    1       -5.664   8.194  -4.237  0.00  0.00    -0.460 OA
BRANCH   6  15
ATOM     15  C   LIG    1       -8.014   8.186  -6.206  0.00  0.00    +0.050 C 
BRANCH  15  17
ATOM     16  C   LIG    1       -9.851   8.973  -7.706  0.00  0.00    +0.030 C 
ATOM     17  C   LIG    1       -8.833   7.858  -7.456  0.00  0.00    +0.010 C 
ENDBRANCH  15  17
ENDBRANCH   6  15
ENDBRANCH   5  10
ENDBRANCH   1   5
BRANCH   2  18
ATOM     18  C   LIG    1       -3.012   4.123  -1.391  0.00  0.00    +0.260 C 
BRANCH  18  19
ATOM     19  C   LIG    1       -2.553   3.867   0.046  0.00  0.00    +0.070 C 
BRANCH  19  20
ATOM     20  C   LIG    1       -1.237   3.133   0.030  0.00  0.00    -0.120 A 
ATOM     21  C   LIG    1       -1.218   1.751   0.017  0.00  0.00    +0.060 A 
ATOM     22  C   LIG    1       -0.013   1.076   0.008  0.00  0.00    -0.020 A 
ATOM     23  C   LIG    1        1.179   1.786   0.000  0.00  0.00    +0.130 A 
ATOM     24  C   LIG    1        1.157   3.174   0.008  0.00  0.00    -0.080 A 
ATOM     25  C   LIG    1       -0.051   3.844   0.023  0.00  0.00    +0.060 A 
BRANCH  23  26
ATOM     26  O   LIG    1        2.366   1.125  -0.015  0.00  0.00    -0.320 OA
ATOM     27  C   LIG    1        3.553   1.921  -0.022  0.00  0.00    +0.250 C 
ENDBRANCH  23  26
ENDBRANCH  19  20
ENDBRANCH  18  19
ENDBRANCH   2  18
TORSDOF 8
