REMARK  Name = ZINCrH000004jp6F.0
REMARK                            x       y       z     vdW  Elec       q    Type
REMARK                         _______ _______ _______ _____ _____    ______ ____
ROOT
ATOM      1  C   LIG    1       -1.176   3.906   3.965  0.00  0.00    +0.600 C 
ATOM      2  N   LIG    1       -0.194   4.828   3.931  0.00  0.00    -0.610 N 
ATOM      3  C   LIG    1        0.797   4.827   2.846  0.00  0.00    +0.260 C 
ATOM      4  C   LIG    1        2.199   4.805   3.453  0.00  0.00    +0.010 C 
ATOM      5  C   LIG    1        2.345   5.969   4.437  0.00  0.00    +0.240 C 
ATOM      6  C   LIG    1        1.325   5.814   5.567  0.00  0.00    +0.010 C 
ATOM      7  C   LIG    1       -0.090   5.850   4.981  0.00  0.00    +0.290 C 
ATOM      8  O   LIG    1       -2.032   3.961   4.827  0.00  0.00    -0.530 OA
ENDROOT
BRANCH   1  11
ATOM      9  N   LIG    1       -1.192   1.765   1.010  0.00  0.00    -0.470 N 
ATOM     10  C   LIG    1       -1.114   2.979   1.608  0.00  0.00    +0.280 A 
ATOM     11  C   LIG    1       -1.212   2.834   2.961  0.00  0.00    -0.220 A 
ATOM     12  C   LIG    1       -1.355   1.389   3.217  0.00  0.00    -0.070 A 
ATOM     13  C   LIG    1       -1.492   0.620   4.370  0.00  0.00    +0.050 A 
ATOM     14  C   LIG    1       -1.609  -0.749   4.266  0.00  0.00    -0.010 A 
ATOM     15  C   LIG    1       -1.590  -1.361   3.021  0.00  0.00    +0.030 A 
ATOM     16  C   LIG    1       -1.454  -0.612   1.873  0.00  0.00    +0.000 A 
ATOM     17  C   LIG    1       -1.336   0.771   1.956  0.00  0.00    +0.090 A 
BRANCH   9  19
ATOM     18  C   LIG    1       -2.543   1.465  -1.005  0.00  0.00    +0.030 C 
ATOM     19  C   LIG    1       -1.125   1.540  -0.436  0.00  0.00    +0.280 C 
ENDBRANCH   9  19
ENDBRANCH   1  11
BRANCH   5  20
ATOM     20  N   LIG    1        3.698   5.967   4.997  0.00  0.00    -0.720 N 
ATOM     21  H   LIG    1        3.871   5.532   5.846  0.00  0.00    +0.400 HD
ATOM     22  C   LIG    1        4.704   6.571   4.332  0.00  0.00    +0.580 C 
ATOM     23  O   LIG    1        4.487   7.117   3.267  0.00  0.00    -0.530 OA
BRANCH  22  24
ATOM     24  C   LIG    1        6.063   6.570   4.895  0.00  0.00    -0.160 A 
ATOM     25  C   LIG    1        6.385   5.981   6.079  0.00  0.00    -0.040 A 
ATOM     26  S   LIG    1        8.044   6.173   6.420  0.00  0.00    +0.200 S 
ATOM     27  C   LIG    1        8.322   7.067   4.936  0.00  0.00    -0.060 A 
ATOM     28  C   LIG    1        7.195   7.188   4.245  0.00  0.00    +0.070 A 
ENDBRANCH  22  24
ENDBRANCH   5  20
TORSDOF 4
