REMARK  Name = ZINCqH0000000k5q.0
REMARK                            x       y       z     vdW  Elec       q    Type
REMARK                         _______ _______ _______ _____ _____    ______ ____
ROOT
ATOM      1  N   LIG    1        1.028  -2.943   1.078  0.00  0.00    -0.440 N 
ATOM      2  C   LIG    1        1.107  -2.132  -0.020  0.00  0.00    +0.180 A 
ATOM      3  N   LIG    1        1.006  -2.893  -1.073  0.00  0.00    -0.250 NA
ATOM      4  N   LIG    1        0.865  -4.120  -0.718  0.00  0.00    -0.290 NA
ATOM      5  C   LIG    1        0.868  -4.209   0.592  0.00  0.00    +0.160 A 
ENDROOT
BRANCH   1   6
ATOM      6  C   LIG    1        1.096  -2.538   2.484  0.00  0.00    +0.350 C 
BRANCH   6   8
ATOM      7  C   LIG    1       -0.751  -2.842   4.052  0.00  0.00    +0.070 C 
ATOM      8  C   LIG    1       -0.291  -2.233   2.987  0.00  0.00    -0.070 C 
ENDBRANCH   6   8
ENDBRANCH   1   6
BRANCH   2   9
ATOM      9  C   LIG    1        1.284  -0.635  -0.014  0.00  0.00    +0.350 C 
BRANCH   9  10
ATOM     10  O   LIG    1        0.002  -0.004   0.002  0.00  0.00    -0.300 OA
BRANCH  10  11
ATOM     11  C   LIG    1       -0.016   1.355   0.009  0.00  0.00    +0.100 A 
ATOM     12  C   LIG    1        1.174   2.066   0.002  0.00  0.00    -0.040 A 
ATOM     13  C   LIG    1        1.153   3.448   0.010  0.00  0.00    +0.050 A 
ATOM     14  C   LIG    1       -0.053   4.123   0.025  0.00  0.00    +0.020 A 
ATOM     15  C   LIG    1       -1.243   3.418   0.033  0.00  0.00    +0.020 A 
ATOM     16  C   LIG    1       -1.228   2.035   0.019  0.00  0.00    +0.070 A 
ATOM     17  F   LIG    1       -2.390   1.346   0.020  0.00  0.00    -0.130 F 
ENDBRANCH  10  11
ENDBRANCH   9  10
ENDBRANCH   2   9
BRANCH   5  18
ATOM     18  S   LIG    1        0.704  -5.684   1.542  0.00  0.00    +0.070 S 
BRANCH  18  19
ATOM     19  C   LIG    1        0.548  -6.900   0.211  0.00  0.00    +0.150 C 
ATOM     20  C   LIG    1        1.851  -6.950  -0.590  0.00  0.00    +0.110 C 
BRANCH  19  21
ATOM     21  C   LIG    1        0.269  -8.258   0.802  0.00  0.00    +0.170 A 
ATOM     22  N   LIG    1        0.875  -8.794   1.823  0.00  0.00    -0.260 NA
ATOM     23  N   LIG    1        0.381  -9.960   2.050  0.00  0.00    -0.290 NA
ATOM     24  C   LIG    1       -0.557 -10.208   1.181  0.00  0.00    +0.170 A 
ATOM     25  C   LIG    1       -1.387 -11.463   1.098  0.00  0.00    +0.250 C 
ATOM     26  O   LIG    1       -0.654  -9.136   0.375  0.00  0.00    -0.220 OA
ENDBRANCH  19  21
ENDBRANCH  18  19
ENDBRANCH   5  18
TORSDOF 8
