REMARK  Name = ZINCpk000000oG79.0
REMARK                            x       y       z     vdW  Elec       q    Type
REMARK                         _______ _______ _______ _____ _____    ______ ____
ROOT
ATOM      1  C   LIG    1       -2.277   1.177   3.098  0.00  0.00    +0.260 C 
ATOM      2  C   LIG    1       -1.174   1.364   4.141  0.00  0.00    +0.100 C 
ENDROOT
BRANCH   1   3
ATOM      3  N   LIG    1       -3.146   0.067   3.500  0.00  0.00    -0.270 N 
ATOM      4  C   LIG    1       -2.749  -1.061   4.133  0.00  0.00    +0.170 A 
ATOM      5  C   LIG    1       -3.865  -1.805   4.312  0.00  0.00    -0.040 A 
ATOM      6  N   LIG    1       -4.876  -1.109   3.780  0.00  0.00    -0.240 NA
ATOM      7  N   LIG    1       -4.417  -0.004   3.307  0.00  0.00    -0.070 NA
BRANCH   5   8
ATOM      8  C   LIG    1       -3.952  -3.155   4.976  0.00  0.00    +0.190 C 
ATOM      9  C   LIG    1       -5.398  -3.705   4.900  0.00  0.00    +0.070 C 
ATOM     10  C   LIG    1       -5.577  -4.334   6.307  0.00  0.00    +0.220 C 
ATOM     11  O   LIG    1       -4.867  -3.427   7.177  0.00  0.00    -0.370 OA
ATOM     12  C   LIG    1       -3.670  -3.034   6.486  0.00  0.00    +0.190 C 
BRANCH   8  13
ATOM     13  O   LIG    1       -3.037  -4.070   4.368  0.00  0.00    -0.540 OA
ATOM     14  H   LIG    1       -2.113  -3.789   4.412  0.00  0.00    +0.380 HD
ENDBRANCH   8  13
ENDBRANCH   5   8
ENDBRANCH   1   3
BRANCH   1  16
ATOM     15  N   LIG    1       -0.922   1.805   1.127  0.00  0.00    -0.600 N 
ATOM     16  C   LIG    1       -1.657   0.869   1.760  0.00  0.00    +0.510 C 
ATOM     17  O   LIG    1       -1.819  -0.220   1.252  0.00  0.00    -0.510 OA
BRANCH  15  19
ATOM     18  C   LIG    1       -1.992   4.003   1.208  0.00  0.00    +0.020 C 
ATOM     19  C   LIG    1       -0.813   3.154   1.688  0.00  0.00    +0.260 C 
ENDBRANCH  15  19
BRANCH  15  20
ATOM     20  C   LIG    1       -0.233   1.473  -0.123  0.00  0.00    +0.340 C 
BRANCH  20  21
ATOM     21  C   LIG    1       -1.142   1.760  -1.290  0.00  0.00    -0.110 A 
ATOM     22  C   LIG    1       -1.984   0.773  -1.769  0.00  0.00    +0.040 A 
ATOM     23  C   LIG    1       -2.821   1.038  -2.836  0.00  0.00    +0.000 A 
ATOM     24  C   LIG    1       -2.810   2.285  -3.431  0.00  0.00    +0.010 A 
ATOM     25  C   LIG    1       -1.964   3.270  -2.956  0.00  0.00    +0.000 A 
ATOM     26  C   LIG    1       -1.131   3.007  -1.885  0.00  0.00    +0.010 A 
ENDBRANCH  20  21
ENDBRANCH  15  20
ENDBRANCH   1  16
TORSDOF 7
