REMARK  Name = ZINCpk000000mC0U.0
REMARK                            x       y       z     vdW  Elec       q    Type
REMARK                         _______ _______ _______ _____ _____    ______ ____
ROOT
ATOM      1  C   LIG    1       -9.438   1.769   3.053  0.00  0.00    -0.110 A 
ATOM      2  C   LIG    1       -8.338   1.632   2.255  0.00  0.00    +0.320 A 
ATOM      3  N   LIG    1       -8.788   1.451   0.997  0.00  0.00    -0.350 N 
ATOM      4  N   LIG    1      -10.188   1.483   1.058  0.00  0.00    -0.060 NA
ATOM      5  N   LIG    1      -10.536   1.667   2.285  0.00  0.00    -0.200 NA
ENDROOT
BRANCH   1   8
ATOM      6  N   LIG    1      -10.583   2.106   5.187  0.00  0.00    -0.710 N 
ATOM      7  H   LIG    1      -11.428   2.049   4.713  0.00  0.00    +0.410 HD
ATOM      8  C   LIG    1       -9.423   1.987   4.512  0.00  0.00    +0.610 C 
ATOM      9  O   LIG    1       -8.364   2.058   5.105  0.00  0.00    -0.530 OA
BRANCH   6  10
ATOM     10  C   LIG    1      -10.569   2.322   6.636  0.00  0.00    +0.370 C 
ATOM     11  C   LIG    1      -10.461   0.974   7.351  0.00  0.00    +0.040 C 
BRANCH  10  13
ATOM     12  C   LIG    1      -12.803   3.534   7.370  0.00  0.00    +0.060 C 
ATOM     13  C   LIG    1      -11.812   2.996   7.044  0.00  0.00    -0.210 C 
ENDBRANCH  10  13
ENDBRANCH   6  10
ENDBRANCH   1   8
BRANCH   3  14
ATOM     14  C   LIG    1       -7.971   1.259  -0.204  0.00  0.00    +0.340 C 
BRANCH  14  15
ATOM     15  C   LIG    1       -8.371  -0.050  -0.888  0.00  0.00    +0.240 C 
ATOM     16  C   LIG    1       -9.809   0.055  -1.454  0.00  0.00    +0.050 C 
ATOM     17  C   LIG    1       -9.779  -1.012  -2.580  0.00  0.00    +0.040 C 
ATOM     18  C   LIG    1       -8.339  -0.900  -3.125  0.00  0.00    +0.270 C 
ATOM     19  N   LIG    1       -7.518  -0.294  -2.066  0.00  0.00    -0.600 N 
ATOM     20  C   LIG    1       -6.204  -0.009  -2.158  0.00  0.00    +0.670 C 
ATOM     21  O   LIG    1       -5.603   0.405  -1.186  0.00  0.00    -0.570 OA
BRANCH  20  22
ATOM     22  O   LIG    1       -5.558  -0.182  -3.326  0.00  0.00    -0.360 OA
BRANCH  22  23
ATOM     23  C   LIG    1       -4.143   0.146  -3.351  0.00  0.00    +0.140 C 
ATOM     24  C   LIG    1       -3.955   1.621  -2.991  0.00  0.00    +0.040 C 
ATOM     25  C   LIG    1       -3.585  -0.113  -4.752  0.00  0.00    +0.080 C 
ATOM     26  C   LIG    1       -3.400  -0.726  -2.337  0.00  0.00    +0.040 C 
ENDBRANCH  22  23
ENDBRANCH  20  22
ENDBRANCH  14  15
ENDBRANCH   3  14
TORSDOF 7
