REMARK  Name = ZINCtV00000pruil.0
REMARK                            x       y       z     vdW  Elec       q    Type
REMARK                         _______ _______ _______ _____ _____    ______ ____
ROOT
ATOM      1  C   LIG    1        1.053   0.360   4.646  0.00  0.00    +0.240 A 
ATOM      2  N   LIG    1        1.761  -0.127   3.653  0.00  0.00    -0.270 NA
ATOM      3  N   LIG    1        1.245   0.226   2.530  0.00  0.00    -0.280 NA
ATOM      4  C   LIG    1        0.174   0.961   2.735  0.00  0.00    +0.160 A 
ATOM      5  N   LIG    1        0.016   1.077   4.089  0.00  0.00    -0.410 N 
ENDROOT
BRANCH   1  10
ATOM      6  C   LIG    1        2.097  -0.345  10.261  0.00  0.00    +0.090 C 
ATOM      7  C   LIG    1        1.824  -0.160   8.790  0.00  0.00    -0.070 A 
ATOM      8  C   LIG    1        2.807  -0.460   7.864  0.00  0.00    +0.010 A 
ATOM      9  C   LIG    1        2.563  -0.293   6.516  0.00  0.00    +0.070 A 
ATOM     10  C   LIG    1        1.321   0.179   6.088  0.00  0.00    -0.030 A 
ATOM     11  C   LIG    1        0.336   0.485   7.028  0.00  0.00    +0.030 A 
ATOM     12  C   LIG    1        0.591   0.309   8.373  0.00  0.00    +0.010 A 
ENDBRANCH   1  10
BRANCH   5  13
ATOM     13  C   LIG    1       -0.990   1.778   4.768  0.00  0.00    +0.090 A 
ATOM     14  C   LIG    1       -0.666   2.880   5.548  0.00  0.00    +0.040 A 
ATOM     15  C   LIG    1       -1.661   3.571   6.212  0.00  0.00    +0.030 A 
ATOM     16  C   LIG    1       -2.977   3.160   6.109  0.00  0.00    -0.060 A 
ATOM     17  C   LIG    1       -3.302   2.060   5.336  0.00  0.00    +0.030 A 
ATOM     18  C   LIG    1       -4.059   3.913   6.838  0.00  0.00    +0.100 C 
ATOM     19  C   LIG    1       -2.313   1.368   4.666  0.00  0.00    +0.040 A 
ENDBRANCH   5  13
BRANCH   4  20
ATOM     20  S   LIG    1       -0.860   1.669   1.497  0.00  0.00    +0.020 S 
BRANCH  20  21
ATOM     21  C   LIG    1       -0.013   1.086   0.008  0.00  0.00    +0.140 C 
BRANCH  21  22
ATOM     22  C   LIG    1       -0.742   1.585  -1.213  0.00  0.00    -0.020 C 
ATOM     23  C   LIG    1       -0.149   2.439  -2.035  0.00  0.00    +0.040 C 
BRANCH  23  24
ATOM     24  C   LIG    1       -0.864   2.929  -3.233  0.00  0.00    -0.060 A 
ATOM     25  C   LIG    1       -2.160   2.490  -3.503  0.00  0.00    +0.020 A 
ATOM     26  C   LIG    1       -2.825   2.956  -4.619  0.00  0.00    +0.000 A 
ATOM     27  C   LIG    1       -2.204   3.847  -5.476  0.00  0.00    +0.000 A 
ATOM     28  C   LIG    1       -0.916   4.282  -5.216  0.00  0.00    +0.000 A 
ATOM     29  C   LIG    1       -0.243   3.829  -4.101  0.00  0.00    +0.030 A 
ENDBRANCH  23  24
ENDBRANCH  21  22
ENDBRANCH  20  21
ENDBRANCH   4  20
TORSDOF 6
