REMARK  Name = ZINCrD000000BWGq.0
REMARK                            x       y       z     vdW  Elec       q    Type
REMARK                         _______ _______ _______ _____ _____    ______ ____
ROOT
ATOM      1  O   LIG    1        0.331  -2.623   0.283  0.00  0.00    -0.460 OA
ATOM      2  C   LIG    1        0.835  -2.011   1.201  0.00  0.00    +0.510 C 
ATOM      3  N   LIG    1        1.464  -2.677   2.189  0.00  0.00    -0.660 N 
ATOM      4  H   LIG    1        1.930  -2.186   2.884  0.00  0.00    +0.420 HD
ENDROOT
BRANCH   2   5
ATOM      5  C   LIG    1        0.757  -0.506   1.236  0.00  0.00    -0.010 C 
ATOM      6  C   LIG    1       -0.004  -0.004   0.006  0.00  0.00    +0.060 C 
ATOM      7  C   LIG    1       -0.027   1.526   0.016  0.00  0.00    +0.210 C 
ATOM      8  N   LIG    1        1.350   2.037   0.004  0.00  0.00    -0.470 N 
ATOM      9  C   LIG    1        2.087   1.607   1.199  0.00  0.00    +0.200 C 
ATOM     10  C   LIG    1        2.172   0.079   1.225  0.00  0.00    +0.060 C 
BRANCH   8  11
ATOM     11  C   LIG    1        1.366   3.422  -0.120  0.00  0.00    +0.270 A 
ATOM     12  C   LIG    1        2.579   4.106  -0.151  0.00  0.00    +0.210 A 
ATOM     13  N   LIG    1        2.590   5.420  -0.269  0.00  0.00    -0.420 NA
ATOM     14  C   LIG    1        1.452   6.087  -0.357  0.00  0.00    +0.180 A 
ATOM     15  C   LIG    1        0.246   5.412  -0.327  0.00  0.00    +0.250 A 
ATOM     16  N   LIG    1        0.227   4.095  -0.214  0.00  0.00    -0.480 NA
ENDBRANCH   8  11
ENDBRANCH   2   5
BRANCH   3  17
ATOM     17  C   LIG    1        1.444  -4.069   2.214  0.00  0.00    +0.360 A 
ATOM     18  C   LIG    1        2.003  -4.745   3.293  0.00  0.00    -0.060 A 
ATOM     19  C   LIG    1        1.975  -6.126   3.313  0.00  0.00    +0.100 A 
ATOM     20  C   LIG    1        1.391  -6.795   2.232  0.00  0.00    -0.130 A 
ATOM     21  C   LIG    1        0.856  -6.050   1.184  0.00  0.00    +0.310 A 
ATOM     22  N   LIG    1        0.898  -4.733   1.206  0.00  0.00    -0.470 NA
BRANCH  20  23
ATOM     23  C   LIG    1        1.341  -8.277   2.202  0.00  0.00    -0.040 A 
ATOM     24  C   LIG    1        1.883  -9.016   3.252  0.00  0.00    +0.010 A 
ATOM     25  C   LIG    1        1.829 -10.395   3.221  0.00  0.00    +0.000 A 
ATOM     26  C   LIG    1        1.249 -11.044   2.146  0.00  0.00    +0.000 A 
ATOM     27  C   LIG    1        0.715 -10.315   1.099  0.00  0.00    +0.020 A 
ATOM     28  C   LIG    1        0.758  -8.936   1.121  0.00  0.00    +0.020 A 
ENDBRANCH  20  23
ENDBRANCH   3  17
TORSDOF 4
