REMARK  Name = ZINCpk00000y6y49.0
REMARK                            x       y       z     vdW  Elec       q    Type
REMARK                         _______ _______ _______ _____ _____    ______ ____
ROOT
ATOM      1  C   LIG    1        1.920  -2.552  -0.030  0.00  0.00    +0.400 C 
ENDROOT
BRANCH   1   4
ATOM      2  O   LIG    1       -0.370  -3.670  -0.913  0.00  0.00    -0.520 OA
ATOM      3  C   LIG    1       -0.453  -3.079   0.146  0.00  0.00    +0.570 C 
ATOM      4  N   LIG    1        0.636  -2.486   0.673  0.00  0.00    -0.740 N 
ATOM      5  H   LIG    1        0.571  -2.015   1.519  0.00  0.00    +0.410 HD
BRANCH   3   6
ATOM      6  C   LIG    1       -1.748  -3.013   0.856  0.00  0.00    -0.140 A 
ATOM      7  C   LIG    1       -1.845  -2.341   2.076  0.00  0.00    +0.040 A 
ATOM      8  C   LIG    1       -3.057  -2.278   2.731  0.00  0.00    +0.000 A 
ATOM      9  C   LIG    1       -4.173  -2.888   2.187  0.00  0.00    +0.040 A 
ATOM     10  C   LIG    1       -4.083  -3.561   0.981  0.00  0.00    +0.000 A 
ATOM     11  C   LIG    1       -2.877  -3.627   0.313  0.00  0.00    +0.080 A 
ENDBRANCH   3   6
ENDBRANCH   1   4
BRANCH   1  12
ATOM     12  C   LIG    1        2.564  -1.190  -0.029  0.00  0.00    +0.430 C 
ATOM     13  O   LIG    1        3.774  -1.090  -0.041  0.00  0.00    -0.410 OA
BRANCH  12  14
ATOM     14  C   LIG    1        1.760  -0.028  -0.015  0.00  0.00    -0.320 A 
ATOM     15  C   LIG    1        2.226   1.262  -0.012  0.00  0.00    +0.120 A 
ATOM     16  C   LIG    1        1.224   2.199   0.002  0.00  0.00    -0.010 A 
ATOM     17  C   LIG    1       -0.021   1.702   0.011  0.00  0.00    -0.060 A 
ATOM     18  S   LIG    1        0.002  -0.004   0.002  0.00  0.00    +0.240 S 
ENDBRANCH  12  14
ENDBRANCH   1  12
BRANCH   1  19
ATOM     19  N   LIG    1        2.801  -3.511   0.648  0.00  0.00    -0.650 NA
ATOM     20  H   LIG    1        2.488  -3.685   1.591  0.00  0.00    +0.360 HD
BRANCH  19  21
ATOM     21  C   LIG    1        2.902  -4.763  -0.113  0.00  0.00    +0.170 C 
ATOM     22  C   LIG    1        3.260  -5.919   0.838  0.00  0.00    +0.080 C 
ATOM     23  C   LIG    1        3.672  -7.117  -0.057  0.00  0.00    -0.310 C 
ATOM     24  S   LIG    1        4.709  -6.319  -1.340  0.00  0.00    +2.400 S 
ATOM     25  O   LIG    1        4.370  -6.848  -2.615  0.00  0.00    -0.940 OA
ATOM     26  O   LIG    1        6.064  -6.310  -0.912  0.00  0.00    -0.930 OA
ATOM     27  C   LIG    1        4.013  -4.637  -1.174  0.00  0.00    -0.290 C 
ENDBRANCH  19  21
ENDBRANCH   1  19
TORSDOF 6
