REMARK  Name = ZINCtV000002ygCm.0
REMARK                            x       y       z     vdW  Elec       q    Type
REMARK                         _______ _______ _______ _____ _____    ______ ____
ROOT
ATOM      1  C   LIG    1       -3.565   7.838   2.612  0.00  0.00    +0.290 C 
ENDROOT
BRANCH   1   2
ATOM      2  C   LIG    1       -4.822   7.255   2.020  0.00  0.00    -0.090 A 
ATOM      3  C   LIG    1       -4.814   6.760   0.732  0.00  0.00    +0.010 A 
ATOM      4  C   LIG    1       -5.966   6.219   0.189  0.00  0.00    +0.010 A 
ATOM      5  C   LIG    1       -7.134   6.181   0.929  0.00  0.00    +0.010 A 
ATOM      6  C   LIG    1       -7.154   6.679   2.217  0.00  0.00    +0.030 A 
ATOM      7  C   LIG    1       -5.996   7.219   2.771  0.00  0.00    -0.030 A 
BRANCH   7   8
ATOM      8  C   LIG    1       -6.012   7.756   4.154  0.00  0.00    -0.040 A 
ATOM      9  C   LIG    1       -5.084   7.303   5.090  0.00  0.00    +0.000 A 
ATOM     10  C   LIG    1       -5.100   7.810   6.374  0.00  0.00    +0.020 A 
ATOM     11  C   LIG    1       -6.042   8.757   6.735  0.00  0.00    +0.000 A 
ATOM     12  C   LIG    1       -6.968   9.205   5.811  0.00  0.00    +0.020 A 
ATOM     13  C   LIG    1       -6.958   8.710   4.523  0.00  0.00    +0.020 A 
ENDBRANCH   7   8
ENDBRANCH   1   2
BRANCH   1  15
ATOM     14  C   LIG    1       -2.588   9.839   3.745  0.00  0.00    +0.030 C 
ATOM     15  C   LIG    1       -3.826   9.285   3.037  0.00  0.00    +0.030 C 
ENDBRANCH   1  15
BRANCH   1  16
ATOM     16  N   LIG    1       -2.495   7.808   1.612  0.00  0.00    -1.100 NA
ATOM     17  H   LIG    1       -2.398   8.540   0.983  0.00  0.00    +0.420 HD
BRANCH  16  18
ATOM     18  S   LIG    1       -1.450   6.525   1.556  0.00  0.00    +2.690 S 
ATOM     19  O   LIG    1       -0.508   6.819   0.533  0.00  0.00    -0.950 OA
ATOM     20  O   LIG    1       -1.079   6.250   2.899  0.00  0.00    -0.930 OA
BRANCH  18  21
ATOM     21  C   LIG    1       -2.370   5.128   0.999  0.00  0.00    -0.710 A 
ATOM     22  C   LIG    1       -2.204   4.664  -0.292  0.00  0.00    +0.200 A 
ATOM     23  C   LIG    1       -2.924   3.569  -0.732  0.00  0.00    -0.070 A 
ATOM     24  C   LIG    1       -3.813   2.935   0.123  0.00  0.00    +0.210 A 
ATOM     25  C   LIG    1       -3.983   3.406   1.417  0.00  0.00    -0.080 A 
ATOM     26 CL   LIG    1       -5.100   2.620   2.489  0.00  0.00    -0.020 Cl
ATOM     27  C   LIG    1       -3.256   4.499   1.855  0.00  0.00    +0.100 A 
ATOM     28 CL   LIG    1       -3.462   5.085   3.476  0.00  0.00    -0.000 Cl
BRANCH  24  29
ATOM     29  O   LIG    1       -4.521   1.858  -0.308  0.00  0.00    -0.290 OA
ATOM     30  C   LIG    1       -4.300   1.433  -1.655  0.00  0.00    +0.260 C 
ENDBRANCH  24  29
ENDBRANCH  18  21
ENDBRANCH  16  18
ENDBRANCH   1  16
TORSDOF 7
