REMARK  Name = ZINCrD00000F5Ll0.0
REMARK                            x       y       z     vdW  Elec       q    Type
REMARK                         _______ _______ _______ _____ _____    ______ ____
ROOT
ATOM      1  C   LIG    1       -0.400   5.593   0.069  0.00  0.00    +0.170 A 
ATOM      2  C   LIG    1       -1.776   5.671   0.091  0.00  0.00    +0.120 A 
ATOM      3  N   LIG    1       -2.265   4.419   0.104  0.00  0.00    -0.460 NA
ATOM      4  C   LIG    1       -1.259   3.557   0.093  0.00  0.00    +0.200 A 
ATOM      5  C   LIG    1       -1.224   2.149   0.105  0.00  0.00    +0.120 A 
ATOM      6  C   LIG    1       -0.025   1.504   0.083  0.00  0.00    -0.130 A 
ATOM      7  C   LIG    1       -0.006  -0.004   0.095  0.00  0.00    +0.100 C 
ATOM      8  C   LIG    1        1.365  -0.504  -0.366  0.00  0.00    +0.010 C 
ATOM      9  C   LIG    1        2.446   0.262   0.407  0.00  0.00    +0.240 C 
ATOM     10  O   LIG    1        2.385   1.638   0.030  0.00  0.00    -0.310 OA
ATOM     11  C   LIG    1        1.169   2.248   0.056  0.00  0.00    +0.120 A 
ATOM     12  C   LIG    1        1.121   3.603   0.052  0.00  0.00    +0.150 A 
ATOM     13  N   LIG    1       -0.079   4.263   0.070  0.00  0.00    -0.360 N 
ENDROOT
BRANCH   2  14
ATOM     14  C   LIG    1       -2.578   6.920   0.097  0.00  0.00    +0.080 A 
ATOM     15  C   LIG    1       -3.854   7.055  -0.347  0.00  0.00    +0.170 A 
ATOM     16  N   LIG    1       -4.200   8.366  -0.155  0.00  0.00    -0.430 N 
ATOM     17  C   LIG    1       -3.136   8.987   0.396  0.00  0.00    +0.380 A 
ATOM     18  N   LIG    1       -2.172   8.123   0.551  0.00  0.00    -0.450 NA
BRANCH  16  19
ATOM     19  C   LIG    1       -5.489   8.980  -0.485  0.00  0.00    +0.190 C 
ATOM     20  C   LIG    1       -5.594  10.503  -0.374  0.00  0.00    +0.050 C 
ATOM     21  C   LIG    1       -6.285   9.610   0.659  0.00  0.00    +0.030 C 
ENDBRANCH  16  19
ENDBRANCH   2  14
BRANCH   1  22
ATOM     22  N   LIG    1        0.495   6.666   0.051  0.00  0.00    -0.550 N 
ATOM     23  H   LIG    1        0.366   7.230  -0.776  0.00  0.00    +0.360 HD
BRANCH  22  24
ATOM     24  C   LIG    1        1.883   6.195   0.155  0.00  0.00    +0.190 C 
BRANCH  24  25
ATOM     25  C   LIG    1        2.821   7.398   0.281  0.00  0.00    +0.180 C 
BRANCH  25  26
ATOM     26  O   LIG    1        2.559   8.080   1.509  0.00  0.00    -0.370 OA
BRANCH  26  28
ATOM     27  C   LIG    1        3.021   9.873   3.062  0.00  0.00    +0.050 C 
ATOM     28  C   LIG    1        3.386   9.225   1.725  0.00  0.00    +0.150 C 
ENDBRANCH  26  28
ENDBRANCH  25  26
ENDBRANCH  24  25
ENDBRANCH  22  24
ENDBRANCH   1  22
TORSDOF 7
