REMARK  Name = ZINCvU00000008Lu.1
REMARK                            x       y       z     vdW  Elec       q    Type
REMARK                         _______ _______ _______ _____ _____    ______ ____
ROOT
ATOM      1  N   LIG    1       -3.614   1.913   0.845  0.00  0.00    -0.720 N 
ATOM      2  H   LIG    1       -3.581   2.858   1.060  0.00  0.00    +0.400 HD
ATOM      3  C   LIG    1       -4.546   1.124   1.417  0.00  0.00    +0.520 C 
ATOM      4  O   LIG    1       -4.587  -0.058   1.149  0.00  0.00    -0.510 OA
ENDROOT
BRANCH   3   5
ATOM      5  C   LIG    1       -5.535   1.711   2.391  0.00  0.00    -0.010 C 
ATOM      6  C   LIG    1       -4.783   2.425   3.515  0.00  0.00    +0.040 C 
ATOM      7  C   LIG    1       -3.883   1.425   4.243  0.00  0.00    +0.010 C 
ATOM      8  C   LIG    1       -4.741   0.305   4.835  0.00  0.00    +0.010 C 
ATOM      9  C   LIG    1       -5.494  -0.410   3.711  0.00  0.00    +0.060 C 
ATOM     10  C   LIG    1       -6.393   0.591   2.983  0.00  0.00    +0.120 C 
BRANCH  10  11
ATOM     11  C   LIG    1       -7.135  -0.113   1.876  0.00  0.00    +0.320 A 
ATOM     12  N   LIG    1       -7.402  -1.386   1.850  0.00  0.00    -0.480 NA
ATOM     13  C   LIG    1       -8.080  -1.687   0.712  0.00  0.00    +0.060 A 
ATOM     14  C   LIG    1       -8.601  -2.871   0.186  0.00  0.00    +0.090 A 
ATOM     15  C   LIG    1       -9.251  -2.855  -1.016  0.00  0.00    +0.020 A 
ATOM     16  C   LIG    1       -9.400  -1.671  -1.724  0.00  0.00    -0.020 A 
ATOM     17  C   LIG    1       -8.893  -0.489  -1.224  0.00  0.00    +0.030 A 
ATOM     18 CL   LIG    1      -10.229  -1.676  -3.250  0.00  0.00    -0.060 Cl
ATOM     19  C   LIG    1       -8.230  -0.487  -0.005  0.00  0.00    +0.060 A 
ATOM     20  N   LIG    1       -7.627   0.491   0.760  0.00  0.00    -0.600 N 
ATOM     21  H   LIG    1       -7.564   1.435   0.542  0.00  0.00    +0.420 HD
ENDBRANCH  10  11
ENDBRANCH   3   5
BRANCH   1  22
ATOM     22  C   LIG    1       -2.652   1.342  -0.101  0.00  0.00    +0.290 C 
ATOM     23  C   LIG    1       -3.272   1.308  -1.500  0.00  0.00    +0.030 C 
BRANCH  22  28
ATOM     24  C   LIG    1        0.982   2.372  -0.219  0.00  0.00    +0.150 A 
ATOM     25  C   LIG    1        0.877   3.756  -0.170  0.00  0.00    +0.020 A 
ATOM     26  C   LIG    1       -0.368   4.350  -0.096  0.00  0.00    +0.030 A 
ATOM     27  C   LIG    1       -1.508   3.568  -0.069  0.00  0.00    -0.010 A 
ATOM     28  C   LIG    1       -1.407   2.190  -0.123  0.00  0.00    -0.070 A 
ATOM     29  C   LIG    1       -0.165   1.590  -0.193  0.00  0.00    +0.000 A 
BRANCH  24  32
ATOM     30  C   LIG    1        4.555   1.657  -1.164  0.00  0.00    +0.110 C 
ATOM     31  C   LIG    1        3.232   2.357  -0.994  0.00  0.00    +0.510 C 
ATOM     32  N   LIG    1        2.242   1.767  -0.295  0.00  0.00    -0.680 N 
ATOM     33  H   LIG    1        2.402   0.923   0.155  0.00  0.00    +0.410 HD
ATOM     34  O   LIG    1        3.057   3.452  -1.486  0.00  0.00    -0.520 OA
ENDBRANCH  24  32
ENDBRANCH  22  28
ENDBRANCH   1  22
TORSDOF 5
