REMARK  Name = ZINCvU00000008Lu.0
REMARK                            x       y       z     vdW  Elec       q    Type
REMARK                         _______ _______ _______ _____ _____    ______ ____
ROOT
ATOM      1  N   LIG    1        2.611  -0.441  -3.264  0.00  0.00    -0.720 N 
ATOM      2  H   LIG    1        3.228  -0.027  -3.887  0.00  0.00    +0.400 HD
ATOM      3  C   LIG    1        2.593  -0.051  -1.974  0.00  0.00    +0.540 C 
ATOM      4  O   LIG    1        1.822  -0.568  -1.194  0.00  0.00    -0.550 OA
ENDROOT
BRANCH   3   5
ATOM      5  C   LIG    1        3.532   1.029  -1.500  0.00  0.00    +0.010 C 
ATOM      6  C   LIG    1        4.978   0.585  -1.733  0.00  0.00    +0.040 C 
ATOM      7  C   LIG    1        5.248  -0.703  -0.954  0.00  0.00    +0.000 C 
ATOM      8  C   LIG    1        5.025  -0.452   0.539  0.00  0.00    +0.020 C 
ATOM      9  C   LIG    1        3.580  -0.009   0.772  0.00  0.00    +0.030 C 
ATOM     10  C   LIG    1        3.310   1.280  -0.008  0.00  0.00    +0.120 C 
BRANCH  10  11
ATOM     11  C   LIG    1        1.886   1.717   0.222  0.00  0.00    +0.300 A 
ATOM     12  N   LIG    1        1.489   2.953   0.298  0.00  0.00    -0.500 NA
ATOM     13  C   LIG    1        0.148   2.990   0.509  0.00  0.00    +0.060 A 
ATOM     14  C   LIG    1       -0.774   4.028   0.665  0.00  0.00    +0.080 A 
ATOM     15  C   LIG    1       -2.104   3.736   0.870  0.00  0.00    -0.040 A 
ATOM     16  C   LIG    1       -2.536   2.418   0.922  0.00  0.00    +0.040 A 
ATOM     17  C   LIG    1       -1.639   1.382   0.770  0.00  0.00    +0.030 A 
ATOM     18 CL   LIG    1       -3.250   5.027   1.063  0.00  0.00    -0.070 Cl
ATOM     19  C   LIG    1       -0.296   1.658   0.557  0.00  0.00    +0.050 A 
ATOM     20  N   LIG    1        0.828   0.875   0.378  0.00  0.00    -0.560 N 
ATOM     21  H   LIG    1        0.858  -0.094   0.362  0.00  0.00    +0.430 HD
ENDBRANCH  10  11
ENDBRANCH   3   5
BRANCH   1  22
ATOM     22  C   LIG    1        1.698  -1.490  -3.724  0.00  0.00    +0.290 C 
ATOM     23  C   LIG    1        0.346  -0.869  -4.083  0.00  0.00    +0.030 C 
BRANCH  22  28
ATOM     24  C   LIG    1        2.709  -4.153  -6.208  0.00  0.00    +0.150 A 
ATOM     25  C   LIG    1        3.352  -3.394  -7.177  0.00  0.00    +0.020 A 
ATOM     26  C   LIG    1        3.456  -2.026  -7.024  0.00  0.00    +0.040 A 
ATOM     27  C   LIG    1        2.921  -1.411  -5.907  0.00  0.00    -0.010 A 
ATOM     28  C   LIG    1        2.280  -2.164  -4.940  0.00  0.00    -0.070 A 
ATOM     29  C   LIG    1        2.177  -3.533  -5.085  0.00  0.00    +0.000 A 
BRANCH  24  32
ATOM     30  C   LIG    1        3.420  -7.702  -7.243  0.00  0.00    +0.110 C 
ATOM     31  C   LIG    1        3.586  -6.228  -6.973  0.00  0.00    +0.510 C 
ATOM     32  N   LIG    1        2.603  -5.540  -6.360  0.00  0.00    -0.680 N 
ATOM     33  H   LIG    1        1.821  -6.006  -6.024  0.00  0.00    +0.410 HD
ATOM     34  O   LIG    1        4.606  -5.662  -7.307  0.00  0.00    -0.520 OA
ENDBRANCH  24  32
ENDBRANCH  22  28
ENDBRANCH   1  22
TORSDOF 5
