REMARK  Name = ZINCrH00000No53N.0
REMARK                            x       y       z     vdW  Elec       q    Type
REMARK                         _______ _______ _______ _____ _____    ______ ____
ROOT
ATOM      1  C   LIG    1        3.144   3.838  -1.356  0.00  0.00    +0.370 C 
ATOM      2  O   LIG    1        2.201   4.300  -1.966  0.00  0.00    -0.490 OA
ENDROOT
BRANCH   1  15
ATOM      3  C   LIG    1        2.500   3.948  -4.090  0.00  0.00    +0.330 C 
ATOM      4  N   LIG    1        3.803   4.618  -4.090  0.00  0.00    -0.500 N 
ATOM      5  C   LIG    1        4.316   5.324  -5.177  0.00  0.00    +0.130 A 
ATOM      6  C   LIG    1        3.780   5.561  -6.442  0.00  0.00    -0.010 A 
ATOM      7  C   LIG    1        4.490   6.295  -7.369  0.00  0.00    +0.050 A 
ATOM      8  C   LIG    1        5.737   6.801  -7.053  0.00  0.00    -0.010 A 
ATOM      9  C   LIG    1        6.277   6.569  -5.800  0.00  0.00    +0.070 A 
ATOM     10  C   LIG    1        5.571   5.837  -4.872  0.00  0.00    -0.130 A 
ATOM     11  C   LIG    1        5.874   5.419  -3.451  0.00  0.00    -0.010 C 
ATOM     12  C   LIG    1        7.124   4.537  -3.408  0.00  0.00    +0.070 C 
ATOM     13  C   LIG    1        6.053   6.648  -2.558  0.00  0.00    +0.070 C 
ATOM     14  C   LIG    1        4.654   4.629  -3.029  0.00  0.00    +0.290 C 
ATOM     15  C   LIG    1        4.450   4.040  -1.825  0.00  0.00    -0.240 C 
ENDBRANCH   1  15
BRANCH   1  16
ATOM     16  C   LIG    1        2.912   3.047  -0.094  0.00  0.00    +0.290 C 
BRANCH  16  17
ATOM     17  N   LIG    1        1.474   2.978   0.181  0.00  0.00    -0.480 N 
ATOM     18  C   LIG    1        0.890   3.938   0.942  0.00  0.00    +0.380 A 
ATOM     19  C   LIG    1       -0.436   3.896   1.210  0.00  0.00    -0.300 A 
ATOM     20  C   LIG    1       -1.222   2.856   0.694  0.00  0.00    +0.160 A 
ATOM     21  C   LIG    1       -0.632   1.889  -0.066  0.00  0.00    -0.070 A 
ATOM     22  C   LIG    1        0.747   1.964  -0.325  0.00  0.00    +0.520 A 
ATOM     23  O   LIG    1        1.287   1.108  -1.008  0.00  0.00    -0.530 OA
BRANCH  19  24
ATOM     24  C   LIG    1       -1.068   4.970   2.058  0.00  0.00    +0.530 C 
ATOM     25  F   LIG    1       -0.099   5.536   2.893  0.00  0.00    -0.180 F 
ATOM     26  F   LIG    1       -2.086   4.409   2.838  0.00  0.00    -0.170 F 
ATOM     27  F   LIG    1       -1.607   5.961   1.230  0.00  0.00    -0.170 F 
ENDBRANCH  19  24
ENDBRANCH  16  17
ENDBRANCH   1  16
TORSDOF 4
