REMARK  Name = ZINCrg00000SjSsd.0
REMARK                            x       y       z     vdW  Elec       q    Type
REMARK                         _______ _______ _______ _____ _____    ______ ____
ROOT
ATOM      1  N   LIG    1        0.732  -0.351  -1.225  0.00  0.00    -0.430 N 
ATOM      2  C   LIG    1        1.751   0.117  -0.275  0.00  0.00    +0.200 C 
ATOM      3  C   LIG    1        1.702   1.645  -0.192  0.00  0.00    +0.240 C 
ATOM      4  O   LIG    1        0.384   2.054   0.183  0.00  0.00    -0.370 OA
ATOM      5  C   LIG    1       -0.635   1.616  -0.720  0.00  0.00    +0.250 C 
ATOM      6  C   LIG    1       -0.608   0.088  -0.809  0.00  0.00    +0.110 C 
ENDROOT
BRANCH   1  10
ATOM      7  C   LIG    1        1.342  -3.722  -2.215  0.00  0.00    +0.270 A 
ATOM      8  N   LIG    1        0.599  -4.232  -1.276  0.00  0.00    -0.420 NA
ATOM      9  S   LIG    1       -0.007  -2.910  -0.396  0.00  0.00    +0.180 S 
ATOM     10  C   LIG    1        0.781  -1.726  -1.368  0.00  0.00    +0.260 A 
ATOM     11  N   LIG    1        1.444  -2.414  -2.273  0.00  0.00    -0.490 NA
BRANCH   7  12
ATOM     12  C   LIG    1        2.061  -4.603  -3.203  0.00  0.00    +0.280 C 
ATOM     13  C   LIG    1        1.059  -5.155  -4.218  0.00  0.00    +0.040 C 
BRANCH  12  15
ATOM     14  C   LIG    1        3.875  -6.168  -3.133  0.00  0.00    +0.220 C 
ATOM     15  O   LIG    1        2.683  -5.687  -2.510  0.00  0.00    -0.370 OA
ENDBRANCH  12  15
ENDBRANCH   7  12
ENDBRANCH   1  10
BRANCH   6  16
ATOM     16  C   LIG    1       -1.642  -0.383  -1.834  0.00  0.00    +0.280 C 
BRANCH  16  17
ATOM     17  N   LIG    1       -2.987  -0.050  -1.360  0.00  0.00    -0.720 N 
ATOM     18  H   LIG    1       -3.101   0.460  -0.542  0.00  0.00    +0.410 HD
ATOM     19  C   LIG    1       -4.067  -0.452  -2.059  0.00  0.00    +0.610 C 
ATOM     20  O   LIG    1       -3.929  -1.168  -3.032  0.00  0.00    -0.540 OA
BRANCH  19  21
ATOM     21  C   LIG    1       -5.414  -0.025  -1.644  0.00  0.00    -0.060 A 
ATOM     22  C   LIG    1       -6.578  -0.273  -2.308  0.00  0.00    +0.250 A 
ATOM     23  N   LIG    1       -7.576   0.294  -1.582  0.00  0.00    -0.480 N 
ATOM     24  C   LIG    1       -9.035   0.478  -1.585  0.00  0.00    +0.300 C 
ATOM     25  C   LIG    1       -9.309   1.629  -0.592  0.00  0.00    +0.070 C 
ATOM     26  C   LIG    1       -8.088   1.534   0.350  0.00  0.00    +0.160 C 
ATOM     27  C   LIG    1       -7.014   0.879  -0.495  0.00  0.00    +0.190 A 
ATOM     28  N   LIG    1       -5.723   0.683  -0.529  0.00  0.00    -0.450 NA
ENDBRANCH  19  21
ENDBRANCH  16  17
ENDBRANCH   6  16
TORSDOF 6
