REMARK  Name = ZINCpe00000ziSQc.0
REMARK                            x       y       z     vdW  Elec       q    Type
REMARK                         _______ _______ _______ _____ _____    ______ ____
ROOT
ATOM      1  C   LIG    1       -0.556  -0.031   3.656  0.00  0.00    +0.250 C 
ATOM      2  C   LIG    1       -1.636  -1.108   3.775  0.00  0.00    +0.030 C 
ATOM      3  C   LIG    1       -1.574  -0.221   2.530  0.00  0.00    -0.060 C 
ENDROOT
BRANCH   1   5
ATOM      4  C   LIG    1        1.839   0.083   4.089  0.00  0.00    +0.590 C 
ATOM      5  N   LIG    1        0.818  -0.475   3.409  0.00  0.00    -0.700 N 
ATOM      6  H   LIG    1        0.992  -1.170   2.755  0.00  0.00    +0.400 HD
ATOM      7  O   LIG    1        1.620   0.954   4.908  0.00  0.00    -0.540 OA
BRANCH   4  13
ATOM      8  C   LIG    1        4.292   0.110   4.628  0.00  0.00    +0.490 A 
ATOM      9  N   LIG    1        5.521  -0.323   4.364  0.00  0.00    -0.580 NA
ATOM     10  C   LIG    1        5.739  -1.179   3.387  0.00  0.00    +0.570 A 
ATOM     11  N   LIG    1        4.766  -1.646   2.629  0.00  0.00    -0.560 NA
ATOM     12  C   LIG    1        3.511  -1.275   2.821  0.00  0.00    +0.390 A 
ATOM     13  C   LIG    1        3.222  -0.364   3.840  0.00  0.00    -0.320 A 
BRANCH   8  14
ATOM     14  N   LIG    1        4.067   1.006   5.652  0.00  0.00    -0.810 N 
ATOM     15  H   LIG    1        4.805   1.517   6.019  0.00  0.00    +0.410 HD
ATOM     16  H   LIG    1        3.171   1.125   6.004  0.00  0.00    +0.430 HD
ENDBRANCH   8  14
ENDBRANCH   4  13
ENDBRANCH   1   5
BRANCH   3  17
ATOM     17  C   LIG    1       -1.079  -0.860   1.231  0.00  0.00    +0.300 C 
BRANCH  17  18
ATOM     18  N   LIG    1       -2.157  -0.849   0.239  0.00  0.00    -0.720 N 
ATOM     19  H   LIG    1       -3.020  -0.470   0.466  0.00  0.00    +0.400 HD
ATOM     20  C   LIG    1       -1.948  -1.364  -0.989  0.00  0.00    +0.560 C 
ATOM     21  O   LIG    1       -0.866  -1.839  -1.273  0.00  0.00    -0.510 OA
BRANCH  20  22
ATOM     22  C   LIG    1       -3.035  -1.352  -1.989  0.00  0.00    -0.150 A 
ATOM     23  C   LIG    1       -4.280  -0.808  -1.666  0.00  0.00    +0.070 A 
ATOM     24  C   LIG    1       -5.291  -0.800  -2.603  0.00  0.00    +0.040 A 
ATOM     25  C   LIG    1       -5.077  -1.329  -3.864  0.00  0.00    +0.050 A 
ATOM     26  C   LIG    1       -3.847  -1.871  -4.195  0.00  0.00    +0.060 A 
ATOM     27  F   LIG    1       -3.646  -2.386  -5.428  0.00  0.00    -0.120 F 
ATOM     28  C   LIG    1       -2.821  -1.881  -3.265  0.00  0.00    +0.130 A 
ATOM     29  F   LIG    1       -1.618  -2.405  -3.589  0.00  0.00    -0.100 F 
ENDBRANCH  20  22
ENDBRANCH  17  18
ENDBRANCH   3  17
TORSDOF 6
