REMARK  Name = ZINCrg000000ou7Q.0
REMARK                            x       y       z     vdW  Elec       q    Type
REMARK                         _______ _______ _______ _____ _____    ______ ____
ROOT
ATOM      1  N   LIG    1        6.940   4.611   3.597  0.00  0.00    -0.520 NA
ATOM      2  C   LIG    1        7.652   4.051   2.440  0.00  0.00    +0.190 C 
ATOM      3  C   LIG    1        6.906   4.423   1.156  0.00  0.00    +0.190 C 
ATOM      4  N   LIG    1        5.531   3.907   1.225  0.00  0.00    -0.530 NA
ATOM      5  C   LIG    1        4.819   4.467   2.383  0.00  0.00    +0.180 C 
ATOM      6  C   LIG    1        5.566   4.096   3.666  0.00  0.00    +0.200 C 
ENDROOT
BRANCH   1   7
ATOM      7  C   LIG    1        7.668   4.340   4.844  0.00  0.00    +0.200 C 
BRANCH   7  10
ATOM      8  N   LIG    1        7.554   5.037   7.215  0.00  0.00    -0.730 N 
ATOM      9  H   LIG    1        8.316   4.463   7.388  0.00  0.00    +0.400 HD
ATOM     10  C   LIG    1        7.048   5.129   5.969  0.00  0.00    +0.510 C 
ATOM     11  O   LIG    1        6.095   5.847   5.753  0.00  0.00    -0.520 OA
BRANCH   8  12
ATOM     12  C   LIG    1        6.952   5.804   8.308  0.00  0.00    +0.230 C 
ATOM     13  C   LIG    1        5.770   5.024   8.888  0.00  0.00    +0.030 C 
BRANCH  12  15
ATOM     14  C   LIG    1        9.117   6.923   8.857  0.00  0.00    +0.020 C 
ATOM     15  C   LIG    1        7.995   6.038   9.402  0.00  0.00    +0.020 C 
ENDBRANCH  12  15
ENDBRANCH   8  12
ENDBRANCH   7  10
ENDBRANCH   1   7
BRANCH   4  16
ATOM     16  C   LIG    1        4.804   4.178  -0.022  0.00  0.00    +0.260 C 
BRANCH  16  17
ATOM     17  C   LIG    1        3.496   3.430  -0.013  0.00  0.00    +0.220 A 
ATOM     18  C   LIG    1        2.303   4.126   0.001  0.00  0.00    -0.170 A 
ATOM     19  C   LIG    1        1.101   3.409   0.008  0.00  0.00    +0.510 A 
ATOM     20  N   LIG    1        1.145   2.060   0.002  0.00  0.00    -0.430 N 
ATOM     21  C   LIG    1       -0.016   1.348   0.009  0.00  0.00    +0.270 A 
ATOM     22  C   LIG    1        0.002  -0.004   0.002  0.00  0.00    -0.130 A 
ATOM     23  C   LIG    1        1.224  -0.692  -0.013  0.00  0.00    +0.120 A 
ATOM     24  C   LIG    1        2.391   0.011  -0.020  0.00  0.00    +0.040 A 
ATOM     25  C   LIG    1       -1.294  -0.773   0.010  0.00  0.00    +0.120 C 
ATOM     26  C   LIG    1        2.351   1.418  -0.013  0.00  0.00    +0.390 A 
ATOM     27  O   LIG    1        0.030   3.995   0.021  0.00  0.00    -0.530 OA
ATOM     28  N   LIG    1        3.491   2.107  -0.020  0.00  0.00    -0.520 NA
ENDBRANCH  16  17
ENDBRANCH   4  16
TORSDOF 6
