REMARK  Name = ZINCrg00000zxWBo.0
REMARK                            x       y       z     vdW  Elec       q    Type
REMARK                         _______ _______ _______ _____ _____    ______ ____
ROOT
ATOM      1  N   LIG    1       -2.999   0.875   1.400  0.00  0.00    -0.530 NA
ATOM      2  C   LIG    1       -2.099   0.017   2.182  0.00  0.00    +0.170 C 
ATOM      3  C   LIG    1       -2.529   0.036   3.652  0.00  0.00    +0.280 C 
ATOM      4  N   LIG    1       -3.953  -0.324   3.727  0.00  0.00    -0.610 N 
ATOM      5  C   LIG    1       -4.901   0.401   2.868  0.00  0.00    +0.300 C 
ATOM      6  C   LIG    1       -4.378  -1.294   4.561  0.00  0.00    +0.520 C 
ATOM      7  O   LIG    1       -5.556  -1.579   4.610  0.00  0.00    -0.510 OA
ATOM      8  C   LIG    1       -4.377   0.367   1.428  0.00  0.00    +0.180 C 
ENDROOT
BRANCH   1   9
ATOM      9  C   LIG    1       -2.520   1.020   0.019  0.00  0.00    +0.270 C 
BRANCH   9  12
ATOM     10  C   LIG    1        1.176   1.805   0.001  0.00  0.00    +0.410 A 
ATOM     11  C   LIG    1       -0.013   1.076   0.008  0.00  0.00    -0.150 A 
ATOM     12  C   LIG    1       -1.210   1.766   0.017  0.00  0.00    +0.250 A 
ATOM     13  N   LIG    1       -1.194   3.091   0.030  0.00  0.00    -0.570 NA
ATOM     14  C   LIG    1       -0.049   3.757   0.023  0.00  0.00    +0.600 A 
ATOM     15  N   LIG    1        1.119   3.131   0.008  0.00  0.00    -0.630 NA
BRANCH  14  16
ATOM     16  N   LIG    1       -0.073   5.140   0.030  0.00  0.00    -0.820 N 
ATOM     17  H   LIG    1       -0.921   5.611   0.041  0.00  0.00    +0.420 HD
ATOM     18  H   LIG    1        0.759   5.640   0.025  0.00  0.00    +0.410 HD
ENDBRANCH  14  16
BRANCH  10  20
ATOM     19  C   LIG    1        3.543   1.988  -0.021  0.00  0.00    +0.260 C 
ATOM     20  O   LIG    1        2.372   1.168  -0.014  0.00  0.00    -0.300 OA
ENDBRANCH  10  20
ENDBRANCH   9  12
ENDBRANCH   1   9
BRANCH   6  21
ATOM     21  C   LIG    1       -3.389  -2.025   5.433  0.00  0.00    +0.220 C 
BRANCH  21  22
ATOM     22  O   LIG    1       -4.077  -2.998   6.220  0.00  0.00    -0.290 OA
BRANCH  22  23
ATOM     23  C   LIG    1       -3.326  -3.750   7.067  0.00  0.00    +0.120 A 
ATOM     24  C   LIG    1       -1.954  -3.558   7.135  0.00  0.00    -0.080 A 
ATOM     25  C   LIG    1       -1.193  -4.320   8.001  0.00  0.00    +0.040 A 
ATOM     26  C   LIG    1       -1.796  -5.280   8.791  0.00  0.00    -0.020 A 
ATOM     27  C   LIG    1       -3.163  -5.477   8.722  0.00  0.00    +0.050 A 
ATOM     28  C   LIG    1       -3.929  -4.714   7.862  0.00  0.00    -0.110 A 
ATOM     29  C   LIG    1       -5.419  -4.929   7.787  0.00  0.00    +0.100 C 
ENDBRANCH  22  23
ENDBRANCH  21  22
ENDBRANCH   6  21
TORSDOF 7
