REMARK  Name = ZINCrH000004pqXe.0
REMARK                            x       y       z     vdW  Elec       q    Type
REMARK                         _______ _______ _______ _____ _____    ______ ____
ROOT
ATOM      1  N   LIG    1        2.479   5.203   0.276  0.00  0.00    -0.730 N 
ATOM      2  H   LIG    1        1.600   5.608   0.335  0.00  0.00    +0.400 HD
ATOM      3  C   LIG    1        2.622   3.873   0.448  0.00  0.00    +0.570 C 
ATOM      4  O   LIG    1        3.724   3.365   0.374  0.00  0.00    -0.530 OA
ENDROOT
BRANCH   3   5
ATOM      5  C   LIG    1        1.439   3.034   0.726  0.00  0.00    -0.180 A 
ATOM      6  C   LIG    1        1.585   1.656   0.905  0.00  0.00    +0.140 A 
ATOM      7  C   LIG    1        0.479   0.877   1.164  0.00  0.00    -0.020 A 
ATOM      8  C   LIG    1       -0.780   1.459   1.243  0.00  0.00    +0.160 A 
ATOM      9  C   LIG    1       -0.928   2.830   1.071  0.00  0.00    -0.080 A 
ATOM     10  C   LIG    1        0.172   3.616   0.812  0.00  0.00    +0.090 A 
BRANCH   8  11
ATOM     11  O   LIG    1       -1.868   0.687   1.493  0.00  0.00    -0.300 OA
BRANCH  11  12
ATOM     12  C   LIG    1       -3.132   1.350   1.560  0.00  0.00    +0.330 C 
BRANCH  12  13
ATOM     13  C   LIG    1       -4.215   0.340   1.844  0.00  0.00    +0.190 A 
ATOM     14  N   LIG    1       -4.898  -0.315   0.945  0.00  0.00    -0.460 NA
ATOM     15  C   LIG    1       -5.771  -1.127   1.559  0.00  0.00    +0.150 A 
ATOM     16  C   LIG    1       -5.629  -0.964   2.888  0.00  0.00    +0.140 A 
ATOM     17  N   LIG    1       -4.641  -0.034   3.069  0.00  0.00    -0.450 N 
ATOM     18  C   LIG    1       -4.141   0.464   4.353  0.00  0.00    +0.330 C 
ENDBRANCH  12  13
ENDBRANCH  11  12
ENDBRANCH   8  11
ENDBRANCH   3   5
BRANCH   1  20
ATOM     19  C   LIG    1        3.913   6.066  -1.507  0.00  0.00    +0.040 C 
ATOM     20  C   LIG    1        3.653   6.035   0.001  0.00  0.00    +0.300 C 
BRANCH  20  21
ATOM     21  C   LIG    1        3.402   7.436   0.496  0.00  0.00    -0.140 A 
ATOM     22  C   LIG    1        2.111   7.921   0.574  0.00  0.00    +0.080 A 
ATOM     23  C   LIG    1        1.879   9.204   1.033  0.00  0.00    -0.010 A 
ATOM     24  C   LIG    1        2.942  10.009   1.406  0.00  0.00    +0.130 A 
ATOM     25  C   LIG    1        4.237   9.526   1.323  0.00  0.00    -0.040 A 
ATOM     26  F   LIG    1        2.716  11.264   1.850  0.00  0.00    -0.130 F 
ATOM     27  C   LIG    1        4.468   8.239   0.868  0.00  0.00    +0.140 A 
ATOM     28  F   LIG    1        5.731   7.767   0.788  0.00  0.00    -0.120 F 
ENDBRANCH  20  21
ENDBRANCH   1  20
TORSDOF 6
