REMARK  Name = ZINCrg00000B4Di3.0
REMARK                            x       y       z     vdW  Elec       q    Type
REMARK                         _______ _______ _______ _____ _____    ______ ____
ROOT
ATOM      1  C   LIG    1        2.729  -1.725  -0.167  0.00  0.00    +0.360 C 
ATOM      2  N   LIG    1        2.015  -0.446  -0.155  0.00  0.00    -0.360 N 
ATOM      3  N   LIG    1        0.626  -0.275  -0.248  0.00  0.00    -0.290 NA
ATOM      4  C   LIG    1        0.366   1.010  -0.206  0.00  0.00    +0.250 A 
ATOM      5  C   LIG    1        1.575   1.690  -0.086  0.00  0.00    -0.260 A 
ATOM      6  C   LIG    1        1.799   3.181  -0.006  0.00  0.00    +0.350 C 
ATOM      7  N   LIG    1        3.205   3.391   0.381  0.00  0.00    -0.980 NA
ATOM      8  C   LIG    1        4.241   2.586  -0.282  0.00  0.00    +0.320 C 
ATOM      9  C   LIG    1        4.039   1.109   0.079  0.00  0.00    +0.120 C 
ATOM     10  C   LIG    1        2.575   0.772  -0.054  0.00  0.00    +0.120 A 
ENDROOT
BRANCH   6  11
ATOM     11  C   LIG    1        1.536   3.813  -1.348  0.00  0.00    +0.520 C 
ATOM     12  N   LIG    1        0.294   4.231  -1.665  0.00  0.00    -0.610 N 
ATOM     13  C   LIG    1       -0.020   4.752  -3.006  0.00  0.00    +0.290 C 
ATOM     14  C   LIG    1       -1.022   3.800  -3.657  0.00  0.00    +0.080 C 
ATOM     15  C   LIG    1       -2.144   3.471  -2.708  0.00  0.00    -0.040 A 
ATOM     16  C   LIG    1       -3.323   2.978  -3.252  0.00  0.00    -0.010 A 
ATOM     17  C   LIG    1       -4.389   2.649  -2.437  0.00  0.00    +0.110 A 
ATOM     18  C   LIG    1       -4.282   2.810  -1.066  0.00  0.00    -0.010 A 
ATOM     19  C   LIG    1       -3.112   3.302  -0.525  0.00  0.00    +0.060 A 
ATOM     20  F   LIG    1       -5.532   2.171  -2.976  0.00  0.00    -0.140 F 
ATOM     21  C   LIG    1       -2.043   3.638  -1.344  0.00  0.00    -0.110 A 
ATOM     22  C   LIG    1       -0.800   4.178  -0.690  0.00  0.00    +0.330 C 
ATOM     23  O   LIG    1        2.442   3.947  -2.143  0.00  0.00    -0.520 OA
ENDBRANCH   6  11
BRANCH   7  24
ATOM     24  S   LIG    1        3.610   4.507   1.536  0.00  0.00    +2.610 S 
ATOM     25  O   LIG    1        4.835   4.028   2.073  0.00  0.00    -0.940 OA
ATOM     26  O   LIG    1        2.446   4.612   2.345  0.00  0.00    -0.950 OA
ATOM     27  C   LIG    1        3.879   6.042   0.608  0.00  0.00    -0.280 C 
ENDBRANCH   7  24
TORSDOF 2
