REMARK  Name = ZINCqH0000003isG.0
REMARK                            x       y       z     vdW  Elec       q    Type
REMARK                         _______ _______ _______ _____ _____    ______ ____
ROOT
ATOM      1  N   LIG    1       -4.553  -0.483   1.333  0.00  0.00    -0.720 N 
ATOM      2  H   LIG    1       -3.716  -0.924   1.117  0.00  0.00    +0.410 HD
ATOM      3  C   LIG    1       -5.587  -1.200   1.816  0.00  0.00    +0.600 C 
ATOM      4  O   LIG    1       -6.637  -0.648   2.087  0.00  0.00    -0.510 OA
ENDROOT
BRANCH   3   5
ATOM      5  C   LIG    1       -5.447  -2.650   2.015  0.00  0.00    -0.030 A 
ATOM      6  C   LIG    1       -6.415  -3.469   2.499  0.00  0.00    +0.060 A 
ATOM      7  C   LIG    1       -5.836  -4.812   2.522  0.00  0.00    -0.140 A 
ATOM      8  C   LIG    1       -6.308  -6.070   2.901  0.00  0.00    +0.070 A 
ATOM      9  C   LIG    1       -5.489  -7.160   2.803  0.00  0.00    -0.100 A 
ATOM     10  C   LIG    1       -4.192  -7.023   2.329  0.00  0.00    +0.060 A 
ATOM     11  C   LIG    1       -3.707  -5.790   1.949  0.00  0.00    +0.030 A 
ATOM     12  C   LIG    1       -5.997  -8.518   3.213  0.00  0.00    +0.100 C 
ATOM     13  C   LIG    1       -4.521  -4.668   2.040  0.00  0.00    +0.070 A 
ATOM     14  O   LIG    1       -4.334  -3.366   1.751  0.00  0.00    -0.180 OA
ENDBRANCH   3   5
BRANCH   1  15
ATOM     15  C   LIG    1       -4.693   0.961   1.134  0.00  0.00    +0.250 C 
ATOM     16  C   LIG    1       -5.327   1.229  -0.233  0.00  0.00    +0.030 C 
BRANCH  15  22
ATOM     17  C   LIG    1       -0.014   1.211   0.009  0.00  0.00    +0.650 C 
ATOM     18  N   LIG    1       -1.191   1.869   0.018  0.00  0.00    -0.590 N 
ATOM     19  C   LIG    1       -1.227   3.338   0.032  0.00  0.00    +0.270 C 
ATOM     20  C   LIG    1       -2.093   3.803   1.201  0.00  0.00    +0.010 C 
ATOM     21  C   LIG    1       -3.470   3.141   1.108  0.00  0.00    +0.030 C 
ATOM     22  C   LIG    1       -3.314   1.621   1.194  0.00  0.00    -0.020 C 
ATOM     23  C   LIG    1       -2.461   1.131   0.020  0.00  0.00    +0.300 C 
ATOM     24  O   LIG    1        0.002  -0.004   0.002  0.00  0.00    -0.570 OA
BRANCH  17  25
ATOM     25  O   LIG    1        1.142   1.900   0.001  0.00  0.00    -0.370 OA
BRANCH  25  27
ATOM     26  C   LIG    1        3.571   2.074  -0.021  0.00  0.00    +0.070 C 
ATOM     27  C   LIG    1        2.371   1.126  -0.015  0.00  0.00    +0.220 C 
ENDBRANCH  25  27
ENDBRANCH  17  25
ENDBRANCH  15  22
ENDBRANCH   1  15
TORSDOF 5
