REMARK  Name = ZINCrD000001YLPh.0
REMARK                            x       y       z     vdW  Elec       q    Type
REMARK                         _______ _______ _______ _____ _____    ______ ____
ROOT
ATOM      1  C   LIG    1        0.470  -2.784  -2.176  0.00  0.00    +0.560 C 
ATOM      2  N   LIG    1        0.252  -1.993  -1.107  0.00  0.00    -0.610 N 
ATOM      3  C   LIG    1       -0.212  -2.557   0.171  0.00  0.00    +0.240 C 
ATOM      4  C   LIG    1        0.701  -2.039   1.288  0.00  0.00    +0.220 C 
ATOM      5  O   LIG    1        0.774  -0.613   1.213  0.00  0.00    -0.370 OA
ATOM      6  C   LIG    1        1.349  -0.120   0.001  0.00  0.00    +0.200 C 
ATOM      7  C   LIG    1        0.469  -0.539  -1.183  0.00  0.00    +0.280 C 
ATOM      8  O   LIG    1        0.762  -2.290  -3.248  0.00  0.00    -0.510 OA
ENDROOT
BRANCH   6   9
ATOM      9  C   LIG    1        1.431   1.384   0.058  0.00  0.00    -0.080 A 
ATOM     10  C   LIG    1        0.440   2.106   0.697  0.00  0.00    +0.060 A 
ATOM     11  C   LIG    1        0.518   3.485   0.754  0.00  0.00    +0.030 A 
ATOM     12  C   LIG    1        1.581   4.143   0.163  0.00  0.00    -0.030 A 
ATOM     13  C   LIG    1        2.570   3.420  -0.481  0.00  0.00    +0.030 A 
ATOM     14 CL   LIG    1        1.675   5.875   0.228  0.00  0.00    -0.070 Cl
ATOM     15  C   LIG    1        2.494   2.041  -0.532  0.00  0.00    +0.040 A 
ENDBRANCH   6   9
BRANCH   1  20
ATOM     16  C   LIG    1       -0.706  -6.181  -1.080  0.00  0.00    +0.130 A 
ATOM     17  C   LIG    1        0.146  -7.008  -1.804  0.00  0.00    +0.070 A 
ATOM     18  C   LIG    1        1.098  -6.465  -2.643  0.00  0.00    +0.010 A 
ATOM     19  C   LIG    1        1.211  -5.090  -2.771  0.00  0.00    +0.150 A 
ATOM     20  C   LIG    1        0.356  -4.249  -2.045  0.00  0.00    -0.140 A 
ATOM     21  C   LIG    1       -0.602  -4.805  -1.194  0.00  0.00    +0.030 A 
BRANCH  16  23
ATOM     22  C   LIG    1       -1.394  -7.872   0.447  0.00  0.00    +0.550 C 
ATOM     23  N   LIG    1       -1.669  -6.740  -0.231  0.00  0.00    -0.670 N 
ATOM     24  H   LIG    1       -2.534  -6.313  -0.131  0.00  0.00    +0.410 HD
ATOM     25  O   LIG    1       -0.343  -8.454   0.257  0.00  0.00    -0.520 OA
BRANCH  22  27
ATOM     26  C   LIG    1       -2.093  -9.521   2.084  0.00  0.00    +0.160 C 
ATOM     27  C   LIG    1       -2.365  -8.403   1.415  0.00  0.00    -0.090 C 
ENDBRANCH  22  27
ENDBRANCH  16  23
BRANCH  19  28
ATOM     28  O   LIG    1        2.148  -4.558  -3.596  0.00  0.00    -0.480 OA
ATOM     29  H   LIG    1        2.999  -4.390  -3.168  0.00  0.00    +0.390 HD
ENDBRANCH  19  28
ENDBRANCH   1  20
TORSDOF 5
