REMARK  Name = ZINCvU0000000Iom.0
REMARK                            x       y       z     vdW  Elec       q    Type
REMARK                         _______ _______ _______ _____ _____    ______ ____
ROOT
ATOM      1  N   LIG    1        4.530   0.701   3.834  0.00  0.00    -0.470 N 
ATOM      2  C   LIG    1        3.188   1.069   3.367  0.00  0.00    +0.220 C 
ATOM      3  C   LIG    1        3.305   2.111   2.249  0.00  0.00    +0.090 C 
ATOM      4  C   LIG    1        4.202   1.545   1.144  0.00  0.00    -0.100 C 
ATOM      5  C   LIG    1        4.153   2.214  -0.228  0.00  0.00    +0.110 C 
ATOM      6  C   LIG    1        5.552   1.005   1.628  0.00  0.00    +0.100 C 
ATOM      7  C   LIG    1        3.528   0.832  -0.026  0.00  0.00    +0.060 C 
ATOM      8  C   LIG    1        5.302   0.028   2.782  0.00  0.00    +0.200 C 
ENDROOT
BRANCH   1  12
ATOM      9  C   LIG    1        7.903  -0.939   6.049  0.00  0.00    -0.160 A 
ATOM     10  C   LIG    1        7.038  -0.355   5.242  0.00  0.00    +0.050 A 
ATOM     11  C   LIG    1        5.645  -0.554   5.595  0.00  0.00    -0.190 A 
ATOM     12  C   LIG    1        4.462  -0.079   4.974  0.00  0.00    +0.410 A 
ATOM     13  N   LIG    1        3.289  -0.399   5.502  0.00  0.00    -0.560 NA
ATOM     14  C   LIG    1        3.208  -1.143   6.590  0.00  0.00    +0.540 A 
ATOM     15  N   LIG    1        4.274  -1.602   7.204  0.00  0.00    -0.510 NA
ATOM     16  C   LIG    1        5.503  -1.332   6.747  0.00  0.00    +0.100 A 
ATOM     17  S   LIG    1        7.090  -1.798   7.343  0.00  0.00    +0.170 S 
BRANCH   9  19
ATOM     18  C   LIG    1        9.947   0.334   6.639  0.00  0.00    +0.040 C 
ATOM     19  C   LIG    1        9.399  -0.876   5.880  0.00  0.00    +0.110 C 
ENDBRANCH   9  19
ENDBRANCH   1  12
BRANCH   7  20
ATOM     20  C   LIG    1        2.023   0.744  -0.013  0.00  0.00    +0.210 A 
ATOM     21  N   LIG    1        1.193   1.749   0.000  0.00  0.00    -0.280 NA
ATOM     22  N   LIG    1       -0.016   1.308   0.009  0.00  0.00    -0.260 NA
ATOM     23  C   LIG    1        0.002  -0.004   0.002  0.00  0.00    +0.200 A 
ATOM     24  O   LIG    1        1.295  -0.386  -0.012  0.00  0.00    -0.220 OA
BRANCH  23  25
ATOM     25  C   LIG    1       -1.176  -0.897   0.009  0.00  0.00    +0.000 A 
ATOM     26  C   LIG    1       -2.463  -0.358   0.024  0.00  0.00    +0.070 A 
ATOM     27  C   LIG    1       -3.560  -1.196   0.030  0.00  0.00    +0.060 A 
ATOM     28  C   LIG    1       -3.386  -2.568   0.020  0.00  0.00    +0.020 A 
ATOM     29  C   LIG    1       -2.111  -3.111   0.004  0.00  0.00    +0.100 A 
ATOM     30  F   LIG    1       -1.949  -4.452  -0.006  0.00  0.00    -0.130 F 
ATOM     31  C   LIG    1       -1.006  -2.282  -0.007  0.00  0.00    +0.020 A 
ENDBRANCH  23  25
ENDBRANCH   7  20
TORSDOF 4
