REMARK  Name = ZINCqH0000008wtC.0
REMARK                            x       y       z     vdW  Elec       q    Type
REMARK                         _______ _______ _______ _____ _____    ______ ____
ROOT
ATOM      1  C   LIG    1        7.663  -0.047   0.157  0.00  0.00    -0.090 A 
ATOM      2  C   LIG    1        7.153  -1.108   0.883  0.00  0.00    +0.060 A 
ATOM      3  C   LIG    1        5.788  -1.305   0.955  0.00  0.00    +0.020 A 
ATOM      4  C   LIG    1        4.927  -0.436   0.298  0.00  0.00    +0.130 A 
ATOM      5  C   LIG    1        5.442   0.625  -0.435  0.00  0.00    +0.010 A 
ATOM      6  C   LIG    1        6.808   0.820  -0.498  0.00  0.00    +0.040 A 
ENDROOT
BRANCH   4   7
ATOM      7  N   LIG    1        3.542  -0.633   0.369  0.00  0.00    -0.450 N 
ATOM      8  C   LIG    1        2.878  -1.799   0.131  0.00  0.00    +0.490 A 
ATOM      9  N   LIG    1        1.598  -1.625   0.287  0.00  0.00    -0.490 NA
ATOM     10  C   LIG    1        1.351  -0.335   0.636  0.00  0.00    +0.050 A 
ATOM     11  C   LIG    1        0.184   0.379   0.919  0.00  0.00    +0.070 A 
ATOM     12  C   LIG    1        0.262   1.712   1.250  0.00  0.00    +0.000 A 
ATOM     13  C   LIG    1        1.491   2.354   1.306  0.00  0.00    +0.030 A 
ATOM     14  C   LIG    1        2.653   1.664   1.030  0.00  0.00    +0.010 A 
ATOM     15  C   LIG    1        2.593   0.319   0.694  0.00  0.00    +0.050 A 
ENDBRANCH   4   7
BRANCH   1  17
ATOM     16  C   LIG    1        9.530   1.423   0.865  0.00  0.00    +0.050 C 
ATOM     17  C   LIG    1        9.153   0.164   0.081  0.00  0.00    +0.290 C 
BRANCH  17  18
ATOM     18  N   LIG    1        9.552   0.323  -1.320  0.00  0.00    -0.610 N 
ATOM     19  C   LIG    1       10.337  -0.602  -1.907  0.00  0.00    +0.520 C 
ATOM     20  O   LIG    1       10.635  -1.613  -1.306  0.00  0.00    -0.510 OA
ATOM     21  C   LIG    1        9.098   1.489  -2.083  0.00  0.00    +0.270 C 
BRANCH  19  22
ATOM     22  C   LIG    1       10.843  -0.381  -3.308  0.00  0.00    +0.160 C 
ATOM     23  C   LIG    1        9.672  -0.419  -4.316  0.00  0.00    +0.030 C 
ATOM     24  C   LIG    1       10.266  -1.124  -5.556  0.00  0.00    +0.010 C 
ATOM     25  C   LIG    1       11.725  -1.429  -5.151  0.00  0.00    +0.200 C 
ATOM     26  O   LIG    1       11.708  -1.467  -3.708  0.00  0.00    -0.340 OA
ENDBRANCH  19  22
ENDBRANCH  17  18
ENDBRANCH   1  17
TORSDOF 4
