REMARK  Name = ZINCpk00000FbJhh.0
REMARK                            x       y       z     vdW  Elec       q    Type
REMARK                         _______ _______ _______ _____ _____    ______ ____
ROOT
ATOM      1  C   LIG    1       -1.215   2.268   0.020  0.00  0.00    +0.610 C 
ATOM      2  N   LIG    1       -1.769   2.666  -1.142  0.00  0.00    -0.610 N 
ATOM      3  C   LIG    1       -1.194   2.256  -2.432  0.00  0.00    +0.290 C 
ATOM      4  C   LIG    1       -2.312   1.666  -3.298  0.00  0.00    +0.190 C 
ATOM      5  N   LIG    1       -3.417   2.630  -3.389  0.00  0.00    -0.530 NA
ATOM      6  C   LIG    1       -4.013   2.883  -2.070  0.00  0.00    +0.270 C 
ATOM      7  C   LIG    1       -4.434   2.176  -4.347  0.00  0.00    +0.200 C 
ATOM      8  C   LIG    1       -2.968   3.518  -1.154  0.00  0.00    +0.320 C 
ATOM      9  O   LIG    1       -1.704   2.616   1.078  0.00  0.00    -0.530 OA
ENDROOT
BRANCH   1  17
ATOM     10  C   LIG    1       -1.205  -0.906   0.009  0.00  0.00    +0.160 C 
ATOM     11  C   LIG    1        0.002  -0.004   0.002  0.00  0.00    +0.110 A 
ATOM     12  N   LIG    1        1.248  -0.391  -0.012  0.00  0.00    -0.290 NA
ATOM     13  N   LIG    1        2.073   0.739  -0.014  0.00  0.00    -0.360 N 
ATOM     14  C   LIG    1        1.296   1.834  -0.001  0.00  0.00    +0.130 A 
ATOM     15  C   LIG    1        1.770   3.265   0.002  0.00  0.00    +0.160 C 
ATOM     16  C   LIG    1        3.538   0.729  -0.028  0.00  0.00    +0.360 C 
ATOM     17  C   LIG    1       -0.017   1.409   0.010  0.00  0.00    -0.290 A 
ENDBRANCH   1  17
BRANCH   6  18
ATOM     18  C   LIG    1       -5.187   3.816  -2.220  0.00  0.00    +0.190 A 
ATOM     19  N   LIG    1       -6.363   3.688  -1.654  0.00  0.00    -0.470 NA
ATOM     20  C   LIG    1       -7.083   4.744  -2.072  0.00  0.00    +0.200 A 
ATOM     21  N   LIG    1       -6.322   5.448  -2.856  0.00  0.00    -0.380 NA
ATOM     22  O   LIG    1       -5.227   4.934  -2.950  0.00  0.00    +0.100 OA
BRANCH  20  23
ATOM     23  C   LIG    1       -8.509   5.055  -1.699  0.00  0.00    +0.060 C 
ATOM     24  C   LIG    1       -9.202   6.197  -2.446  0.00  0.00    +0.050 C 
ATOM     25  C   LIG    1       -8.780   6.382  -0.987  0.00  0.00    +0.060 C 
ENDBRANCH  20  23
ENDBRANCH   6  18
TORSDOF 3
