REMARK  Name = ZINCrD0000073HqM.0
REMARK                            x       y       z     vdW  Elec       q    Type
REMARK                         _______ _______ _______ _____ _____    ______ ____
ROOT
ATOM      1  C   LIG    1       -2.526  -2.790   0.012  0.00  0.00    +0.420 C 
ENDROOT
BRANCH   1   5
ATOM      2  C   LIG    1       -1.998  -6.303   0.560  0.00  0.00    +0.220 A 
ATOM      3  N   LIG    1       -2.023  -6.213  -0.744  0.00  0.00    -0.340 NA
ATOM      4  O   LIG    1       -2.198  -5.060  -1.079  0.00  0.00    +0.100 OA
ATOM      5  C   LIG    1       -2.305  -4.281   0.002  0.00  0.00    +0.170 A 
ATOM      6  N   LIG    1       -2.175  -5.055   1.050  0.00  0.00    -0.440 NA
BRANCH   2  12
ATOM      7  C   LIG    1       -1.627  -8.769   0.708  0.00  0.00    +0.160 A 
ATOM      8  C   LIG    1       -1.448  -9.921   1.457  0.00  0.00    -0.070 A 
ATOM      9  C   LIG    1       -1.444  -9.855   2.837  0.00  0.00    +0.080 A 
ATOM     10  C   LIG    1       -1.619  -8.642   3.479  0.00  0.00    -0.020 A 
ATOM     11  C   LIG    1       -1.794  -7.486   2.745  0.00  0.00    +0.100 A 
ATOM     12  C   LIG    1       -1.805  -7.541   1.354  0.00  0.00    -0.070 A 
BRANCH   7  14
ATOM     13  C   LIG    1       -1.444 -10.120  -1.239  0.00  0.00    +0.240 C 
ATOM     14  O   LIG    1       -1.631  -8.832  -0.649  0.00  0.00    -0.300 OA
ENDBRANCH   7  14
ENDBRANCH   2  12
ENDBRANCH   1   5
BRANCH   1  15
ATOM     15  O   LIG    1       -1.243  -2.110   0.003  0.00  0.00    -0.340 OA
BRANCH  15  16
ATOM     16  C   LIG    1       -1.265  -0.763   0.011  0.00  0.00    +0.510 C 
ATOM     17  O   LIG    1       -2.327  -0.173   0.024  0.00  0.00    -0.480 OA
BRANCH  16  18
ATOM     18  C   LIG    1        0.002  -0.004   0.002  0.00  0.00    -0.080 A 
ATOM     19  C   LIG    1        1.224  -0.679  -0.013  0.00  0.00    +0.110 A 
ATOM     20  C   LIG    1        2.404   0.036  -0.021  0.00  0.00    +0.060 A 
ATOM     21  C   LIG    1        2.378   1.419  -0.013  0.00  0.00    +0.090 A 
ATOM     22  C   LIG    1        1.170   2.095   0.002  0.00  0.00    -0.040 A 
ATOM     23  C   LIG    1        1.152   3.602   0.010  0.00  0.00    +0.120 C 
ATOM     24  C   LIG    1       -0.017   1.392   0.010  0.00  0.00    +0.030 A 
BRANCH  24  25
ATOM     25  N   LIG    1       -1.308   2.116   0.020  0.00  0.00    +0.020 N 
ATOM     26  O   LIG    1       -1.844   2.420  -1.031  0.00  0.00    -0.130 OA
ATOM     27  O   LIG    1       -1.834   2.409   1.079  0.00  0.00    -0.120 OA
ENDBRANCH  24  25
ENDBRANCH  16  18
ENDBRANCH  15  16
ENDBRANCH   1  15
TORSDOF 7
