REMARK  Name = ZINCrH000004kYPm.0
REMARK                            x       y       z     vdW  Elec       q    Type
REMARK                         _______ _______ _______ _____ _____    ______ ____
ROOT
ATOM      1  C   LIG    1       -1.589  -1.250  -1.439  0.00  0.00    +0.130 C 
ENDROOT
BRANCH   1   2
ATOM      2  C   LIG    1       -2.789  -2.161  -1.428  0.00  0.00    +0.470 C 
ATOM      3  O   LIG    1       -3.234  -2.561  -0.379  0.00  0.00    -0.480 OA
BRANCH   2   4
ATOM      4  O   LIG    1       -3.364  -2.528  -2.585  0.00  0.00    -0.290 OA
BRANCH   4   8
ATOM      5  C   LIG    1       -6.442  -5.270  -2.362  0.00  0.00    -0.120 A 
ATOM      6  C   LIG    1       -6.669  -3.933  -2.025  0.00  0.00    +0.110 A 
ATOM      7  C   LIG    1       -5.639  -3.022  -2.100  0.00  0.00    +0.010 A 
ATOM      8  C   LIG    1       -4.376  -3.430  -2.512  0.00  0.00    +0.120 A 
ATOM      9  C   LIG    1       -4.147  -4.757  -2.853  0.00  0.00    +0.010 A 
ATOM     10  C   LIG    1       -5.170  -5.676  -2.775  0.00  0.00    +0.100 A 
BRANCH   5  11
ATOM     11  C   LIG    1       -7.542  -6.250  -2.283  0.00  0.00    +0.510 C 
ATOM     12  O   LIG    1       -8.647  -5.895  -1.924  0.00  0.00    -0.500 OA
BRANCH  11  14
ATOM     13  C   LIG    1       -8.449  -8.447  -2.508  0.00  0.00    +0.290 C 
ATOM     14  O   LIG    1       -7.321  -7.539  -2.609  0.00  0.00    -0.350 OA
ENDBRANCH  11  14
ENDBRANCH   5  11
ENDBRANCH   4   8
ENDBRANCH   2   4
ENDBRANCH   1   2
BRANCH   1  15
ATOM     15  C   LIG    1       -1.133  -0.990  -0.002  0.00  0.00    +0.230 C 
BRANCH  15  16
ATOM     16  C   LIG    1        0.068  -0.079  -0.013  0.00  0.00    +0.190 A 
ATOM     17  N   LIG    1        0.051   1.230   0.032  0.00  0.00    -0.470 NA
ATOM     18  C   LIG    1        1.349   1.611  -0.000  0.00  0.00    +0.210 A 
ATOM     19  N   LIG    1        2.069   0.521  -0.061  0.00  0.00    -0.370 NA
ATOM     20  O   LIG    1        1.349  -0.455  -0.069  0.00  0.00    +0.090 OA
BRANCH  18  21
ATOM     21  C   LIG    1        1.859   3.004   0.028  0.00  0.00    -0.020 A 
ATOM     22  C   LIG    1        0.968   4.074   0.088  0.00  0.00    +0.090 A 
ATOM     23  C   LIG    1        1.447   5.367   0.119  0.00  0.00    +0.030 A 
ATOM     24  C   LIG    1        2.811   5.604   0.079  0.00  0.00    -0.020 A 
ATOM     25  C   LIG    1        3.700   4.545   0.015  0.00  0.00    +0.030 A 
ATOM     26 CL   LIG    1        3.408   7.234   0.111  0.00  0.00    -0.060 Cl
ATOM     27  C   LIG    1        3.230   3.247  -0.011  0.00  0.00    +0.070 A 
ENDBRANCH  18  21
ENDBRANCH  15  16
ENDBRANCH   1  15
TORSDOF 8
