REMARK  Name = ZINCrD00000F5LBC.0
REMARK                            x       y       z     vdW  Elec       q    Type
REMARK                         _______ _______ _______ _____ _____    ______ ____
ROOT
ATOM      1  N   LIG    1        3.540  -0.846  -0.048  0.00  0.00    -0.590 N 
ENDROOT
BRANCH   1   5
ATOM      2  C   LIG    1        0.953   3.274   0.556  0.00  0.00    +0.110 C 
ATOM      3  C   LIG    1        1.061   1.772   0.509  0.00  0.00    +0.050 A 
ATOM      4  C   LIG    1        2.260   1.164   0.251  0.00  0.00    -0.100 A 
ATOM      5  C   LIG    1        2.328  -0.227   0.214  0.00  0.00    +0.440 A 
ATOM      6  N   LIG    1        1.249  -0.968   0.426  0.00  0.00    -0.540 NA
ATOM      7  C   LIG    1        0.076  -0.424   0.678  0.00  0.00    +0.380 A 
ATOM      8  C   LIG    1       -0.065   0.964   0.730  0.00  0.00    -0.150 A 
BRANCH   8   9
ATOM      9  C   LIG    1       -1.342   1.554   0.998  0.00  0.00    +0.260 C 
ATOM     10  N   LIG    1       -2.354   2.023   1.211  0.00  0.00    -0.420 NA
ENDBRANCH   8   9
ENDBRANCH   1   5
BRANCH   1  11
ATOM     11  C   LIG    1        3.584  -2.283  -0.328  0.00  0.00    +0.300 C 
BRANCH  11  12
ATOM     12  C   LIG    1        3.433  -2.514  -1.832  0.00  0.00    -0.060 C 
ATOM     13  C   LIG    1        2.021  -2.092  -2.306  0.00  0.00    +0.020 C 
ATOM     14  C   LIG    1        1.666  -3.217  -3.311  0.00  0.00    +0.200 C 
ATOM     15  O   LIG    1        2.235  -4.400  -2.709  0.00  0.00    -0.370 OA
ATOM     16  C   LIG    1        3.506  -4.019  -2.157  0.00  0.00    +0.150 C 
ATOM     17  C   LIG    1        3.778  -4.814  -0.878  0.00  0.00    +0.050 C 
ENDBRANCH  11  12
ENDBRANCH   1  11
BRANCH   1  18
ATOM     18  C   LIG    1        4.778  -0.062  -0.044  0.00  0.00    +0.390 C 
BRANCH  18  19
ATOM     19  C   LIG    1        5.293   0.058   1.367  0.00  0.00    -0.030 A 
ATOM     20  C   LIG    1        5.044   1.091   2.212  0.00  0.00    +0.020 A 
ATOM     21  C   LIG    1        5.696   0.828   3.419  0.00  0.00    -0.010 A 
ATOM     22  C   LIG    1        6.340  -0.387   3.274  0.00  0.00    -0.020 A 
ATOM     23  C   LIG    1        7.144  -1.164   4.130  0.00  0.00    +0.370 A 
ATOM     24  N   LIG    1        7.630  -2.306   3.706  0.00  0.00    -0.490 NA
ATOM     25  C   LIG    1        7.378  -2.754   2.470  0.00  0.00    +0.210 A 
ATOM     26  C   LIG    1        6.617  -2.054   1.609  0.00  0.00    +0.150 A 
ATOM     27  N   LIG    1        6.075  -0.851   1.999  0.00  0.00    -0.320 N 
ENDBRANCH  18  19
ENDBRANCH   1  18
TORSDOF 6
