REMARK  Name = ZINCyk00000009Iq.1
REMARK                            x       y       z     vdW  Elec       q    Type
REMARK                         _______ _______ _______ _____ _____    ______ ____
ROOT
ATOM      1  N   LIG    1       -0.016   1.341   0.009  0.00  0.00    -0.570 N 
ATOM      2  C   LIG    1        1.118   1.679  -0.630  0.00  0.00    +0.570 C 
ATOM      3  C   LIG    1        2.115   0.610  -0.414  0.00  0.00    -0.090 A 
ATOM      4  C   LIG    1        3.424   0.412  -0.818  0.00  0.00    +0.080 A 
ATOM      5  C   LIG    1        4.102  -0.736  -0.430  0.00  0.00    +0.100 A 
ATOM      6  C   LIG    1        3.482  -1.685   0.355  0.00  0.00    -0.030 A 
ATOM      7  C   LIG    1        2.164  -1.504   0.772  0.00  0.00    +0.200 A 
ATOM      8  C   LIG    1        1.474  -0.357   0.390  0.00  0.00    -0.180 A 
ATOM      9  O   LIG    1        1.293   2.692  -1.277  0.00  0.00    -0.450 OA
ATOM     10  C   LIG    1        0.114   0.156   0.633  0.00  0.00    +0.590 C 
ATOM     11  O   LIG    1       -0.746  -0.398   1.288  0.00  0.00    -0.450 OA
ENDROOT
BRANCH   1  16
ATOM     12  O   LIG    1       -0.448   4.871  -2.895  0.00  0.00    -0.490 OA
ATOM     13  C   LIG    1       -0.680   4.058  -2.026  0.00  0.00    +0.540 C 
ATOM     14  C   LIG    1       -1.027   2.644  -2.411  0.00  0.00    +0.080 C 
ATOM     15  C   LIG    1       -1.938   2.040  -1.337  0.00  0.00    +0.070 C 
ATOM     16  C   LIG    1       -1.235   2.153   0.020  0.00  0.00    +0.280 C 
ATOM     17  C   LIG    1       -0.878   3.594   0.272  0.00  0.00    +0.520 C 
ATOM     18  O   LIG    1       -0.819   4.001   1.413  0.00  0.00    -0.480 OA
ATOM     19  N   LIG    1       -0.623   4.436  -0.740  0.00  0.00    -0.660 N 
ATOM     20  H   LIG    1       -0.388   5.355  -0.534  0.00  0.00    +0.420 HD
ENDBRANCH   1  16
BRANCH   7  21
ATOM     21  O   LIG    1        1.558  -2.439   1.544  0.00  0.00    -0.290 OA
BRANCH  21  22
ATOM     22  C   LIG    1        2.329  -3.590   1.895  0.00  0.00    +0.260 C 
BRANCH  22  23
ATOM     23  C   LIG    1        1.496  -4.511   2.749  0.00  0.00    -0.060 A 
ATOM     24  C   LIG    1        1.507  -4.377   4.125  0.00  0.00    +0.050 A 
ATOM     25  C   LIG    1        0.740  -5.220   4.907  0.00  0.00    +0.050 A 
ATOM     26  C   LIG    1       -0.030  -6.203   4.315  0.00  0.00    -0.150 A 
ATOM     27  C   LIG    1       -0.037  -6.340   2.939  0.00  0.00    +0.040 A 
ATOM     28  C   LIG    1        0.727  -5.495   2.156  0.00  0.00    +0.050 A 
BRANCH  26  29
ATOM     29  C   LIG    1       -0.863  -7.125   5.168  0.00  0.00    +0.320 C 
BRANCH  29  30
ATOM     30  N   LIG    1       -0.070  -8.308   5.528  0.00  0.00    -0.380 N 
ATOM     31  C   LIG    1        0.241  -9.077   4.316  0.00  0.00    +0.230 C 
ATOM     32  C   LIG    1        1.067 -10.309   4.694  0.00  0.00    +0.260 C 
ATOM     33  O   LIG    1        0.337 -11.094   5.641  0.00  0.00    -0.360 OA
ATOM     34  C   LIG    1       -0.011 -10.380   6.831  0.00  0.00    +0.260 C 
ATOM     35  C   LIG    1       -0.839  -9.148   6.457  0.00  0.00    +0.240 C 
ATOM     36  H   LIG    1        0.788  -8.015   5.971  0.00  0.00    +0.420 HD
ENDBRANCH  29  30
ENDBRANCH  26  29
ENDBRANCH  22  23
ENDBRANCH  21  22
ENDBRANCH   7  21
TORSDOF 6
