REMARK  Name = ZINCpk00000y6yBL.0
REMARK                            x       y       z     vdW  Elec       q    Type
REMARK                         _______ _______ _______ _____ _____    ______ ____
ROOT
ATOM      1  C   LIG    1        1.954   2.276   1.177  0.00  0.00    +0.510 C 
ATOM      2  N   LIG    1        1.336   2.056   0.000  0.00  0.00    -0.610 N 
ATOM      3  C   LIG    1       -0.053   1.556   0.010  0.00  0.00    +0.260 C 
ATOM      4  C   LIG    1       -0.909   2.263  -1.054  0.00  0.00    +0.050 C 
ATOM      5  C   LIG    1       -0.554   3.733  -1.098  0.00  0.00    +0.210 C 
ATOM      6  N   LIG    1        0.485   3.945  -2.104  0.00  0.00    -0.510 N 
ATOM      7  C   LIG    1        1.821   3.783  -1.670  0.00  0.00    +0.190 C 
ATOM      8  C   LIG    1        2.060   2.319  -1.227  0.00  0.00    +0.310 C 
ATOM      9  O   LIG    1        3.121   2.608   1.197  0.00  0.00    -0.510 OA
ENDROOT
BRANCH   6  10
ATOM     10  C   LIG    1        0.314   5.166  -2.747  0.00  0.00    +0.260 A 
ATOM     11  C   LIG    1        0.646   6.353  -2.096  0.00  0.00    +0.000 A 
ATOM     12  C   LIG    1        0.457   7.543  -2.780  0.00  0.00    +0.040 A 
ATOM     13  C   LIG    1       -0.051   7.481  -4.071  0.00  0.00    +0.210 A 
ATOM     14  N   LIG    1       -0.338   6.312  -4.610  0.00  0.00    -0.230 NA
ATOM     15  N   LIG    1       -0.160   5.206  -3.984  0.00  0.00    -0.220 NA
ENDBRANCH   6  10
BRANCH   1  17
ATOM     16  C   LIG    1        0.912   0.626   2.706  0.00  0.00    +0.040 C 
ATOM     17  C   LIG    1        1.197   2.110   2.469  0.00  0.00    +0.150 C 
BRANCH  17  18
ATOM     18  O   LIG    1        1.978   2.624   3.549  0.00  0.00    -0.350 OA
BRANCH  18  19
ATOM     19  C   LIG    1        1.204   3.145   4.631  0.00  0.00    +0.190 C 
BRANCH  19  20
ATOM     20  C   LIG    1        2.140   3.664   5.725  0.00  0.00    +0.160 C 
ATOM     21  C   LIG    1        1.315   4.334   6.827  0.00  0.00    +0.000 C 
ATOM     22  C   LIG    1        2.253   4.798   7.946  0.00  0.00    +0.020 C 
ATOM     23  C   LIG    1        3.045   3.594   8.464  0.00  0.00    -0.020 C 
ATOM     24  C   LIG    1        3.803   2.952   7.299  0.00  0.00    +0.210 C 
ATOM     25  O   LIG    1        2.876   2.572   6.280  0.00  0.00    -0.370 OA
ENDBRANCH  19  20
ENDBRANCH  18  19
ENDBRANCH  17  18
ENDBRANCH   1  17
TORSDOF 5
