REMARK  Name = ZINCpe00000gLK2Q.0
REMARK                            x       y       z     vdW  Elec       q    Type
REMARK                         _______ _______ _______ _____ _____    ______ ____
ROOT
ATOM      1  C   LIG    1        2.463   1.488  -0.013  0.00  0.00    +0.420 C 
ENDROOT
BRANCH   1   2
ATOM      2  C   LIG    1        3.165   2.134  -1.180  0.00  0.00    +0.190 A 
ATOM      3  C   LIG    1        3.853   3.319  -1.003  0.00  0.00    -0.160 A 
ATOM      4  C   LIG    1        4.501   3.898  -2.099  0.00  0.00    +0.520 A 
ATOM      5  N   LIG    1        4.426   3.287  -3.301  0.00  0.00    -0.450 N 
ATOM      6  C   LIG    1        5.051   3.845  -4.378  0.00  0.00    +0.330 A 
ATOM      7  C   LIG    1        4.996   3.261  -5.592  0.00  0.00    -0.050 A 
ATOM      8  C   LIG    1        4.285   2.055  -5.763  0.00  0.00    +0.300 A 
ATOM      9  C   LIG    1        3.650   1.484  -4.675  0.00  0.00    -0.100 A 
ATOM     10  C   LIG    1        3.728   2.116  -3.428  0.00  0.00    +0.430 A 
ATOM     11  O   LIG    1        5.121   4.942  -1.972  0.00  0.00    -0.530 OA
ATOM     12  N   LIG    1        3.116   1.569  -2.376  0.00  0.00    -0.560 NA
BRANCH   8  13
ATOM     13  N   LIG    1        4.224   1.449  -7.007  0.00  0.00    -0.840 N 
ATOM     14  H   LIG    1        4.671   1.855  -7.767  0.00  0.00    +0.410 HD
ATOM     15  H   LIG    1        3.733   0.620  -7.119  0.00  0.00    +0.410 HD
ENDBRANCH   8  13
ENDBRANCH   1   2
BRANCH   1  18
ATOM     16  C   LIG    1       -1.106   1.874   0.017  0.00  0.00    -0.020 A 
ATOM     17  C   LIG    1       -0.013   1.076   0.008  0.00  0.00    +0.150 A 
ATOM     18  N   LIG    1        1.058   1.903   0.002  0.00  0.00    -0.290 N 
ATOM     19  N   LIG    1        0.630   3.117   0.012  0.00  0.00    -0.080 NA
ATOM     20  N   LIG    1       -0.656   3.134   0.024  0.00  0.00    -0.240 NA
BRANCH  16  21
ATOM     21  C   LIG    1       -2.546   1.430   0.021  0.00  0.00    +0.100 C 
BRANCH  21  22
ATOM     22  C   LIG    1       -3.272   2.065   1.209  0.00  0.00    +0.220 C 
BRANCH  22  24
ATOM     23  C   LIG    1       -4.654   0.000   1.468  0.00  0.00    +0.030 C 
ATOM     24  C   LIG    1       -4.699   1.519   1.286  0.00  0.00    -0.100 C 
ATOM     25  C   LIG    1       -5.444   1.856  -0.006  0.00  0.00    +0.030 C 
ATOM     26  C   LIG    1       -5.424   2.154   2.474  0.00  0.00    +0.020 C 
ENDBRANCH  22  24
BRANCH  22  27
ATOM     27  O   LIG    1       -3.313   3.484   1.039  0.00  0.00    -0.540 OA
ATOM     28  H   LIG    1       -3.772   3.770   0.238  0.00  0.00    +0.370 HD
ENDBRANCH  22  27
ENDBRANCH  21  22
ENDBRANCH  16  21
ENDBRANCH   1  18
TORSDOF 7
