REMARK  Name = ZINCrD00000hQ52P.0
REMARK                            x       y       z     vdW  Elec       q    Type
REMARK                         _______ _______ _______ _____ _____    ______ ____
ROOT
ATOM      1  O   LIG    1        0.006   0.001  -0.080  0.00  0.00    -0.480 OA
ATOM      2  C   LIG    1       -0.013   1.208  -0.035  0.00  0.00    +0.490 C 
ENDROOT
BRANCH   2   3
ATOM      3  C   LIG    1        1.279   1.983  -0.044  0.00  0.00    +0.000 C 
ATOM      4  C   LIG    1        2.176   1.876   1.191  0.00  0.00    +0.100 C 
ATOM      5  C   LIG    1        2.582   1.184  -0.111  0.00  0.00    +0.060 C 
BRANCH   5   6
ATOM      6  C   LIG    1        3.726   1.781  -0.890  0.00  0.00    -0.030 A 
ATOM      7  C   LIG    1        4.244   3.009  -0.524  0.00  0.00    +0.020 A 
ATOM      8  C   LIG    1        5.296   3.555  -1.235  0.00  0.00    +0.070 A 
ATOM      9  C   LIG    1        5.823   2.878  -2.319  0.00  0.00    -0.180 A 
ATOM     10  C   LIG    1        5.301   1.652  -2.688  0.00  0.00    +0.070 A 
ATOM     11  C   LIG    1        4.252   1.104  -1.974  0.00  0.00    +0.030 A 
BRANCH   9  12
ATOM     12  C   LIG    1        6.966   3.475  -3.099  0.00  0.00    +0.510 C 
ATOM     13  F   LIG    1        7.751   2.450  -3.635  0.00  0.00    -0.180 F 
ATOM     14  F   LIG    1        7.747   4.265  -2.248  0.00  0.00    -0.180 F 
ATOM     15  F   LIG    1        6.460   4.267  -4.136  0.00  0.00    -0.180 F 
ENDBRANCH   9  12
ENDBRANCH   5   6
ENDBRANCH   2   3
BRANCH   2  16
ATOM     16  O   LIG    1       -1.186   1.859   0.018  0.00  0.00    -0.290 OA
BRANCH  16  17
ATOM     17  C   LIG    1       -2.314   1.108  -0.086  0.00  0.00    +0.090 A 
ATOM     18  C   LIG    1       -3.022   1.082  -1.280  0.00  0.00    +0.060 A 
ATOM     19  C   LIG    1       -4.165   0.315  -1.388  0.00  0.00    +0.040 A 
ATOM     20  C   LIG    1       -4.612  -0.422  -0.299  0.00  0.00    +0.140 A 
ATOM     21  C   LIG    1       -3.906  -0.391   0.896  0.00  0.00    +0.060 A 
ATOM     22  C   LIG    1       -2.761   0.372   1.002  0.00  0.00    +0.060 A 
BRANCH  20  23
ATOM     23  N   LIG    1       -5.777  -1.197  -0.406  0.00  0.00    -0.330 N 
ATOM     24  C   LIG    1       -6.572  -1.335  -1.489  0.00  0.00    +0.470 A 
ATOM     25  N   LIG    1       -7.543  -2.145  -1.156  0.00  0.00    -0.330 NA
ATOM     26  N   LIG    1       -7.415  -2.529   0.063  0.00  0.00    -0.030 NA
ATOM     27  N   LIG    1       -6.362  -2.001   0.588  0.00  0.00    -0.070 NA
ENDBRANCH  20  23
ENDBRANCH  16  17
ENDBRANCH   2  16
TORSDOF 6
