REMARK  Name = ZINCrg00000SjSJX.1
REMARK                            x       y       z     vdW  Elec       q    Type
REMARK                         _______ _______ _______ _____ _____    ______ ____
ROOT
ATOM      1  N   LIG    1       -0.834   3.155   1.221  0.00  0.00    -0.490 N 
ATOM      2  C   LIG    1       -1.842   3.883   0.601  0.00  0.00    +0.450 A 
ATOM      3  C   LIG    1       -1.450   5.148  -0.057  0.00  0.00    -0.280 A 
ATOM      4  C   LIG    1       -0.293   5.780   0.389  0.00  0.00    +0.230 A 
ATOM      5  C   LIG    1        0.463   5.181   1.407  0.00  0.00    -0.360 A 
ATOM      6  C   LIG    1        1.532   5.878   2.028  0.00  0.00    +0.550 A 
ATOM      7  O   LIG    1        1.837   7.000   1.666  0.00  0.00    -0.500 OA
ATOM      8  N   LIG    1        2.194   5.268   3.046  0.00  0.00    -0.440 N 
ATOM      9  C   LIG    1        3.212   5.930   3.665  0.00  0.00    +0.300 A 
ATOM     10  C   LIG    1        3.894   5.355   4.681  0.00  0.00    +0.000 A 
ATOM     11  C   LIG    1        3.560   4.064   5.110  0.00  0.00    +0.150 A 
ATOM     12  C   LIG    1        2.545   3.393   4.496  0.00  0.00    +0.020 A 
ATOM     13  C   LIG    1        1.848   4.005   3.438  0.00  0.00    +0.440 A 
ATOM     14  N   LIG    1        0.862   3.334   2.840  0.00  0.00    -0.570 NA
ATOM     15  N   LIG    1       -3.083   3.468   0.600  0.00  0.00    -0.700 NA
ATOM     16  H   LIG    1       -3.783   4.030   0.232  0.00  0.00    +0.370 HD
ATOM     17  C   LIG    1        0.169   3.866   1.846  0.00  0.00    +0.510 A 
ENDROOT
BRANCH   3  18
ATOM     18  C   LIG    1       -2.255   5.718  -1.144  0.00  0.00    +0.580 C 
ATOM     19  N   LIG    1       -1.828   6.820  -1.791  0.00  0.00    -0.720 N 
ATOM     20  H   LIG    1       -0.956   7.193  -1.591  0.00  0.00    +0.400 HD
ATOM     21  O   LIG    1       -3.308   5.196  -1.460  0.00  0.00    -0.550 OA
BRANCH  19  22
ATOM     22  C   LIG    1       -2.683   7.455  -2.797  0.00  0.00    +0.280 C 
BRANCH  22  23
ATOM     23  C   LIG    1       -1.967   8.678  -3.376  0.00  0.00    +0.140 C 
ATOM     24  C   LIG    1       -2.861   9.358  -4.431  0.00  0.00    +0.010 C 
ATOM     25  C   LIG    1       -3.045  10.800  -3.899  0.00  0.00    +0.000 C 
ATOM     26  C   LIG    1       -1.839  10.948  -2.937  0.00  0.00    +0.200 C 
ATOM     27  O   LIG    1       -1.722   9.639  -2.335  0.00  0.00    -0.370 OA
ENDBRANCH  22  23
ENDBRANCH  19  22
ENDBRANCH   3  18
BRANCH   1  29
ATOM     28  C   LIG    1       -0.086   1.180  -0.013  0.00  0.00    +0.030 C 
ATOM     29  C   LIG    1       -0.840   1.690   1.217  0.00  0.00    +0.310 C 
ENDBRANCH   1  29
TORSDOF 4
