REMARK  Name = ZINCvU0000000EzG.0
REMARK                            x       y       z     vdW  Elec       q    Type
REMARK                         _______ _______ _______ _____ _____    ______ ____
ROOT
ATOM      1  C   LIG    1        0.811   2.157   0.026  0.00  0.00    +0.310 C 
ATOM      2  N   LIG    1        0.523   3.432   0.064  0.00  0.00    -0.490 NA
ATOM      3  C   LIG    1       -0.833   3.588   0.022  0.00  0.00    -0.050 C 
ATOM      4  C   LIG    1       -1.395   2.231  -0.054  0.00  0.00    +0.510 C 
ATOM      5  O   LIG    1       -2.572   1.923  -0.113  0.00  0.00    -0.440 OA
ATOM      6  C   LIG    1       -1.535   4.779   0.042  0.00  0.00    +0.240 C 
ATOM      7  N   LIG    1       -0.332   1.398  -0.043  0.00  0.00    -0.510 N 
ENDROOT
BRANCH   7   8
ATOM      8  C   LIG    1       -0.385  -0.003  -0.098  0.00  0.00    +0.100 A 
ATOM      9  C   LIG    1       -0.941  -0.719   0.954  0.00  0.00    +0.070 A 
ATOM     10  C   LIG    1       -0.998  -2.098   0.897  0.00  0.00    -0.040 A 
ATOM     11  C   LIG    1       -0.489  -2.768  -0.206  0.00  0.00    +0.120 A 
ATOM     12  C   LIG    1        0.071  -2.053  -1.255  0.00  0.00    +0.030 A 
ATOM     13  C   LIG    1        0.123  -0.674  -1.202  0.00  0.00    +0.070 A 
BRANCH  11  14
ATOM     14  O   LIG    1       -0.540  -4.125  -0.260  0.00  0.00    -0.320 OA
BRANCH  14  15
ATOM     15  C   LIG    1       -1.131  -4.797   0.855  0.00  0.00    +0.600 C 
ATOM     16  F   LIG    1       -2.457  -4.376   1.003  0.00  0.00    -0.200 F 
ATOM     17  F   LIG    1       -0.413  -4.492   2.017  0.00  0.00    -0.200 F 
ENDBRANCH  14  15
ENDBRANCH  11  14
ENDBRANCH   7   8
BRANCH   6  18
ATOM     18  C   LIG    1       -2.941   4.768   0.155  0.00  0.00    -0.040 A 
ATOM     19  C   LIG    1       -3.775   5.867   0.062  0.00  0.00    +0.020 A 
ATOM     20  C   LIG    1       -5.082   5.390   0.234  0.00  0.00    -0.070 A 
ATOM     21  C   LIG    1       -5.000   4.053   0.421  0.00  0.00    +0.210 A 
ATOM     22  O   LIG    1       -3.713   3.682   0.367  0.00  0.00    -0.120 OA
ENDBRANCH   6  18
BRANCH   1  23
ATOM     23  S   LIG    1        2.446   1.500   0.060  0.00  0.00    +0.030 S 
BRANCH  23  24
ATOM     24  C   LIG    1        3.399   3.036   0.151  0.00  0.00    +0.200 C 
BRANCH  24  31
ATOM     25  C   LIG    1        5.426   2.705  -2.360  0.00  0.00    +0.160 C 
ATOM     26  C   LIG    1        5.760   2.566  -0.897  0.00  0.00    +0.040 A 
ATOM     27  N   LIG    1        6.925   2.289  -0.386  0.00  0.00    -0.360 NA
ATOM     28  O   LIG    1        6.882   2.244   0.822  0.00  0.00    +0.100 OA
ATOM     29  C   LIG    1        5.648   2.499   1.280  0.00  0.00    +0.010 A 
ATOM     30  C   LIG    1        5.212   2.538   2.722  0.00  0.00    +0.200 C 
ATOM     31  C   LIG    1        4.871   2.712   0.192  0.00  0.00    -0.210 A 
ENDBRANCH  24  31
ENDBRANCH  23  24
ENDBRANCH   1  23
TORSDOF 7
