REMARK  Name = ZINCrH00000No4X1.0
REMARK                            x       y       z     vdW  Elec       q    Type
REMARK                         _______ _______ _______ _____ _____    ______ ____
ROOT
ATOM      1  C   LIG    1       -3.892   3.940   0.438  0.00  0.00    +0.480 C 
ATOM      2  C   LIG    1       -5.183   3.472   0.553  0.00  0.00    -0.350 C 
ATOM      3  C   LIG    1       -6.216   4.265   1.227  0.00  0.00    +0.590 C 
ATOM      4  N   LIG    1       -7.473   3.803   1.335  0.00  0.00    -0.510 N 
ATOM      5  C   LIG    1       -7.856   2.613   0.845  0.00  0.00    +0.580 C 
ATOM      6  C   LIG    1       -6.905   1.736   0.152  0.00  0.00    -0.170 A 
ATOM      7  C   LIG    1       -7.296   0.498  -0.360  0.00  0.00    +0.120 A 
ATOM      8  C   LIG    1       -6.373  -0.297  -1.005  0.00  0.00    -0.030 A 
ATOM      9  C   LIG    1       -5.058   0.120  -1.151  0.00  0.00    +0.070 A 
ATOM     10  C   LIG    1       -4.650   1.341  -0.652  0.00  0.00    -0.050 A 
ATOM     11  O   LIG    1       -9.011   2.256   0.978  0.00  0.00    -0.500 OA
ATOM     12  O   LIG    1       -5.933   5.353   1.694  0.00  0.00    -0.520 OA
ATOM     13  C   LIG    1       -5.568   2.159  -0.005  0.00  0.00    +0.060 A 
ENDROOT
BRANCH   4  14
ATOM     14  C   LIG    1       -8.422   4.595   1.985  0.00  0.00    +0.340 A 
ATOM     15  C   LIG    1       -9.127   5.553   1.267  0.00  0.00    +0.000 A 
ATOM     16  C   LIG    1      -10.069   6.327   1.922  0.00  0.00    +0.070 A 
ATOM     17  C   LIG    1      -10.266   6.122   3.281  0.00  0.00    -0.020 A 
ATOM     18  C   LIG    1       -9.525   5.155   3.933  0.00  0.00    +0.280 A 
ATOM     19  N   LIG    1       -8.638   4.428   3.280  0.00  0.00    -0.470 NA
ENDBRANCH   4  14
BRANCH   1  20
ATOM     20  N   LIG    1       -3.111   3.533  -0.596  0.00  0.00    -0.680 N 
ATOM     21  H   LIG    1       -3.490   2.990  -1.305  0.00  0.00    +0.410 HD
BRANCH  20  28
ATOM     22  C   LIG    1       -2.032   4.898  -2.912  0.00  0.00    +0.030 C 
ATOM     23  C   LIG    1       -1.211   3.901  -2.091  0.00  0.00    -0.010 C 
ATOM     24  C   LIG    1       -1.380   2.498  -2.675  0.00  0.00    +0.010 C 
ATOM     25  C   LIG    1       -0.559   1.501  -1.854  0.00  0.00    +0.020 C 
ATOM     26  C   LIG    1       -1.045   1.512  -0.403  0.00  0.00    +0.010 C 
ATOM     27  C   LIG    1       -0.876   2.916   0.181  0.00  0.00    +0.010 C 
ATOM     28  C   LIG    1       -1.697   3.913  -0.640  0.00  0.00    +0.230 C 
ENDBRANCH  20  28
ENDBRANCH   1  20
TORSDOF 3
