REMARK  Name = ZINCqH0000001RsP.0
REMARK                            x       y       z     vdW  Elec       q    Type
REMARK                         _______ _______ _______ _____ _____    ______ ____
ROOT
ATOM      1  C   LIG    1       -6.956   8.348   0.256  0.00  0.00    +0.090 C 
ATOM      2  C   LIG    1       -7.905   8.013  -0.898  0.00  0.00    +0.040 C 
ATOM      3  C   LIG    1       -8.170   6.505  -0.910  0.00  0.00    +0.040 C 
ATOM      4  C   LIG    1       -6.840   5.759  -1.039  0.00  0.00    +0.190 C 
ATOM      5  N   LIG    1       -5.968   6.112   0.089  0.00  0.00    -0.480 N 
ATOM      6  C   LIG    1       -5.661   7.548   0.093  0.00  0.00    +0.240 C 
ENDROOT
BRANCH   5   7
ATOM      7  C   LIG    1       -4.805   5.354   0.074  0.00  0.00    +0.320 A 
ATOM      8  C   LIG    1       -4.890   3.965   0.068  0.00  0.00    -0.040 A 
ATOM      9  C   LIG    1       -3.728   3.218   0.053  0.00  0.00    +0.100 A 
ATOM     10  C   LIG    1       -2.503   3.894   0.045  0.00  0.00    -0.140 A 
ATOM     11  C   LIG    1       -2.498   5.287   0.058  0.00  0.00    +0.310 A 
ATOM     12  N   LIG    1       -3.628   5.963   0.066  0.00  0.00    -0.520 NA
BRANCH  10  13
ATOM     13  C   LIG    1       -1.227   3.138   0.030  0.00  0.00    +0.010 A 
ATOM     14  C   LIG    1       -1.222   1.740   0.017  0.00  0.00    -0.030 A 
ATOM     15  C   LIG    1       -0.013   1.076   0.008  0.00  0.00    +0.270 A 
ATOM     16  N   LIG    1        1.126   1.742   0.001  0.00  0.00    -0.490 NA
ATOM     17  C   LIG    1        1.165   3.061   0.007  0.00  0.00    +0.270 A 
ATOM     18  C   LIG    1        0.002   3.804   0.022  0.00  0.00    -0.030 A 
ENDBRANCH  10  13
ENDBRANCH   5   7
BRANCH   1  23
ATOM     19  N   LIG    1       -6.900  10.709   1.229  0.00  0.00    -0.470 N 
ATOM     20  C   LIG    1       -6.451  11.908   0.785  0.00  0.00    +0.360 A 
ATOM     21  N   LIG    1       -5.964  11.720  -0.412  0.00  0.00    -0.300 NA
ATOM     22  N   LIG    1       -6.078  10.481  -0.736  0.00  0.00    -0.290 NA
ATOM     23  C   LIG    1       -6.643   9.822   0.238  0.00  0.00    +0.180 A 
BRANCH  19  25
ATOM     24  C   LIG    1       -6.569  10.795   3.651  0.00  0.00    +0.060 C 
ATOM     25  C   LIG    1       -7.533  10.429   2.521  0.00  0.00    +0.230 C 
ATOM     26  C   LIG    1       -8.812  11.258   2.653  0.00  0.00    +0.060 C 
ENDBRANCH  19  25
ENDBRANCH   1  23
TORSDOF 4
