REMARK  Name = ZINCpk000000p8k0.0
REMARK                            x       y       z     vdW  Elec       q    Type
REMARK                         _______ _______ _______ _____ _____    ______ ____
ROOT
ATOM      1  C   LIG    1       -4.067  -3.050  -3.177  0.00  0.00    -0.220 A 
ATOM      2  C   LIG    1       -4.378  -3.178  -1.835  0.00  0.00    +0.140 A 
ATOM      3  N   LIG    1       -3.472  -2.499  -1.117  0.00  0.00    -0.520 N 
ATOM      4  H   LIG    1       -3.461  -2.428  -0.149  0.00  0.00    +0.430 HD
ATOM      5  C   LIG    1       -2.557  -1.918  -1.971  0.00  0.00    -0.100 A 
ATOM      6  C   LIG    1       -5.543  -3.952  -1.273  0.00  0.00    +0.160 C 
ATOM      7  C   LIG    1       -2.911  -2.244  -3.262  0.00  0.00    +0.000 A 
ATOM      8  C   LIG    1       -2.200  -1.824  -4.522  0.00  0.00    +0.140 C 
ENDROOT
BRANCH   1   9
ATOM      9  C   LIG    1       -4.807  -3.639  -4.306  0.00  0.00    +0.550 C 
ATOM     10  O   LIG    1       -5.713  -3.019  -4.829  0.00  0.00    -0.490 OA
BRANCH   9  11
ATOM     11  O   LIG    1       -4.480  -4.865  -4.760  0.00  0.00    -0.350 OA
BRANCH  11  13
ATOM     12  C   LIG    1       -4.739  -6.775  -6.248  0.00  0.00    +0.070 C 
ATOM     13  C   LIG    1       -5.252  -5.383  -5.876  0.00  0.00    +0.200 C 
ENDBRANCH  11  13
ENDBRANCH   9  11
ENDBRANCH   1   9
BRANCH   5  14
ATOM     14  C   LIG    1       -1.451  -1.122  -1.588  0.00  0.00    +0.410 C 
ATOM     15  O   LIG    1       -0.711  -0.663  -2.435  0.00  0.00    -0.430 OA
BRANCH  14  16
ATOM     16  C   LIG    1       -1.191  -0.844  -0.130  0.00  0.00    +0.330 C 
BRANCH  16  17
ATOM     17  N   LIG    1        0.002  -0.004   0.002  0.00  0.00    -0.570 N 
ATOM     18  C   LIG    1        1.260  -0.483   0.131  0.00  0.00    +0.530 C 
ATOM     19  C   LIG    1        2.127   0.730   0.353  0.00  0.00    +0.190 C 
ATOM     20  C   LIG    1        3.245   0.846  -0.702  0.00  0.00    +0.070 C 
ATOM     21  C   LIG    1        3.439   2.381  -0.808  0.00  0.00    +0.040 C 
ATOM     22  C   LIG    1        2.112   2.985  -0.296  0.00  0.00    +0.330 C 
ATOM     23  N   LIG    1        1.216   1.853   0.000  0.00  0.00    -0.630 N 
ATOM     24  O   LIG    1        1.614  -1.641   0.080  0.00  0.00    -0.460 OA
ATOM     25  C   LIG    1       -0.016   1.338   0.009  0.00  0.00    +0.740 C 
ATOM     26  O   LIG    1       -1.032   2.005   0.018  0.00  0.00    -0.530 OA
ENDBRANCH  16  17
ENDBRANCH  14  16
ENDBRANCH   5  14
TORSDOF 6
