REMARK  Name = ZINCqH0000000k6i.1
REMARK                            x       y       z     vdW  Elec       q    Type
REMARK                         _______ _______ _______ _____ _____    ______ ____
ROOT
ATOM      1  N   LIG    1        6.067   3.338   0.286  0.00  0.00    -0.510 N 
ATOM      2  C   LIG    1        4.939   4.064   0.126  0.00  0.00    +0.550 A 
ATOM      3  C   LIG    1        3.644   3.356   0.135  0.00  0.00    -0.160 A 
ATOM      4  C   LIG    1        2.439   4.036  -0.024  0.00  0.00    +0.140 A 
ATOM      5  C   LIG    1        1.253   3.336  -0.015  0.00  0.00    +0.040 A 
ATOM      6  C   LIG    1        1.254   1.950   0.164  0.00  0.00    -0.060 A 
ATOM      7  C   LIG    1        2.455   1.262   0.324  0.00  0.00    +0.070 A 
ATOM      8  C   LIG    1        3.651   1.961   0.310  0.00  0.00    +0.170 A 
ATOM      9  N   LIG    1        4.869   1.314   0.466  0.00  0.00    -0.580 N 
ATOM     10  H   LIG    1        4.890   0.352   0.587  0.00  0.00    +0.450 HD
ATOM     11  O   LIG    1        4.990   5.270  -0.022  0.00  0.00    -0.460 OA
ATOM     12  C   LIG    1        6.021   2.007   0.450  0.00  0.00    +0.530 A 
ATOM     13  S   LIG    1        7.492   1.155   0.648  0.00  0.00    -0.530 S 
ENDROOT
BRANCH   6  14
ATOM     14  C   LIG    1       -0.027   1.208   0.177  0.00  0.00    +0.560 C 
ATOM     15  N   LIG    1       -1.191   1.869   0.018  0.00  0.00    -0.660 N 
ATOM     16  H   LIG    1       -1.196   2.838  -0.025  0.00  0.00    +0.410 HD
ATOM     17  O   LIG    1       -0.029   0.002   0.328  0.00  0.00    -0.500 OA
BRANCH  15  18
ATOM     18  C   LIG    1       -2.390   1.158  -0.086  0.00  0.00    +0.150 A 
ATOM     19  C   LIG    1       -3.564   1.694   0.429  0.00  0.00    -0.020 A 
ATOM     20  C   LIG    1       -4.748   0.992   0.320  0.00  0.00    -0.060 A 
ATOM     21  C   LIG    1       -4.764  -0.249  -0.291  0.00  0.00    -0.010 A 
ATOM     22  C   LIG    1       -3.596  -0.788  -0.799  0.00  0.00    -0.060 A 
ATOM     23  C   LIG    1       -3.619  -2.140  -1.464  0.00  0.00    +0.090 C 
ATOM     24  C   LIG    1       -6.023   1.575   0.872  0.00  0.00    +0.090 C 
ATOM     25  C   LIG    1       -2.410  -0.088  -0.699  0.00  0.00    +0.000 A 
ENDBRANCH  15  18
ENDBRANCH   6  14
BRANCH   1  26
ATOM     26  C   LIG    1        7.365   4.017   0.282  0.00  0.00    +0.360 C 
BRANCH  26  28
ATOM     27  C   LIG    1        8.862   4.045   2.211  0.00  0.00    +0.080 C 
ATOM     28  C   LIG    1        7.723   4.425   1.688  0.00  0.00    -0.080 C 
ENDBRANCH  26  28
ENDBRANCH   1  26
TORSDOF 4
