REMARK  Name = ZINCrH000004sfDk.0
REMARK                            x       y       z     vdW  Elec       q    Type
REMARK                         _______ _______ _______ _____ _____    ______ ____
ROOT
ATOM      1  C   LIG    1        0.611   3.218   0.013  0.00  0.00    +0.070 A 
ATOM      2  N   LIG    1       -0.697   3.199   0.026  0.00  0.00    -0.270 NA
ATOM      3  N   LIG    1       -1.119   1.863   0.017  0.00  0.00    -0.470 N 
ATOM      4  H   LIG    1       -2.039   1.555   0.019  0.00  0.00    +0.450 HD
ATOM      5  C   LIG    1       -0.013   1.076   0.008  0.00  0.00    +0.250 A 
ATOM      6  C   LIG    1        1.072   1.893   0.002  0.00  0.00    -0.000 A 
ENDROOT
BRANCH   1  11
ATOM      7  N   LIG    1        2.017   6.491   1.258  0.00  0.00    -0.520 NA
ATOM      8  C   LIG    1        1.701   7.338   0.101  0.00  0.00    +0.160 C 
ATOM      9  C   LIG    1        2.002   6.574  -1.190  0.00  0.00    +0.040 C 
ATOM     10  C   LIG    1        1.163   5.294  -1.228  0.00  0.00    +0.030 C 
ATOM     11  C   LIG    1        1.476   4.452   0.012  0.00  0.00    +0.090 C 
ATOM     12  C   LIG    1        1.190   5.277   1.269  0.00  0.00    +0.200 C 
BRANCH   7  13
ATOM     13  C   LIG    1        1.871   7.239   2.514  0.00  0.00    +0.250 C 
ATOM     14  C   LIG    1        2.536   6.460   3.651  0.00  0.00    +0.070 C 
BRANCH  13  19
ATOM     15  C   LIG    1        2.737  12.198   2.741  0.00  0.00    +0.180 C 
ATOM     16  C   LIG    1        2.898  10.723   2.476  0.00  0.00    -0.050 A 
ATOM     17  C   LIG    1        3.955  10.127   1.899  0.00  0.00    +0.130 A 
ATOM     18  N   LIG    1        3.702   8.807   1.849  0.00  0.00    -0.450 NA
ATOM     19  C   LIG    1        2.531   8.586   2.375  0.00  0.00    +0.190 A 
ATOM     20  O   LIG    1        2.007   9.755   2.768  0.00  0.00    -0.200 OA
ENDBRANCH  13  19
ENDBRANCH   7  13
ENDBRANCH   1  11
BRANCH   6  21
ATOM     21  N   LIG    1        2.418   1.483  -0.013  0.00  0.00    -0.640 N 
ATOM     22  H   LIG    1        3.127   2.146  -0.017  0.00  0.00    +0.410 HD
ATOM     23  C   LIG    1        2.723   0.170  -0.022  0.00  0.00    +0.520 C 
ATOM     24  O   LIG    1        1.837  -0.658  -0.018  0.00  0.00    -0.530 OA
BRANCH  23  25
ATOM     25  C   LIG    1        4.165  -0.268  -0.039  0.00  0.00    -0.010 C 
ATOM     26  C   LIG    1        4.851   0.217  -1.332  0.00  0.00    +0.030 C 
ATOM     27  C   LIG    1        5.806  -0.941  -1.714  0.00  0.00    +0.020 C 
ATOM     28  C   LIG    1        4.982  -2.199  -1.346  0.00  0.00    +0.010 C 
ATOM     29  C   LIG    1        4.248  -1.805  -0.047  0.00  0.00    +0.040 C 
ENDBRANCH  23  25
ENDBRANCH   6  21
TORSDOF 5
