REMARK  Name = ZINCpe00000MJIlR.0
REMARK                            x       y       z     vdW  Elec       q    Type
REMARK                         _______ _______ _______ _____ _____    ______ ____
ROOT
ATOM      1  C   LIG    1        2.783  -3.683  -1.148  0.00  0.00    +0.600 C 
ATOM      2  N   LIG    1        3.328  -2.569  -1.675  0.00  0.00    -0.610 N 
ATOM      3  C   LIG    1        4.472  -1.900  -1.033  0.00  0.00    +0.300 C 
ATOM      4  C   LIG    1        5.664  -1.980  -1.986  0.00  0.00    +0.120 C 
ATOM      5  C   LIG    1        5.260  -1.582  -3.380  0.00  0.00    +0.240 A 
ATOM      6  N   LIG    1        6.211  -1.211  -4.230  0.00  0.00    -0.570 NA
ATOM      7  C   LIG    1        5.919  -0.873  -5.476  0.00  0.00    +0.570 A 
ATOM      8  N   LIG    1        4.673  -0.890  -5.924  0.00  0.00    -0.570 NA
ATOM      9  C   LIG    1        3.678  -1.244  -5.128  0.00  0.00    +0.380 A 
ATOM     10  C   LIG    1        3.952  -1.599  -3.813  0.00  0.00    -0.270 A 
ATOM     11  C   LIG    1        2.806  -1.976  -2.912  0.00  0.00    +0.340 C 
ATOM     12  O   LIG    1        3.292  -4.207  -0.176  0.00  0.00    -0.510 OA
ENDROOT
BRANCH   1  19
ATOM     13  C   LIG    1       -1.563  -7.290  -3.197  0.00  0.00    +0.070 C 
ATOM     14  C   LIG    1       -0.345  -6.599  -3.814  0.00  0.00    +0.260 C 
ATOM     15  O   LIG    1        0.722  -7.545  -3.974  0.00  0.00    -0.370 OA
ATOM     16  C   LIG    1        1.975  -6.976  -4.360  0.00  0.00    +0.150 C 
ATOM     17  C   LIG    1        2.585  -6.207  -3.177  0.00  0.00    +0.100 C 
ATOM     18  C   LIG    1        1.506  -5.331  -2.602  0.00  0.00    -0.150 A 
ATOM     19  C   LIG    1        1.572  -4.264  -1.749  0.00  0.00    -0.020 A 
ATOM     20  N   LIG    1        0.278  -3.851  -1.563  0.00  0.00    -0.280 N 
ATOM     21  N   LIG    1       -0.519  -4.595  -2.252  0.00  0.00    -0.250 NA
ATOM     22  C   LIG    1       -0.137  -2.732  -0.713  0.00  0.00    +0.370 C 
ATOM     23  C   LIG    1        2.929  -8.092  -4.788  0.00  0.00    +0.060 C 
ATOM     24  C   LIG    1        0.144  -5.506  -2.897  0.00  0.00    +0.000 A 
ENDBRANCH   1  19
BRANCH   7  25
ATOM     25  N   LIG    1        6.939  -0.492  -6.330  0.00  0.00    -0.820 N 
ATOM     26  H   LIG    1        7.856  -0.476  -6.013  0.00  0.00    +0.420 HD
ATOM     27  H   LIG    1        6.738  -0.242  -7.245  0.00  0.00    +0.420 HD
ENDBRANCH   7  25
TORSDOF 2
