REMARK  Name = ZINCpe000000ZG7n.0
REMARK                            x       y       z     vdW  Elec       q    Type
REMARK                         _______ _______ _______ _____ _____    ______ ____
ROOT
ATOM      1  O   LIG    1       -0.120   8.395   0.591  0.00  0.00    -0.940 OA
ATOM      2  S   LIG    1        1.128   8.008   0.033  0.00  0.00    +2.700 S 
ATOM      3  O   LIG    1        2.379   8.418   0.568  0.00  0.00    -0.940 OA
ENDROOT
BRANCH   2   4
ATOM      4  N   LIG    1        1.109   8.507  -1.546  0.00  0.00    -1.000 NA
ATOM      5  C   LIG    1        2.362   8.752  -2.276  0.00  0.00    +0.310 C 
ATOM      6  C   LIG    1        2.308   7.977  -3.602  0.00  0.00    +0.170 C 
ATOM      7  N   LIG    1        1.085   8.345  -4.328  0.00  0.00    -0.530 NA
ATOM      8  C   LIG    1       -0.117   7.954  -3.579  0.00  0.00    +0.170 C 
ATOM      9  C   LIG    1       -0.162   8.723  -2.254  0.00  0.00    +0.310 C 
BRANCH   7  10
ATOM     10  C   LIG    1        1.078   7.761  -5.676  0.00  0.00    +0.180 C 
BRANCH  10  11
ATOM     11  C   LIG    1        2.204   8.382  -6.506  0.00  0.00    +0.030 C 
BRANCH  11  12
ATOM     12  C   LIG    1        2.197   7.775  -7.910  0.00  0.00    +0.170 C 
BRANCH  12  13
ATOM     13  O   LIG    1        3.248   8.354  -8.685  0.00  0.00    -0.570 OA
ATOM     14  H   LIG    1        3.304   8.015  -9.589  0.00  0.00    +0.380 HD
ENDBRANCH  12  13
ENDBRANCH  11  12
ENDBRANCH  10  11
ENDBRANCH   7  10
ENDBRANCH   2   4
BRANCH   2  15
ATOM     15  C   LIG    1        1.144   6.247   0.023  0.00  0.00    -0.810 A 
ATOM     16  C   LIG    1        2.343   5.549   0.009  0.00  0.00    +0.450 A 
ATOM     17  N   LIG    1        2.320   4.228   0.002  0.00  0.00    -0.520 NA
ATOM     18  C   LIG    1        1.169   3.570   0.010  0.00  0.00    +0.420 A 
ATOM     19  N   LIG    1        0.006   4.206   0.018  0.00  0.00    -0.520 NA
ATOM     20  C   LIG    1       -0.042   5.527   0.031  0.00  0.00    +0.450 A 
BRANCH  18  21
ATOM     21  C   LIG    1        1.182   2.087   0.002  0.00  0.00    -0.070 A 
ATOM     22  C   LIG    1       -0.017   1.376   0.010  0.00  0.00    +0.080 A 
ATOM     23  C   LIG    1        0.002  -0.004   0.002  0.00  0.00    +0.000 A 
ATOM     24  C   LIG    1        1.208  -0.682  -0.013  0.00  0.00    +0.040 A 
ATOM     25  C   LIG    1        2.401   0.018  -0.020  0.00  0.00    +0.000 A 
ATOM     26  C   LIG    1        2.394   1.398  -0.013  0.00  0.00    +0.080 A 
ENDBRANCH  18  21
ENDBRANCH   2  15
TORSDOF 7
