REMARK  Name = ZINCqH0000008FkJ.0
REMARK                            x       y       z     vdW  Elec       q    Type
REMARK                         _______ _______ _______ _____ _____    ______ ____
ROOT
ATOM      1  C   LIG    1        2.600   7.624  -0.148  0.00  0.00    +0.030 C 
ATOM      2  C   LIG    1        2.168   6.176  -0.390  0.00  0.00    -0.010 C 
ATOM      3  C   LIG    1        0.935   5.860   0.463  0.00  0.00    +0.020 C 
ATOM      4  C   LIG    1        0.358   4.512   0.027  0.00  0.00    +0.110 C 
ATOM      5  C   LIG    1        1.479   3.481   0.009  0.00  0.00    -0.030 A 
ATOM      6  C   LIG    1        2.774   3.804  -0.002  0.00  0.00    -0.200 A 
ATOM      7  S   LIG    1        3.788   2.370  -0.024  0.00  0.00    +0.200 S 
ATOM      8  C   LIG    1        2.398   1.296  -0.015  0.00  0.00    +0.070 A 
ATOM      9  N   LIG    1        2.325  -0.053  -0.022  0.00  0.00    -0.490 NA
ATOM     10  C   LIG    1        1.183  -0.674  -0.014  0.00  0.00    +0.590 A 
ATOM     11  N   LIG    1        0.002  -0.004   0.002  0.00  0.00    -0.540 N 
ATOM     12  C   LIG    1       -0.016   1.343   0.009  0.00  0.00    +0.560 A 
ATOM     13  O   LIG    1       -1.073   1.951   0.018  0.00  0.00    -0.500 OA
ATOM     14  C   LIG    1        1.230   2.046   0.001  0.00  0.00    -0.220 A 
ATOM     15  C   LIG    1        3.302   5.228   0.004  0.00  0.00    +0.120 C 
ENDROOT
BRANCH  11  16
ATOM     16  C   LIG    1       -1.259  -0.750   0.010  0.00  0.00    +0.460 C 
BRANCH  16  17
ATOM     17  C   LIG    1       -1.705  -0.998  -1.407  0.00  0.00    +0.150 A 
ATOM     18  N   LIG    1       -1.398  -2.029  -2.139  0.00  0.00    -0.370 NA
ATOM     19  O   LIG    1       -1.910  -1.941  -3.235  0.00  0.00    +0.100 OA
ATOM     20  C   LIG    1       -2.621  -0.803  -3.312  0.00  0.00    +0.270 A 
ATOM     21  N   LIG    1       -2.495  -0.199  -2.140  0.00  0.00    -0.450 NA
BRANCH  20  22
ATOM     22  C   LIG    1       -3.390  -0.325  -4.468  0.00  0.00    -0.190 A 
ATOM     23  C   LIG    1       -3.506  -0.972  -5.664  0.00  0.00    +0.090 A 
ATOM     24  C   LIG    1       -4.291  -0.299  -6.573  0.00  0.00    +0.000 A 
ATOM     25  C   LIG    1       -4.798   0.858  -6.136  0.00  0.00    -0.060 A 
ATOM     26  S   LIG    1       -4.316   1.168  -4.529  0.00  0.00    +0.290 S 
ENDBRANCH  20  22
ENDBRANCH  16  17
ENDBRANCH  11  16
TORSDOF 3
