REMARK  Name = ZINCpk000000mYCO.0
REMARK                            x       y       z     vdW  Elec       q    Type
REMARK                         _______ _______ _______ _____ _____    ______ ____
ROOT
ATOM      1  N   LIG    1       -0.815   1.406   1.214  0.00  0.00    -0.720 N 
ATOM      2  H   LIG    1       -1.668   1.859   1.128  0.00  0.00    +0.400 HD
ATOM      3  C   LIG    1       -0.359   1.054   2.433  0.00  0.00    +0.560 C 
ATOM      4  O   LIG    1        0.710   0.485   2.541  0.00  0.00    -0.540 OA
ENDROOT
BRANCH   3   5
ATOM      5  C   LIG    1       -1.159   1.358   3.636  0.00  0.00    -0.170 A 
ATOM      6  C   LIG    1       -2.385   2.016   3.514  0.00  0.00    +0.090 A 
ATOM      7  C   LIG    1       -3.130   2.293   4.638  0.00  0.00    -0.090 A 
ATOM      8  C   LIG    1       -2.659   1.929   5.894  0.00  0.00    +0.160 A 
ATOM      9  C   LIG    1       -1.437   1.279   6.020  0.00  0.00    -0.010 A 
ATOM     10  C   LIG    1       -0.688   0.994   4.900  0.00  0.00    +0.130 A 
BRANCH   8  11
ATOM     11  O   LIG    1       -3.394   2.209   7.000  0.00  0.00    -0.280 OA
BRANCH  11  12
ATOM     12  C   LIG    1       -4.640   2.878   6.799  0.00  0.00    +0.240 C 
BRANCH  12  13
ATOM     13  C   LIG    1       -5.311   3.103   8.130  0.00  0.00    +0.520 C 
ATOM     14  O   LIG    1       -4.774   2.727   9.150  0.00  0.00    -0.520 OA
ATOM     15  N   LIG    1       -6.507   3.722   8.186  0.00  0.00    -0.850 N 
ATOM     16  H   LIG    1       -6.938   3.866   9.042  0.00  0.00    +0.410 HD
ATOM     17  H   LIG    1       -6.936   4.022   7.370  0.00  0.00    +0.400 HD
ENDBRANCH  12  13
ENDBRANCH  11  12
ENDBRANCH   8  11
ENDBRANCH   3   5
BRANCH   1  18
ATOM     18  C   LIG    1       -0.021   1.104   0.021  0.00  0.00    +0.320 C 
BRANCH  18  22
ATOM     19  C   LIG    1       -2.081   2.506  -3.452  0.00  0.00    +0.150 A 
ATOM     20  C   LIG    1       -1.192   3.339  -2.787  0.00  0.00    +0.020 A 
ATOM     21  C   LIG    1       -0.528   2.883  -1.665  0.00  0.00    +0.050 A 
ATOM     22  C   LIG    1       -0.748   1.598  -1.204  0.00  0.00    -0.130 A 
ATOM     23  C   LIG    1       -1.629   0.764  -1.867  0.00  0.00    +0.050 A 
ATOM     24  C   LIG    1       -2.300   1.216  -2.986  0.00  0.00    -0.020 A 
BRANCH  19  27
ATOM     25  C   LIG    1       -2.918   4.418  -6.584  0.00  0.00    +0.110 C 
ATOM     26  C   LIG    1       -2.153   3.833  -5.425  0.00  0.00    +0.510 C 
ATOM     27  N   LIG    1       -2.755   2.964  -4.589  0.00  0.00    -0.680 N 
ATOM     28  H   LIG    1       -3.656   2.657  -4.776  0.00  0.00    +0.410 HD
ATOM     29  O   LIG    1       -0.994   4.143  -5.245  0.00  0.00    -0.520 OA
ENDBRANCH  19  27
ENDBRANCH  18  22
ENDBRANCH   1  18
TORSDOF 7
