REMARK  Name = ZINCpk00000ebcpM.0
REMARK                            x       y       z     vdW  Elec       q    Type
REMARK                         _______ _______ _______ _____ _____    ______ ____
ROOT
ATOM      1  N   LIG    1        2.807   2.261   4.649  0.00  0.00    -0.730 N 
ATOM      2  H   LIG    1        3.251   1.425   4.434  0.00  0.00    +0.400 HD
ATOM      3  C   LIG    1        3.421   3.166   5.436  0.00  0.00    +0.520 C 
ATOM      4  O   LIG    1        2.867   4.211   5.705  0.00  0.00    -0.520 OA
ENDROOT
BRANCH   1  12
ATOM      5  C   LIG    1       -0.013   1.086   0.008  0.00  0.00    +0.200 C 
ATOM      6  C   LIG    1       -0.718   1.572   1.248  0.00  0.00    +0.180 A 
ATOM      7  N   LIG    1       -1.997   1.818   1.369  0.00  0.00    -0.290 NA
ATOM      8  N   LIG    1       -2.253   2.214   2.569  0.00  0.00    -0.290 NA
ATOM      9  C   LIG    1       -1.153   2.245   3.258  0.00  0.00    +0.180 A 
ATOM     10  C   LIG    1       -0.959   2.644   4.699  0.00  0.00    +0.180 C 
ATOM     11  C   LIG    1        0.417   2.138   5.154  0.00  0.00    +0.030 C 
ATOM     12  C   LIG    1        1.471   2.539   4.117  0.00  0.00    +0.240 C 
ATOM     13  C   LIG    1        1.256   1.736   2.829  0.00  0.00    +0.300 C 
ATOM     14  N   LIG    1       -0.150   1.840   2.439  0.00  0.00    -0.470 N 
ENDBRANCH   1  12
BRANCH   3  15
ATOM     15  C   LIG    1        4.796   2.880   5.983  0.00  0.00    +0.150 C 
BRANCH  15  16
ATOM     16  C   LIG    1        5.253   4.043   6.826  0.00  0.00    -0.220 A 
ATOM     17  C   LIG    1        5.947   5.119   6.389  0.00  0.00    +0.250 A 
ATOM     18  N   LIG    1        6.159   5.931   7.450  0.00  0.00    -0.320 N 
ATOM     19  N   LIG    1        5.582   5.327   8.575  0.00  0.00    -0.290 NA
ATOM     20  C   LIG    1        5.040   4.197   8.200  0.00  0.00    +0.260 A 
BRANCH  18  21
ATOM     21  C   LIG    1        6.839   7.156   7.428  0.00  0.00    +0.160 A 
ATOM     22  C   LIG    1        7.368   7.637   6.238  0.00  0.00    -0.010 A 
ATOM     23  C   LIG    1        8.033   8.847   6.219  0.00  0.00    +0.040 A 
ATOM     24  C   LIG    1        8.182   9.575   7.385  0.00  0.00    +0.000 A 
ATOM     25  C   LIG    1        7.660   9.096   8.573  0.00  0.00    +0.040 A 
ATOM     26  C   LIG    1        6.989   7.889   8.598  0.00  0.00    +0.020 A 
ENDBRANCH  18  21
ENDBRANCH  15  16
ENDBRANCH   3  15
TORSDOF 4
