REMARK  Name = ZINCpk000004AN3T.0
REMARK                            x       y       z     vdW  Elec       q    Type
REMARK                         _______ _______ _______ _____ _____    ______ ____
ROOT
ATOM      1  C   LIG    1        1.630  -6.282   0.157  0.00  0.00    +0.560 C 
ATOM      2  N   LIG    1        2.846  -6.859   0.215  0.00  0.00    -0.720 N 
ATOM      3  H   LIG    1        3.644  -6.307   0.228  0.00  0.00    +0.410 HD
ATOM      4  O   LIG    1        0.629  -6.973   0.140  0.00  0.00    -0.520 OA
ENDROOT
BRANCH   2   5
ATOM      5  C   LIG    1        2.964  -8.318   0.260  0.00  0.00    +0.240 C 
ATOM      6  C   LIG    1        4.287  -8.704   0.928  0.00  0.00    +0.040 C 
ATOM      7  C   LIG    1        4.304 -10.217   1.180  0.00  0.00    +0.180 C 
ATOM      8  C   LIG    1        3.891 -10.912  -0.095  0.00  0.00    +0.270 A 
ATOM      9  N   LIG    1        4.044 -12.168  -0.407  0.00  0.00    -0.530 NA
ATOM     10  C   LIG    1        3.548 -12.392  -1.626  0.00  0.00    +0.220 A 
ATOM     11  N   LIG    1        3.071 -11.271  -2.105  0.00  0.00    -0.310 NA
ATOM     12  C   LIG    1        3.539 -13.721  -2.337  0.00  0.00    +0.190 C 
ATOM     13  N   LIG    1        3.282 -10.296  -1.126  0.00  0.00    -0.370 N 
ATOM     14  C   LIG    1        2.930  -8.877  -1.167  0.00  0.00    +0.310 C 
ENDBRANCH   2   5
BRANCH   1  18
ATOM     15  C   LIG    1        1.290  -2.050   0.029  0.00  0.00    +0.170 A 
ATOM     16  C   LIG    1        2.547  -2.644   0.085  0.00  0.00    +0.000 A 
ATOM     17  C   LIG    1        2.660  -4.016   0.131  0.00  0.00    +0.060 A 
ATOM     18  C   LIG    1        1.512  -4.811   0.112  0.00  0.00    -0.140 A 
ATOM     19  C   LIG    1        0.251  -4.212   0.051  0.00  0.00    +0.100 A 
ATOM     20  C   LIG    1        0.144  -2.840   0.010  0.00  0.00    +0.020 A 
BRANCH  15  22
ATOM     21  C   LIG    1        0.602  -0.001   1.011  0.00  0.00    +0.550 C 
ATOM     22  N   LIG    1        1.178  -0.662  -0.013  0.00  0.00    -0.580 N 
ATOM     23  C   LIG    1        1.687   0.079  -1.170  0.00  0.00    +0.300 C 
ATOM     24  O   LIG    1        0.094  -0.620   1.926  0.00  0.00    -0.520 OA
BRANCH  21  26
ATOM     25  C   LIG    1        0.015   2.122   2.029  0.00  0.00    +0.160 C 
ATOM     26  C   LIG    1        0.589   1.470   1.022  0.00  0.00    -0.090 C 
ENDBRANCH  21  26
ENDBRANCH  15  22
ENDBRANCH   1  18
TORSDOF 4
