REMARK  Name = ZINCrg00000fSEbX.0
REMARK                            x       y       z     vdW  Elec       q    Type
REMARK                         _______ _______ _______ _____ _____    ______ ____
ROOT
ATOM      1  O   LIG    1       -0.489   5.603   8.082  0.00  0.00    -0.530 OA
ATOM      2  C   LIG    1       -1.679   5.481   7.881  0.00  0.00    +0.530 C 
ATOM      3  N   LIG    1       -2.562   5.782   8.854  0.00  0.00    -0.720 N 
ATOM      4  H   LIG    1       -3.513   5.684   8.693  0.00  0.00    +0.410 HD
ENDROOT
BRANCH   2   5
ATOM      5  C   LIG    1       -2.171   4.994   6.542  0.00  0.00    +0.000 C 
ATOM      6  C   LIG    1       -2.951   3.667   6.689  0.00  0.00    +0.070 C 
ATOM      7  C   LIG    1       -2.570   2.874   5.458  0.00  0.00    +0.520 C 
ATOM      8  N   LIG    1       -1.473   3.403   4.889  0.00  0.00    -0.620 N 
ATOM      9  O   LIG    1       -3.167   1.903   5.045  0.00  0.00    -0.520 OA
ATOM     10  C   LIG    1       -0.987   4.564   5.645  0.00  0.00    +0.300 C 
BRANCH   8  11
ATOM     11  C   LIG    1       -0.840   2.885   3.674  0.00  0.00    +0.300 C 
BRANCH  11  12
ATOM     12  C   LIG    1       -1.451   3.568   2.449  0.00  0.00    +0.160 C 
BRANCH  12  13
ATOM     13  N   LIG    1       -0.817   3.048   1.230  0.00  0.00    -0.530 NA
ATOM     14  C   LIG    1       -0.731   1.580   1.266  0.00  0.00    +0.150 C 
ATOM     15  C   LIG    1       -0.013   1.086   0.008  0.00  0.00    +0.220 C 
ATOM     16  O   LIG    1       -0.706   1.560  -1.149  0.00  0.00    -0.380 OA
ATOM     17  C   LIG    1       -0.807   2.985  -1.216  0.00  0.00    +0.220 C 
ATOM     18  C   LIG    1       -1.534   3.499   0.029  0.00  0.00    +0.160 C 
ENDBRANCH  12  13
ENDBRANCH  11  12
ENDBRANCH   8  11
ENDBRANCH   2   5
BRANCH   3  19
ATOM     19  C   LIG    1       -2.084   6.255  10.155  0.00  0.00    +0.380 C 
BRANCH  19  20
ATOM     20  C   LIG    1       -3.262   6.518  11.058  0.00  0.00    -0.180 A 
ATOM     21  C   LIG    1       -3.802   5.618  11.858  0.00  0.00    +0.080 A 
ATOM     22  C   LIG    1       -4.929   6.092  12.642  0.00  0.00    +0.120 A 
ATOM     23  N   LIG    1       -5.679   5.425  13.537  0.00  0.00    -0.450 NA
ATOM     24  C   LIG    1       -6.678   5.990  14.169  0.00  0.00    +0.290 A 
ATOM     25  C   LIG    1       -7.015   7.316  13.945  0.00  0.00    +0.000 A 
ATOM     26  C   LIG    1       -6.282   8.054  13.037  0.00  0.00    +0.100 A 
ATOM     27  C   LIG    1       -5.219   7.434  12.372  0.00  0.00    -0.190 A 
ATOM     28  S   LIG    1       -4.094   8.057  11.173  0.00  0.00    +0.130 S 
ENDBRANCH  19  20
ENDBRANCH   3  19
TORSDOF 6
