REMARK  Name = ZINCrg00000BBmhw.0
REMARK                            x       y       z     vdW  Elec       q    Type
REMARK                         _______ _______ _______ _____ _____    ______ ____
ROOT
ATOM      1  C   LIG    1        2.899   3.276   2.168  0.00  0.00    +0.250 C 
ATOM      2  C   LIG    1        3.714   4.530   1.799  0.00  0.00    +0.020 C 
ATOM      3  C   LIG    1        4.031   3.843   0.458  0.00  0.00    +0.050 C 
ATOM      4  C   LIG    1        2.749   3.041   0.667  0.00  0.00    -0.140 C 
ATOM      5  C   LIG    1        2.563   1.647   0.082  0.00  0.00    +0.290 C 
ATOM      6  N   LIG    1        1.121   1.938   0.006  0.00  0.00    -0.640 N 
ATOM      7  C   LIG    1       -0.014   1.211   0.009  0.00  0.00    +0.590 C 
ATOM      8  O   LIG    1        0.041  -0.003   0.002  0.00  0.00    -0.500 OA
ATOM      9  C   LIG    1        1.461   3.368  -0.083  0.00  0.00    +0.310 C 
ENDROOT
BRANCH   7  10
ATOM     10  C   LIG    1       -1.327   1.891   0.015  0.00  0.00    -0.140 A 
ATOM     11  C   LIG    1       -1.506   3.095  -0.668  0.00  0.00    +0.300 A 
ATOM     12  N   LIG    1       -2.675   3.701  -0.662  0.00  0.00    -0.470 NA
ATOM     13  C   LIG    1       -3.715   3.203  -0.021  0.00  0.00    +0.290 A 
ATOM     14  C   LIG    1       -3.619   2.014   0.679  0.00  0.00    +0.010 A 
ATOM     15  C   LIG    1       -2.414   1.335   0.700  0.00  0.00    -0.080 A 
BRANCH  15  16
ATOM     16  C   LIG    1       -2.273   0.034   1.447  0.00  0.00    +0.430 C 
ATOM     17  F   LIG    1       -1.295   0.168   2.438  0.00  0.00    -0.190 F 
ATOM     18  F   LIG    1       -1.897  -0.977   0.555  0.00  0.00    -0.170 F 
ENDBRANCH  15  16
ENDBRANCH   7  10
BRANCH   1  20
ATOM     19  C   LIG    1        3.498   2.014   4.165  0.00  0.00    +0.500 C 
ATOM     20  N   LIG    1        3.683   2.244   2.849  0.00  0.00    -0.710 N 
ATOM     21  H   LIG    1        4.337   1.725   2.354  0.00  0.00    +0.400 HD
ATOM     22  O   LIG    1        2.681   2.663   4.784  0.00  0.00    -0.520 OA
BRANCH  19  27
ATOM     23  O   LIG    1        3.986   1.049   8.341  0.00  0.00    -0.520 OA
ATOM     24  C   LIG    1        4.305   1.172   7.178  0.00  0.00    +0.530 C 
ATOM     25  C   LIG    1        5.471   1.998   6.681  0.00  0.00    +0.060 C 
ATOM     26  C   LIG    1        5.701   1.499   5.236  0.00  0.00    +0.080 C 
ATOM     27  C   LIG    1        4.305   0.952   4.866  0.00  0.00    +0.230 C 
ATOM     28  N   LIG    1        3.672   0.593   6.140  0.00  0.00    -0.710 N 
ATOM     29  H   LIG    1        2.900   0.013   6.223  0.00  0.00    +0.420 HD
ENDBRANCH  19  27
ENDBRANCH   1  20
TORSDOF 4
