REMARK  Name = ZINCtV00000L6kld.0
REMARK                            x       y       z     vdW  Elec       q    Type
REMARK                         _______ _______ _______ _____ _____    ______ ____
ROOT
ATOM      1  N   LIG    1       -2.964   0.241   0.000  0.00  0.00    -0.470 N 
ATOM      2  C   LIG    1       -4.078  -0.491   0.357  0.00  0.00    +0.060 A 
ATOM      3  C   LIG    1       -5.324  -0.166   0.875  0.00  0.00    +0.010 A 
ATOM      4  C   LIG    1       -6.241  -1.165   1.127  0.00  0.00    +0.030 A 
ATOM      5  C   LIG    1       -5.926  -2.491   0.869  0.00  0.00    +0.000 A 
ATOM      6  C   LIG    1       -4.704  -2.830   0.359  0.00  0.00    +0.070 A 
ATOM      7  C   LIG    1       -3.759  -1.835   0.095  0.00  0.00    +0.040 A 
ATOM      8  N   LIG    1       -2.494  -1.852  -0.398  0.00  0.00    -0.460 NA
ATOM      9  C   LIG    1       -2.032  -0.637  -0.459  0.00  0.00    +0.280 A 
ENDROOT
BRANCH   1  10
ATOM     10  C   LIG    1       -2.816   1.696   0.092  0.00  0.00    +0.360 C 
BRANCH  10  17
ATOM     11  C   LIG    1       -5.535   2.396  -0.590  0.00  0.00    +0.090 C 
ATOM     12  C   LIG    1       -4.422   2.653  -1.573  0.00  0.00    -0.060 A 
ATOM     13  C   LIG    1       -4.700   3.228  -2.798  0.00  0.00    +0.010 A 
ATOM     14  C   LIG    1       -3.679   3.464  -3.699  0.00  0.00    +0.030 A 
ATOM     15  C   LIG    1       -2.379   3.124  -3.375  0.00  0.00    +0.010 A 
ATOM     16  C   LIG    1       -2.100   2.549  -2.150  0.00  0.00    +0.020 A 
ATOM     17  C   LIG    1       -3.120   2.318  -1.246  0.00  0.00    -0.120 A 
ENDBRANCH  10  17
ENDBRANCH   1  10
BRANCH   9  18
ATOM     18  C   LIG    1       -0.662  -0.258  -0.960  0.00  0.00    +0.330 C 
BRANCH  18  19
ATOM     19  O   LIG    1        0.234  -0.138   0.146  0.00  0.00    -0.300 OA
BRANCH  19  20
ATOM     20  C   LIG    1        1.496   0.283  -0.125  0.00  0.00    +0.150 A 
ATOM     21  C   LIG    1        1.865   0.567  -1.409  0.00  0.00    -0.090 A 
ATOM     22  C   LIG    1        3.153   1.005  -1.704  0.00  0.00    +0.060 A 
ATOM     23  C   LIG    1        4.086   1.153  -0.723  0.00  0.00    -0.010 A 
ATOM     24  C   LIG    1        3.748   0.867   0.611  0.00  0.00    -0.020 A 
ATOM     25  C   LIG    1        4.685   1.009   1.648  0.00  0.00    +0.010 A 
ATOM     26  C   LIG    1        4.321   0.723   2.928  0.00  0.00    +0.030 A 
ATOM     27  C   LIG    1        3.032   0.289   3.228  0.00  0.00    -0.010 A 
ATOM     28  C   LIG    1        2.097   0.141   2.248  0.00  0.00    +0.050 A 
ATOM     29  C   LIG    1        2.436   0.426   0.916  0.00  0.00    -0.070 A 
ENDBRANCH  19  20
ENDBRANCH  18  19
ENDBRANCH   9  18
TORSDOF 5
