REMARK  Name = ZINCtj00001LCZZy.0
REMARK                            x       y       z     vdW  Elec       q    Type
REMARK                         _______ _______ _______ _____ _____    ______ ____
ROOT
ATOM      1  O   LIG    1       -2.845   0.292  -5.223  0.00  0.00    -0.500 OA
ATOM      2  C   LIG    1       -3.779   0.926  -5.675  0.00  0.00    +0.570 C 
ATOM      3  N   LIG    1       -3.696   2.281  -5.754  0.00  0.00    -0.730 N 
ATOM      4  H   LIG    1       -4.414   2.792  -6.160  0.00  0.00    +0.400 HD
ATOM      5  C   LIG    1       -2.479   2.931  -5.250  0.00  0.00    +0.280 C 
ATOM      6  C   LIG    1       -2.761   3.726  -3.979  0.00  0.00    +0.240 C 
ATOM      7  N   LIG    1       -2.237   3.022  -2.811  0.00  0.00    -0.710 N 
ATOM      8  H   LIG    1       -1.519   3.437  -2.295  0.00  0.00    +0.400 HD
ATOM      9  C   LIG    1       -2.699   1.824  -2.413  0.00  0.00    +0.540 C 
ATOM     10  C   LIG    1       -2.075   1.148  -1.216  0.00  0.00    +0.090 C 
ATOM     11  C   LIG    1       -2.803   1.593   0.052  0.00  0.00    +0.260 C 
ATOM     12  N   LIG    1       -2.118   1.100   1.252  0.00  0.00    -0.500 N 
ATOM     13  C   LIG    1       -0.730   1.580   1.266  0.00  0.00    +0.240 C 
ATOM     14  C   LIG    1       -0.013   1.085   0.008  0.00  0.00    +0.270 C 
ATOM     15  H   LIG    1       -2.129   0.092   1.267  0.00  0.00    +0.430 HD
ATOM     16  H   LIG    1       -2.596   1.443   2.075  0.00  0.00    +0.440 HD
ATOM     17  C   LIG    1       -2.119  -0.370  -1.341  0.00  0.00    +0.060 C 
ATOM     18  C   LIG    1       -3.335  -0.843  -2.088  0.00  0.00    -0.040 C 
ATOM     19  C   LIG    1       -3.180  -1.638  -3.120  0.00  0.00    +0.000 C 
ATOM     20  C   LIG    1       -4.378  -2.114  -3.899  0.00  0.00    +0.250 C 
ATOM     21  O   LIG    1       -4.160  -1.851  -5.288  0.00  0.00    -0.310 OA
ATOM     22  C   LIG    1       -5.124  -1.160  -5.946  0.00  0.00    +0.150 A 
ATOM     23  C   LIG    1       -6.250  -1.813  -6.418  0.00  0.00    -0.010 A 
ATOM     24  C   LIG    1       -7.235  -1.111  -7.085  0.00  0.00    +0.050 A 
ATOM     25  C   LIG    1       -7.103   0.254  -7.282  0.00  0.00    +0.000 A 
ATOM     26  C   LIG    1       -5.989   0.920  -6.821  0.00  0.00    +0.050 A 
ATOM     27  O   LIG    1       -0.703   1.562  -1.146  0.00  0.00    -0.350 OA
ATOM     28  O   LIG    1       -3.616   1.302  -3.001  0.00  0.00    -0.460 OA
ATOM     29  C   LIG    1       -4.983   0.222  -6.151  0.00  0.00    -0.150 A 
ENDROOT
BRANCH   6  30
ATOM     30  C   LIG    1       -4.251   4.011  -3.816  0.00  0.00    -0.010 C 
ATOM     31  C   LIG    1       -4.737   5.228  -4.620  0.00  0.00    +0.010 C 
ATOM     32  C   LIG    1       -5.607   5.585  -3.403  0.00  0.00    +0.010 C 
ATOM     33  C   LIG    1       -4.590   4.812  -2.547  0.00  0.00    +0.010 C 
ENDBRANCH   6  30
TORSDOF 1
