REMARK  Name = ZINCb70000002kmF.2
REMARK                            x       y       z     vdW  Elec       q    Type
REMARK                         _______ _______ _______ _____ _____    ______ ____
ROOT
ATOM      1  C   LIG    1       -5.946   0.279  -3.712  0.00  0.00    +0.210 C 
ATOM      2  C   LIG    1       -4.762   0.226  -2.781  0.00  0.00    +0.310 A 
ATOM      3  N   LIG    1       -4.152   1.257  -2.255  0.00  0.00    -0.530 NA
ATOM      4  C   LIG    1       -3.149   0.843  -1.482  0.00  0.00    +0.210 A 
ATOM      5  N   LIG    1       -3.104  -0.464  -1.508  0.00  0.00    -0.320 NA
ATOM      6  N   LIG    1       -4.150  -0.888  -2.344  0.00  0.00    -0.470 N 
ATOM      7  H   LIG    1       -4.382  -1.804  -2.566  0.00  0.00    +0.450 HD
ENDROOT
BRANCH   4   8
ATOM      8  C   LIG    1       -2.214   1.735  -0.707  0.00  0.00    +0.130 C 
ATOM      9  C   LIG    1       -2.230   1.356   0.792  0.00  0.00    +0.080 C 
ATOM     10  C   LIG    1       -0.741   1.501   1.203  0.00  0.00    +0.280 C 
ATOM     11  N   LIG    1       -0.012   1.005   0.008  0.00  0.00    -0.520 N 
ATOM     12  H   LIG    1        0.930   1.366   0.001  0.00  0.00    +0.440 HD
ATOM     13  H   LIG    1        0.002  -0.004   0.002  0.00  0.00    +0.430 HD
ATOM     14  C   LIG    1       -0.761   1.511  -1.163  0.00  0.00    +0.280 C 
ENDBRANCH   4   8
TORSDOF 1
