REMARK  Name = ZINCb70000002kmF.0
REMARK                            x       y       z     vdW  Elec       q    Type
REMARK                         _______ _______ _______ _____ _____    ______ ____
ROOT
ATOM      1  C   LIG    1       -2.096   1.353  -4.538  0.00  0.00    +0.200 C 
ATOM      2  C   LIG    1       -1.687   1.731  -3.138  0.00  0.00    +0.240 A 
ATOM      3  N   LIG    1       -1.990   2.850  -2.534  0.00  0.00    -0.290 NA
ATOM      4  N   LIG    1       -1.417   2.788  -1.253  0.00  0.00    -0.480 N 
ATOM      5  H   LIG    1       -1.466   3.465  -0.560  0.00  0.00    +0.440 HD
ATOM      6  C   LIG    1       -0.783   1.605  -1.179  0.00  0.00    +0.270 A 
ATOM      7  N   LIG    1       -0.956   0.980  -2.315  0.00  0.00    -0.510 NA
ENDROOT
BRANCH   6   8
ATOM      8  C   LIG    1       -0.013   1.086   0.008  0.00  0.00    +0.130 C 
ATOM      9  C   LIG    1        1.426   1.641  -0.003  0.00  0.00    +0.100 C 
ATOM     10  C   LIG    1        1.554   2.451   1.306  0.00  0.00    +0.280 C 
ATOM     11  N   LIG    1        0.529   1.866   2.209  0.00  0.00    -0.520 N 
ATOM     12  H   LIG    1        0.283   2.522   2.934  0.00  0.00    +0.440 HD
ATOM     13  H   LIG    1        0.865   1.004   2.612  0.00  0.00    +0.440 HD
ATOM     14  C   LIG    1       -0.634   1.606   1.322  0.00  0.00    +0.280 C 
ENDBRANCH   6   8
TORSDOF 1
