REMARK  Name = ZINCb70000002kmF.1
REMARK                            x       y       z     vdW  Elec       q    Type
REMARK                         _______ _______ _______ _____ _____    ______ ____
ROOT
ATOM      1  C   LIG    1       -1.199  -0.914   0.009  0.00  0.00    +0.210 C 
ATOM      2  C   LIG    1        0.002  -0.004   0.002  0.00  0.00    +0.210 A 
ATOM      3  N   LIG    1       -0.016   1.301   0.009  0.00  0.00    -0.280 NA
ATOM      4  N   LIG    1        1.189   1.750   0.000  0.00  0.00    -0.260 NA
ATOM      5  C   LIG    1        2.030   0.752  -0.013  0.00  0.00    +0.150 A 
ATOM      6  N   LIG    1        1.301  -0.390  -0.013  0.00  0.00    -0.590 N 
ATOM      7  H   LIG    1        1.640  -1.298  -0.021  0.00  0.00    +0.420 HD
ENDROOT
BRANCH   5   8
ATOM      8  C   LIG    1        3.534   0.852  -0.027  0.00  0.00    +0.140 C 
ATOM      9  C   LIG    1        4.090   0.754   1.409  0.00  0.00    +0.100 C 
ATOM     10  C   LIG    1        4.990  -0.501   1.406  0.00  0.00    +0.280 C 
ATOM     11  N   LIG    1        5.378  -0.679  -0.017  0.00  0.00    -0.520 N 
ATOM     12  H   LIG    1        5.658  -1.633  -0.189  0.00  0.00    +0.440 HD
ATOM     13  H   LIG    1        6.122  -0.043  -0.262  0.00  0.00    +0.440 HD
ATOM     14  C   LIG    1        4.144  -0.352  -0.776  0.00  0.00    +0.280 C 
ENDBRANCH   5   8
TORSDOF 1
