REMARK  Name = ZINCqH0000004d9M.0
REMARK                            x       y       z     vdW  Elec       q    Type
REMARK                         _______ _______ _______ _____ _____    ______ ____
ROOT
ATOM      1  C   LIG    1        6.301   3.820  -3.431  0.00  0.00    +0.170 C 
ATOM      2  N   LIG    1        6.774   2.624  -2.713  0.00  0.00    -0.720 N 
ATOM      3  H   LIG    1        7.338   1.919  -3.069  0.00  0.00    +0.440 HD
ATOM      4  C   LIG    1        6.276   2.701  -1.466  0.00  0.00    +0.710 C 
ATOM      5  N   LIG    1        5.529   3.796  -1.281  0.00  0.00    -0.570 N 
ATOM      6  O   LIG    1        6.479   1.868  -0.604  0.00  0.00    -0.520 OA
ATOM      7  C   LIG    1        5.472   4.552  -2.395  0.00  0.00    +0.540 C 
ATOM      8  O   LIG    1        4.880   5.601  -2.538  0.00  0.00    -0.460 OA
ENDROOT
BRANCH   1   9
ATOM      9  C   LIG    1        5.450   3.428  -4.611  0.00  0.00    -0.110 A 
ATOM     10  C   LIG    1        5.324   4.287  -5.687  0.00  0.00    +0.080 A 
ATOM     11  C   LIG    1        4.547   3.927  -6.772  0.00  0.00    -0.010 A 
ATOM     12  C   LIG    1        3.887   2.710  -6.777  0.00  0.00    +0.110 A 
ATOM     13  C   LIG    1        4.010   1.853  -5.697  0.00  0.00    -0.010 A 
ATOM     14  F   LIG    1        3.124   2.359  -7.835  0.00  0.00    -0.130 F 
ATOM     15  C   LIG    1        4.791   2.213  -4.615  0.00  0.00    +0.060 A 
ENDBRANCH   1   9
BRANCH   1  17
ATOM     16  C   LIG    1        8.424   4.917  -2.701  0.00  0.00    +0.020 C 
ATOM     17  C   LIG    1        7.482   4.682  -3.883  0.00  0.00    +0.060 C 
ENDBRANCH   1  17
BRANCH   5  18
ATOM     18  C   LIG    1        4.862   4.134  -0.021  0.00  0.00    +0.350 C 
BRANCH  18  19
ATOM     19  C   LIG    1        3.455   3.531  -0.012  0.00  0.00    +0.200 C 
BRANCH  19  20
ATOM     20  O   LIG    1        3.549   2.105  -0.020  0.00  0.00    -0.300 OA
BRANCH  20  21
ATOM     21  C   LIG    1        2.380   1.410  -0.013  0.00  0.00    +0.140 A 
ATOM     22  C   LIG    1        1.170   2.087   0.002  0.00  0.00    -0.060 A 
ATOM     23  C   LIG    1       -0.017   1.379   0.010  0.00  0.00    +0.070 A 
ATOM     24  C   LIG    1        0.002  -0.004   0.002  0.00  0.00    -0.070 A 
ATOM     25  C   LIG    1        1.209  -0.681  -0.013  0.00  0.00    +0.070 A 
ATOM     26 CL   LIG    1       -1.490  -0.891   0.011  0.00  0.00    -0.070 Cl
ATOM     27  C   LIG    1        2.397   0.023  -0.020  0.00  0.00    +0.000 A 
ENDBRANCH  20  21
ENDBRANCH  19  20
ENDBRANCH  18  19
ENDBRANCH   5  18
TORSDOF 6
