REMARK  Name = ZINCpk00000y4MtL.0
REMARK                            x       y       z     vdW  Elec       q    Type
REMARK                         _______ _______ _______ _____ _____    ______ ____
ROOT
ATOM      1  C   LIG    1       -3.263   6.275  -1.285  0.00  0.00    +0.600 C 
ATOM      2  N   LIG    1       -2.256   5.379  -1.278  0.00  0.00    -0.610 N 
ATOM      3  C   LIG    1       -1.776   4.785  -2.533  0.00  0.00    +0.270 C 
ATOM      4  C   LIG    1       -1.794   3.259  -2.399  0.00  0.00    +0.040 C 
ATOM      5  C   LIG    1       -0.993   2.854  -1.160  0.00  0.00    +0.170 C 
ATOM      6  O   LIG    1       -0.969   1.431  -1.040  0.00  0.00    -0.380 OA
ATOM      7  C   LIG    1       -0.260   0.965   0.112  0.00  0.00    +0.220 C 
ATOM      8  C   LIG    1       -0.899   1.551   1.374  0.00  0.00    +0.150 C 
ATOM      9  N   LIG    1       -0.911   3.018   1.279  0.00  0.00    -0.530 NA
ATOM     10  C   LIG    1       -1.473   3.620   2.496  0.00  0.00    +0.200 C 
ATOM     11  C   LIG    1       -1.651   3.453   0.087  0.00  0.00    +0.100 C 
ATOM     12  C   LIG    1       -1.619   4.981  -0.015  0.00  0.00    +0.300 C 
ATOM     13  O   LIG    1       -3.730   6.673  -0.235  0.00  0.00    -0.530 OA
ENDROOT
BRANCH   1  16
ATOM     14  N   LIG    1       -3.960   7.382  -4.670  0.00  0.00    -0.290 N 
ATOM     15  C   LIG    1       -3.104   6.894  -3.752  0.00  0.00    +0.290 A 
ATOM     16  C   LIG    1       -3.799   6.772  -2.566  0.00  0.00    -0.250 A 
ATOM     17  C   LIG    1       -5.119   7.217  -2.806  0.00  0.00    +0.320 A 
ATOM     18  N   LIG    1       -5.203   7.577  -4.058  0.00  0.00    -0.250 NA
BRANCH  14  22
ATOM     19  C   LIG    1       -4.038   8.320  -8.095  0.00  0.00    +0.100 A 
ATOM     20  C   LIG    1       -2.754   7.995  -8.268  0.00  0.00    -0.060 A 
ATOM     21  S   LIG    1       -2.130   7.404  -6.731  0.00  0.00    +0.180 S 
ATOM     22  C   LIG    1       -3.657   7.651  -6.004  0.00  0.00    +0.260 A 
ATOM     23  N   LIG    1       -4.494   8.120  -6.875  0.00  0.00    -0.460 NA
BRANCH  19  25
ATOM     24  C   LIG    1       -6.148   7.998  -9.358  0.00  0.00    +0.030 C 
ATOM     25  C   LIG    1       -4.897   8.866  -9.207  0.00  0.00    +0.130 C 
ENDBRANCH  19  25
ENDBRANCH  14  22
ENDBRANCH   1  16
TORSDOF 3
