REMARK  Name = ZINCb70000003Zfr.0
REMARK                            x       y       z     vdW  Elec       q    Type
REMARK                         _______ _______ _______ _____ _____    ______ ____
ROOT
ATOM      1  C   LIG    1       -4.414   0.709   0.598  0.00  0.00    +0.100 C 
ATOM      2  C   LIG    1       -3.045   1.352   0.366  0.00  0.00    -0.430 C 
ATOM      3  C   LIG    1       -2.064   0.872   1.438  0.00  0.00    +0.100 C 
ATOM      4  C   LIG    1       -0.723   1.576   1.267  0.00  0.00    -0.030 C 
ATOM      5  C   LIG    1       -0.013   1.086   0.008  0.00  0.00    +0.070 C 
ATOM      6  C   LIG    1       -0.749   1.591  -1.235  0.00  0.00    -0.330 C 
ATOM      7  S   LIG    1       -2.416   0.870  -1.269  0.00  0.00    +2.420 S 
ATOM      8  O   LIG    1       -2.299  -0.545  -1.314  0.00  0.00    -0.920 OA
ATOM      9  O   LIG    1       -3.180   1.538  -2.264  0.00  0.00    -0.920 OA
ENDROOT
BRANCH   4  10
ATOM     10  C   LIG    1        0.155   1.285   2.486  0.00  0.00    +0.280 C 
BRANCH  10  11
ATOM     11  N   LIG    1        1.390   2.076   2.400  0.00  0.00    -0.640 N 
ATOM     12  H   LIG    1        1.968   1.884   3.204  0.00  0.00    +0.440 HD
ATOM     13  H   LIG    1        1.159   3.058   2.378  0.00  0.00    +0.440 HD
ATOM     14  H   LIG    1        1.890   1.829   1.560  0.00  0.00    +0.430 HD
ENDBRANCH  10  11
ENDBRANCH   4  10
TORSDOF 2
