REMARK  Name = ZINCtV00001bB3Tz.0
REMARK                            x       y       z     vdW  Elec       q    Type
REMARK                         _______ _______ _______ _____ _____    ______ ____
ROOT
ATOM      1  O   LIG    1       -4.773   5.009   2.289  0.00  0.00    -0.470 OA
ATOM      2  C   LIG    1       -3.850   4.475   2.874  0.00  0.00    +0.590 C 
ATOM      3  N   LIG    1       -2.760   4.075   2.189  0.00  0.00    -0.470 N 
ATOM      4  N   LIG    1       -2.528   4.267   0.822  0.00  0.00    -0.180 NA
ATOM      5  C   LIG    1       -1.343   3.924   0.449  0.00  0.00    +0.110 C 
ATOM      6  C   LIG    1       -0.796   3.793  -0.846  0.00  0.00    -0.070 C 
ATOM      7  C   LIG    1        0.510   3.090  -1.062  0.00  0.00    +0.090 C 
ATOM      8  C   LIG    1        1.254   2.754   0.214  0.00  0.00    +0.030 C 
ATOM      9  C   LIG    1        0.332   2.420   1.384  0.00  0.00    +0.050 C 
ATOM     10  C   LIG    1       -1.460   4.309  -1.907  0.00  0.00    +0.110 C 
ATOM     11  C   LIG    1       -0.510   3.658   1.700  0.00  0.00    +0.020 C 
ATOM     12  C   LIG    1       -1.594   3.353   2.749  0.00  0.00    +0.280 C 
ENDROOT
BRANCH   2  13
ATOM     13  C   LIG    1       -3.924   4.264   4.334  0.00  0.00    -0.170 A 
ATOM     14  C   LIG    1       -3.285   3.168   4.928  0.00  0.00    +0.130 A 
ATOM     15  C   LIG    1       -3.382   3.018   6.301  0.00  0.00    -0.030 A 
ATOM     16  C   LIG    1       -4.106   3.940   7.034  0.00  0.00    +0.310 A 
ATOM     17  N   LIG    1       -4.703   4.961   6.448  0.00  0.00    -0.480 NA
ATOM     18  C   LIG    1       -4.637   5.151   5.145  0.00  0.00    +0.230 A 
ATOM     19 CL   LIG    1       -5.444   6.512   4.431  0.00  0.00    +0.000 Cl
ENDBRANCH   2  13
BRANCH  10  20
ATOM     20  C   LIG    1       -2.620   5.173  -1.693  0.00  0.00    -0.180 A 
ATOM     21  C   LIG    1       -3.796   5.103  -2.385  0.00  0.00    +0.040 A 
ATOM     22  C   LIG    1       -4.740   6.025  -1.995  0.00  0.00    +0.000 A 
ATOM     23  C   LIG    1       -4.360   6.850  -1.012  0.00  0.00    -0.040 A 
ATOM     24  S   LIG    1       -2.718   6.472  -0.511  0.00  0.00    +0.160 S 
ENDBRANCH  10  20
BRANCH  12  25
ATOM     25  C   LIG    1       -1.213   3.907   4.098  0.00  0.00    -0.210 A 
ATOM     26  C   LIG    1       -0.693   3.198   5.101  0.00  0.00    +0.040 A 
ATOM     27  C   LIG    1       -0.419   3.923   6.247  0.00  0.00    +0.020 A 
ATOM     28  C   LIG    1       -0.724   5.220   6.178  0.00  0.00    -0.030 A 
ATOM     29  S   LIG    1       -1.391   5.585   4.592  0.00  0.00    +0.130 S 
ENDBRANCH  12  25
TORSDOF 3
