REMARK  Name = ZINCpe00000RaKmQ.0
REMARK                            x       y       z     vdW  Elec       q    Type
REMARK                         _______ _______ _______ _____ _____    ______ ____
ROOT
ATOM      1  N   LIG    1       -2.229  -4.885  -0.924  0.00  0.00    -0.670 N 
ATOM      2  H   LIG    1       -3.050  -5.385  -0.792  0.00  0.00    +0.420 HD
ATOM      3  C   LIG    1       -1.092  -5.529  -1.253  0.00  0.00    +0.690 C 
ATOM      4  N   LIG    1       -1.116  -6.855  -1.497  0.00  0.00    -0.600 N 
ATOM      5  C   LIG    1       -2.413  -7.518  -1.494  0.00  0.00    +0.260 C 
ATOM      6  C   LIG    1       -2.277  -8.901  -0.858  0.00  0.00    +0.040 C 
ATOM      7  C   LIG    1       -1.171  -9.662  -1.590  0.00  0.00    +0.040 C 
ATOM      8  C   LIG    1        0.179  -8.992  -1.338  0.00  0.00    +0.000 C 
ATOM      9  C   LIG    1        1.182  -9.590  -2.314  0.00  0.00    +0.520 C 
ATOM     10  N   LIG    1        1.320  -8.777  -3.377  0.00  0.00    -0.620 N 
ATOM     11  C   LIG    1        0.492  -7.570  -3.236  0.00  0.00    +0.250 C 
ATOM     12  C   LIG    1        2.184  -9.058  -4.527  0.00  0.00    +0.290 C 
ATOM     13  O   LIG    1        1.768 -10.641  -2.156  0.00  0.00    -0.520 OA
ATOM     14  C   LIG    1        0.142  -7.510  -1.736  0.00  0.00    +0.270 C 
ATOM     15  O   LIG    1       -0.046  -4.916  -1.329  0.00  0.00    -0.520 OA
ENDROOT
BRANCH   1  20
ATOM     16  C   LIG    1       -3.401  -1.442  -0.392  0.00  0.00    -0.060 A 
ATOM     17  C   LIG    1       -2.170  -0.784  -0.489  0.00  0.00    -0.040 A 
ATOM     18  C   LIG    1       -1.028  -1.524  -0.716  0.00  0.00    +0.300 A 
ATOM     19  N   LIG    1       -1.084  -2.835  -0.851  0.00  0.00    -0.460 NA
ATOM     20  C   LIG    1       -2.226  -3.499  -0.773  0.00  0.00    +0.380 A 
ATOM     21  C   LIG    1       -3.422  -2.830  -0.541  0.00  0.00    +0.000 A 
BRANCH  16  24
ATOM     22  C   LIG    1       -5.825   1.279   0.692  0.00  0.00    +0.300 C 
ATOM     23  N   LIG    1       -4.613   0.469   0.551  0.00  0.00    -0.610 N 
ATOM     24  C   LIG    1       -4.651  -0.685  -0.144  0.00  0.00    +0.560 C 
ATOM     25  O   LIG    1       -5.710  -1.105  -0.568  0.00  0.00    -0.520 OA
ATOM     26  C   LIG    1       -3.361   0.909   1.171  0.00  0.00    +0.300 C 
ENDBRANCH  16  24
ENDBRANCH   1  20
TORSDOF 2
