REMARK  Name = ZINCpe000027pGXA.0
REMARK                            x       y       z     vdW  Elec       q    Type
REMARK                         _______ _______ _______ _____ _____    ______ ____
ROOT
ATOM      1  C   LIG    1        2.201  -0.832   0.653  0.00  0.00    +0.550 C 
ATOM      2  N   LIG    1        0.883  -0.735   0.918  0.00  0.00    -0.710 N 
ATOM      3  H   LIG    1        0.517  -1.148   1.716  0.00  0.00    +0.410 HD
ATOM      4  O   LIG    1        2.660  -0.314  -0.348  0.00  0.00    -0.540 OA
ENDROOT
BRANCH   1   6
ATOM      5  C   LIG    1        4.399  -1.658   1.306  0.00  0.00    +0.120 C 
ATOM      6  C   LIG    1        3.082  -1.561   1.571  0.00  0.00    -0.070 C 
BRANCH   5  10
ATOM      7  C   LIG    1        6.950  -3.769   3.965  0.00  0.00    -0.120 A 
ATOM      8  C   LIG    1        7.478  -3.175   2.815  0.00  0.00    +0.080 A 
ATOM      9  C   LIG    1        6.652  -2.491   1.953  0.00  0.00    +0.030 A 
ATOM     10  C   LIG    1        5.284  -2.390   2.228  0.00  0.00    -0.040 A 
ATOM     11  C   LIG    1        4.757  -2.981   3.381  0.00  0.00    +0.020 A 
ATOM     12  C   LIG    1        5.584  -3.669   4.240  0.00  0.00    +0.080 A 
BRANCH   7  13
ATOM     13  C   LIG    1        7.838  -4.503   4.891  0.00  0.00    +0.510 C 
ATOM     14  O   LIG    1        9.026  -4.589   4.652  0.00  0.00    -0.500 OA
BRANCH  13  16
ATOM     15  C   LIG    1        8.261  -5.779   6.863  0.00  0.00    +0.290 C 
ATOM     16  O   LIG    1        7.330  -5.075   5.999  0.00  0.00    -0.350 OA
ENDBRANCH  13  16
ENDBRANCH   7  13
ENDBRANCH   5  10
ENDBRANCH   1   6
BRANCH   2  17
ATOM     17  C   LIG    1        0.003  -0.007   0.001  0.00  0.00    +0.240 C 
ATOM     18  C   LIG    1        0.032   1.484   0.343  0.00  0.00    +0.060 C 
BRANCH  17  19
ATOM     19  C   LIG    1       -1.405  -0.526   0.137  0.00  0.00    +0.520 C 
ATOM     20  N   LIG    1       -2.307  -0.293  -0.838  0.00  0.00    -0.610 N 
ATOM     21  C   LIG    1       -1.915   0.380  -2.087  0.00  0.00    +0.260 C 
ATOM     22  C   LIG    1       -2.418  -0.469  -3.266  0.00  0.00    +0.220 C 
ATOM     23  O   LIG    1       -3.814  -0.727  -3.095  0.00  0.00    -0.380 OA
ATOM     24  C   LIG    1       -4.130  -1.488  -1.927  0.00  0.00    +0.220 C 
ATOM     25  C   LIG    1       -3.713  -0.697  -0.681  0.00  0.00    +0.260 C 
ATOM     26  O   LIG    1       -1.727  -1.155   1.123  0.00  0.00    -0.530 OA
ENDBRANCH  17  19
ENDBRANCH   2  17
TORSDOF 6
