REMARK  Name = ZINCqH0000006Gfr.0
REMARK                            x       y       z     vdW  Elec       q    Type
REMARK                         _______ _______ _______ _____ _____    ______ ____
ROOT
ATOM      1  C   LIG    1       -0.408   3.177   1.856  0.00  0.00    +0.120 A 
ATOM      2  C   LIG    1        0.003   3.939   0.780  0.00  0.00    +0.010 A 
ATOM      3  C   LIG    1       -0.137   5.329   0.816  0.00  0.00    -0.090 A 
ATOM      4  C   LIG    1       -0.692   5.942   1.942  0.00  0.00    +0.040 A 
ATOM      5  C   LIG    1       -1.100   5.177   3.013  0.00  0.00    -0.030 A 
ATOM      6 CL   LIG    1       -1.790   5.941   4.411  0.00  0.00    -0.040 Cl
ATOM      7  C   LIG    1       -0.966   3.795   2.974  0.00  0.00    +0.100 A 
ENDROOT
BRANCH   3   8
ATOM      8  C   LIG    1        0.302   6.147  -0.331  0.00  0.00    +0.560 C 
ATOM      9  N   LIG    1       -0.432   7.207  -0.723  0.00  0.00    -0.600 N 
ATOM     10  C   LIG    1       -1.606   7.612   0.055  0.00  0.00    +0.290 C 
ATOM     11  O   LIG    1        1.325   5.864  -0.924  0.00  0.00    -0.530 OA
BRANCH   9  12
ATOM     12  C   LIG    1       -0.056   7.955  -1.925  0.00  0.00    +0.220 C 
ATOM     13  C   LIG    1        0.244   9.402  -1.544  0.00  0.00    +0.070 C 
ATOM     14  C   LIG    1        0.898  10.127  -2.723  0.00  0.00    -0.230 C 
ATOM     15  S   LIG    1       -0.279  10.176  -4.107  0.00  0.00    +1.240 S 
ATOM     16  C   LIG    1       -0.729   8.424  -4.290  0.00  0.00    -0.230 C 
ATOM     17  O   LIG    1        0.389  10.619  -5.281  0.00  0.00    -0.850 OA
ATOM     18  C   LIG    1       -1.198   7.890  -2.935  0.00  0.00    +0.070 C 
ENDBRANCH   9  12
ENDBRANCH   3   8
BRANCH   1  20
ATOM     19  C   LIG    1        0.302   1.259   0.643  0.00  0.00    +0.250 C 
ATOM     20  O   LIG    1       -0.273   1.825   1.823  0.00  0.00    -0.300 OA
ENDBRANCH   1  20
BRANCH   7  21
ATOM     21  O   LIG    1       -1.376   3.044   4.029  0.00  0.00    -0.310 OA
BRANCH  21  22
ATOM     22  C   LIG    1       -0.414   2.787   5.055  0.00  0.00    +0.180 C 
BRANCH  22  23
ATOM     23  C   LIG    1       -1.053   1.933   6.151  0.00  0.00    +0.030 C 
BRANCH  23  24
ATOM     24  C   LIG    1       -0.024   1.658   7.249  0.00  0.00    -0.020 C 
ATOM     25  C   LIG    1        1.112   0.805   6.681  0.00  0.00    +0.020 C 
ATOM     26  C   LIG    1       -0.696   0.911   8.403  0.00  0.00    +0.030 C 
ENDBRANCH  23  24
ENDBRANCH  22  23
ENDBRANCH  21  22
ENDBRANCH   7  21
TORSDOF 7
