REMARK  Name = ZINCqH00000368aV.0
REMARK                            x       y       z     vdW  Elec       q    Type
REMARK                         _______ _______ _______ _____ _____    ______ ____
ROOT
ATOM      1  C   LIG    1        0.612   7.574  -0.807  0.00  0.00    +0.270 C 
ATOM      2  C   LIG    1       -0.908   7.774  -0.622  0.00  0.00    +0.050 C 
ATOM      3  C   LIG    1       -1.305   6.586   0.294  0.00  0.00    +0.040 C 
ATOM      4  C   LIG    1       -0.362   5.468  -0.223  0.00  0.00    +0.260 C 
ATOM      5  N   LIG    1        0.902   6.159  -0.536  0.00  0.00    -0.600 N 
ATOM      6  C   LIG    1        2.122   5.587  -0.572  0.00  0.00    +0.590 C 
ATOM      7  O   LIG    1        3.099   6.255  -0.848  0.00  0.00    -0.490 OA
ENDROOT
BRANCH   6   8
ATOM      8  C   LIG    1        2.272   4.142  -0.276  0.00  0.00    +0.090 A 
ATOM      9  C   LIG    1        3.512   3.596  -0.321  0.00  0.00    -0.040 A 
ATOM     10  C   LIG    1        3.649   2.156  -0.042  0.00  0.00    +0.420 A 
ATOM     11  C   LIG    1        2.394   1.378  -0.021  0.00  0.00    -0.220 A 
ATOM     12  C   LIG    1        2.400  -0.015  -0.025  0.00  0.00    +0.110 A 
ATOM     13  C   LIG    1        1.203  -0.699  -0.014  0.00  0.00    -0.010 A 
ATOM     14  C   LIG    1        0.002  -0.004   0.002  0.00  0.00    +0.090 A 
ATOM     15  C   LIG    1       -0.017   1.374   0.010  0.00  0.00    +0.000 A 
ATOM     16  C   LIG    1        1.179   2.085   0.002  0.00  0.00    +0.140 A 
ATOM     17  O   LIG    1        4.733   1.638   0.160  0.00  0.00    -0.440 OA
ATOM     18  O   LIG    1        1.177   3.432   0.025  0.00  0.00    -0.220 OA
ENDBRANCH   6   8
BRANCH   1  22
ATOM     19  C   LIG    1        1.727   8.545  -4.816  0.00  0.00    +0.130 A 
ATOM     20  C   LIG    1        1.944   9.457  -3.795  0.00  0.00    -0.020 A 
ATOM     21  C   LIG    1        1.583   9.141  -2.499  0.00  0.00    +0.070 A 
ATOM     22  C   LIG    1        1.005   7.917  -2.221  0.00  0.00    -0.130 A 
ATOM     23  C   LIG    1        0.792   7.003  -3.237  0.00  0.00    +0.060 A 
ATOM     24  C   LIG    1        1.146   7.317  -4.535  0.00  0.00    -0.080 A 
BRANCH  19  26
ATOM     25  C   LIG    1        1.827   7.866  -7.093  0.00  0.00    +0.250 C 
ATOM     26  O   LIG    1        2.081   8.854  -6.092  0.00  0.00    -0.320 OA
ENDBRANCH  19  26
ENDBRANCH   1  22
TORSDOF 3
