REMARK  Name = ZINCrg000009MBZn.0
REMARK                            x       y       z     vdW  Elec       q    Type
REMARK                         _______ _______ _______ _____ _____    ______ ____
ROOT
ATOM      1  C   LIG    1       -2.287   0.856   1.098  0.00  0.00    +0.210 C 
ATOM      2  C   LIG    1       -3.556   0.874   0.272  0.00  0.00    +0.220 C 
ATOM      3  O   LIG    1       -3.818   2.211  -0.133  0.00  0.00    -0.380 OA
ATOM      4  C   LIG    1       -3.250   2.691  -1.295  0.00  0.00    +0.220 C 
ATOM      5  C   LIG    1       -1.709   2.703  -1.150  0.00  0.00    +0.260 C 
ATOM      6  N   LIG    1       -1.217   1.339  -1.088  0.00  0.00    -0.600 N 
ATOM      7  C   LIG    1       -0.872   0.722  -2.236  0.00  0.00    +0.550 C 
ATOM      8  O   LIG    1       -1.067   1.269  -3.301  0.00  0.00    -0.490 OA
ATOM      9  C   LIG    1       -1.080   0.603   0.182  0.00  0.00    +0.280 C 
ENDROOT
BRANCH   7  10
ATOM     10  C   LIG    1       -0.245  -0.648  -2.196  0.00  0.00    +0.050 C 
ATOM     11  S   LIG    1        1.195  -0.624  -1.089  0.00  0.00    -0.190 S 
ATOM     12  C   LIG    1        1.849  -2.308  -1.242  0.00  0.00    +0.110 C 
ATOM     13  C   LIG    1        2.291  -2.572  -2.677  0.00  0.00    +0.050 C 
ATOM     14  C   LIG    1        1.084  -2.727  -3.595  0.00  0.00    +0.090 C 
ATOM     15  S   LIG    1        0.295  -1.117  -3.864  0.00  0.00    -0.140 S 
ENDBRANCH   7  10
BRANCH   1  17
ATOM     16  C   LIG    1       -2.986   0.018   3.276  0.00  0.00    +0.510 C 
ATOM     17  N   LIG    1       -2.373  -0.211   2.098  0.00  0.00    -0.720 N 
ATOM     18  H   LIG    1       -1.988  -1.082   1.913  0.00  0.00    +0.410 HD
ATOM     19  O   LIG    1       -3.467   1.107   3.508  0.00  0.00    -0.520 OA
BRANCH  16  20
ATOM     20  C   LIG    1       -3.074  -1.079   4.306  0.00  0.00    +0.300 C 
BRANCH  20  22
ATOM     21  C   LIG    1       -3.981  -1.396   6.545  0.00  0.00    +0.520 C 
ATOM     22  N   LIG    1       -3.782  -0.583   5.488  0.00  0.00    -0.720 N 
ATOM     23  H   LIG    1       -4.108   0.330   5.511  0.00  0.00    +0.410 HD
ATOM     24  O   LIG    1       -3.573  -2.538   6.517  0.00  0.00    -0.530 OA
BRANCH  21  25
ATOM     25  C   LIG    1       -4.709  -0.886   7.762  0.00  0.00    +0.070 C 
BRANCH  25  27
ATOM     26  C   LIG    1       -3.389  -2.441   9.204  0.00  0.00    +0.030 C 
ATOM     27  C   LIG    1       -4.799  -2.000   8.807  0.00  0.00    -0.050 C 
ATOM     28  C   LIG    1       -5.559  -3.191   8.219  0.00  0.00    +0.030 C 
ATOM     29  C   LIG    1       -5.538  -1.482  10.042  0.00  0.00    +0.040 C 
ENDBRANCH  25  27
ENDBRANCH  21  25
ENDBRANCH  20  22
ENDBRANCH  16  20
ENDBRANCH   1  17
TORSDOF 6
