REMARK  Name = ZINCb80000002z30.0
REMARK                            x       y       z     vdW  Elec       q    Type
REMARK                         _______ _______ _______ _____ _____    ______ ____
ROOT
ATOM      1  C   LIG    1        0.492   3.599   0.016  0.00  0.00    -0.030 A 
ATOM      2  N   LIG    1       -0.807   3.427   0.027  0.00  0.00    -0.280 NA
ATOM      3  O   LIG    1       -1.106   2.256   0.019  0.00  0.00    +0.170 OA
ATOM      4  C   LIG    1       -0.018   1.463   0.010  0.00  0.00    -0.130 A 
ATOM      5  C   LIG    1        1.067   2.300   0.004  0.00  0.00    +0.100 A 
ENDROOT
BRANCH   1   6
ATOM      6  C   LIG    1        1.217   4.892   0.015  0.00  0.00    +0.550 C 
ATOM      7  O   LIG    1        2.431   4.907   0.003  0.00  0.00    -0.480 OA
BRANCH   6   9
ATOM      8  C   LIG    1        1.305   7.277   0.026  0.00  0.00    +0.290 C 
ATOM      9  O   LIG    1        0.529   6.050   0.028  0.00  0.00    -0.340 OA
ENDBRANCH   6   9
ENDBRANCH   1   6
BRANCH   4  10
ATOM     10  C   LIG    1        0.002  -0.004   0.002  0.00  0.00    +0.570 C 
ATOM     11  O   LIG    1        1.061  -0.596  -0.011  0.00  0.00    -0.420 OA
ENDBRANCH   4  10
TORSDOF 3
