REMARK  Name = ZINCrD0000075gr3.0
REMARK                            x       y       z     vdW  Elec       q    Type
REMARK                         _______ _______ _______ _____ _____    ______ ____
ROOT
ATOM      1  C   LIG    1        3.744  -0.963   0.178  0.00  0.00    +0.270 C 
ENDROOT
BRANCH   1   3
ATOM      2  N   LIG    1        2.402   1.106  -0.015  0.00  0.00    -0.570 N 
ATOM      3  C   LIG    1        2.426  -0.238   0.080  0.00  0.00    +0.520 C 
ATOM      4  O   LIG    1        1.387  -0.864   0.087  0.00  0.00    -0.490 OA
BRANCH   2   5
ATOM      5  C   LIG    1        1.180   1.787  -0.003  0.00  0.00    +0.130 A 
ATOM      6  C   LIG    1        0.405   1.807   1.149  0.00  0.00    +0.020 A 
ATOM      7  C   LIG    1       -0.803   2.475   1.156  0.00  0.00    +0.020 A 
ATOM      8  C   LIG    1       -1.237   3.134   0.020  0.00  0.00    +0.020 A 
ATOM      9  C   LIG    1       -0.468   3.115  -1.130  0.00  0.00    +0.020 A 
ATOM     10  C   LIG    1        0.739   2.444  -1.144  0.00  0.00    +0.010 A 
ENDBRANCH   2   5
BRANCH   2  11
ATOM     11  C   LIG    1        3.656   1.855  -0.129  0.00  0.00    +0.310 C 
BRANCH  11  12
ATOM     12  C   LIG    1        4.163   2.218   1.268  0.00  0.00    +0.180 C 
BRANCH  12  14
ATOM     13  N   LIG    1        6.396   3.551   1.064  0.00  0.00    -0.410 NA
ATOM     14  C   LIG    1        5.423   2.970   1.153  0.00  0.00    +0.200 C 
ENDBRANCH  12  14
ENDBRANCH  11  12
ENDBRANCH   2  11
ENDBRANCH   1   3
BRANCH   1  15
ATOM     15  O   LIG    1        3.504  -2.392   0.269  0.00  0.00    -0.320 OA
BRANCH  15  16
ATOM     16  C   LIG    1        4.586  -3.189   0.363  0.00  0.00    +0.510 C 
ATOM     17  O   LIG    1        5.699  -2.703   0.369  0.00  0.00    -0.460 OA
BRANCH  16  18
ATOM     18  C   LIG    1        4.419  -4.653   0.459  0.00  0.00    -0.070 A 
ATOM     19  C   LIG    1        3.140  -5.214   0.459  0.00  0.00    +0.140 A 
ATOM     20  C   LIG    1        2.991  -6.583   0.545  0.00  0.00    +0.110 A 
ATOM     21  C   LIG    1        4.104  -7.399   0.641  0.00  0.00    +0.000 A 
ATOM     22  C   LIG    1        5.374  -6.851   0.647  0.00  0.00    +0.120 A 
ATOM     23  C   LIG    1        5.539  -5.483   0.557  0.00  0.00    +0.010 A 
ATOM     24 CL   LIG    1        7.133  -4.796   0.566  0.00  0.00    +0.010 Cl
BRANCH  21  25
ATOM     25  N   LIG    1        3.935  -8.867   0.738  0.00  0.00    +0.020 N 
ATOM     26  O   LIG    1        2.818  -9.353   0.732  0.00  0.00    -0.140 OA
ATOM     27  O   LIG    1        4.913  -9.588   0.823  0.00  0.00    -0.140 OA
ENDBRANCH  21  25
ENDBRANCH  16  18
ENDBRANCH  15  16
ENDBRANCH   1  15
TORSDOF 9
