REMARK  Name = ZINCAx0000000guy.0
REMARK                            x       y       z     vdW  Elec       q    Type
REMARK                         _______ _______ _______ _____ _____    ______ ____
ROOT
ATOM      1  O   LIG    1        3.440   3.398  -0.366  0.00  0.00    -0.530 OA
ATOM      2  C   LIG    1        2.415   3.939   0.001  0.00  0.00    +0.600 C 
ATOM      3  N   LIG    1        2.440   5.222   0.413  0.00  0.00    -0.630 N 
ATOM      4  C   LIG    1        1.476   6.164   1.000  0.00  0.00    +0.270 C 
ATOM      5  C   LIG    1        2.665   6.885   1.655  0.00  0.00    +0.180 C 
ATOM      6  C   LIG    1        3.442   6.296   0.470  0.00  0.00    +0.320 C 
ENDROOT
BRANCH   2   7
ATOM      7  C   LIG    1        1.143   3.191  -0.006  0.00  0.00    -0.120 A 
ATOM      8  C   LIG    1        1.135   1.824  -0.299  0.00  0.00    +0.090 A 
ATOM      9  C   LIG    1       -0.053   1.129  -0.304  0.00  0.00    +0.010 A 
ATOM     10  C   LIG    1       -1.246   1.787  -0.023  0.00  0.00    +0.160 A 
ATOM     11  C   LIG    1       -1.242   3.146   0.276  0.00  0.00    +0.010 A 
ATOM     12  C   LIG    1       -0.057   3.847   0.282  0.00  0.00    +0.060 A 
BRANCH  10  13
ATOM     13  N   LIG    1       -2.449   1.081  -0.034  0.00  0.00    -0.570 N 
ATOM     14  C   LIG    1       -2.893   0.468   1.212  0.00  0.00    +0.260 C 
ATOM     15  C   LIG    1       -4.392   0.165   1.153  0.00  0.00    +0.030 C 
ATOM     16  C   LIG    1       -4.682  -0.613  -0.137  0.00  0.00    +0.020 C 
ATOM     17  C   LIG    1       -4.447   0.319  -1.328  0.00  0.00    +0.070 C 
ATOM     18  C   LIG    1       -3.118   1.005  -1.185  0.00  0.00    +0.520 C 
ATOM     19  O   LIG    1       -2.628   1.516  -2.169  0.00  0.00    -0.540 OA
ENDBRANCH  10  13
ENDBRANCH   2   7
BRANCH   5  20
ATOM     20  C   LIG    1        3.069   6.328   2.996  0.00  0.00    -0.040 A 
ATOM     21  C   LIG    1        3.570   7.022   4.045  0.00  0.00    +0.150 A 
ATOM     22  N   LIG    1        3.781   6.118   5.029  0.00  0.00    -0.280 N 
ATOM     23  N   LIG    1        3.436   4.958   4.592  0.00  0.00    -0.050 NA
ATOM     24  N   LIG    1        3.007   5.049   3.383  0.00  0.00    -0.250 NA
BRANCH  22  25
ATOM     25  C   LIG    1        4.316   6.410   6.361  0.00  0.00    +0.410 C 
BRANCH  25  26
ATOM     26  C   LIG    1        3.365   5.892   7.409  0.00  0.00    -0.100 A 
ATOM     27  C   LIG    1        2.437   6.721   7.958  0.00  0.00    +0.060 A 
ATOM     28  C   LIG    1        1.547   6.263   8.928  0.00  0.00    +0.000 A 
ATOM     29  C   LIG    1        1.583   4.970   9.354  0.00  0.00    +0.060 A 
ATOM     30  C   LIG    1        2.528   4.086   8.810  0.00  0.00    -0.110 A 
ATOM     31  C   LIG    1        2.598   2.743   9.222  0.00  0.00    +0.090 A 
ATOM     32  C   LIG    1        3.543   1.940   8.649  0.00  0.00    -0.030 A 
ATOM     33  C   LIG    1        4.404   2.460   7.684  0.00  0.00    +0.300 A 
ATOM     34  N   LIG    1        4.336   3.713   7.303  0.00  0.00    -0.460 NA
ATOM     35  C   LIG    1        3.430   4.549   7.819  0.00  0.00    +0.150 A 
ENDBRANCH  25  26
ENDBRANCH  22  25
ENDBRANCH   5  20
BRANCH   5  36
ATOM     36  O   LIG    1        2.568   8.311   1.642  0.00  0.00    -0.530 OA
ATOM     37  H   LIG    1        2.078   8.678   2.391  0.00  0.00    +0.390 HD
ENDBRANCH   5  36
TORSDOF 6
