REMARK  Name = ZINCpk000004MjzZ.0
REMARK                            x       y       z     vdW  Elec       q    Type
REMARK                         _______ _______ _______ _____ _____    ______ ____
ROOT
ATOM      1  C   LIG    1       -0.788   3.123  -1.209  0.00  0.00    +0.240 C 
ATOM      2  C   LIG    1       -1.465   3.591   0.082  0.00  0.00    +0.040 C 
ATOM      3  C   LIG    1       -0.705   3.026   1.284  0.00  0.00    +0.210 C 
ATOM      4  N   LIG    1       -0.700   1.559   1.216  0.00  0.00    -0.460 N 
ATOM      5  C   LIG    1       -0.013   1.086   0.008  0.00  0.00    +0.210 C 
ATOM      6  C   LIG    1       -0.752   1.593  -1.232  0.00  0.00    +0.170 C 
ENDROOT
BRANCH   4   7
ATOM      7  C   LIG    1       -0.134   1.012   2.354  0.00  0.00    +0.410 A 
ATOM      8  C   LIG    1       -0.633   1.327   3.628  0.00  0.00    -0.220 A 
ATOM      9  C   LIG    1       -1.711   2.172   4.138  0.00  0.00    -0.010 A 
ATOM     10  C   LIG    1       -1.693   2.058   5.476  0.00  0.00    +0.230 A 
ATOM     11  N   LIG    1       -0.688   1.207   5.857  0.00  0.00    -0.570 N 
ATOM     12  H   LIG    1       -0.478   0.968   6.773  0.00  0.00    +0.420 HD
ATOM     13  C   LIG    1       -0.023   0.744   4.754  0.00  0.00    +0.330 A 
ATOM     14  N   LIG    1        1.004  -0.083   4.566  0.00  0.00    -0.550 NA
ATOM     15  C   LIG    1        1.439  -0.349   3.353  0.00  0.00    +0.540 A 
ATOM     16  N   LIG    1        0.892   0.171   2.269  0.00  0.00    -0.580 NA
ENDBRANCH   4   7
BRANCH   1  18
ATOM     17  C   LIG    1       -1.311   4.848  -2.849  0.00  0.00    +0.530 C 
ATOM     18  N   LIG    1       -1.546   3.612  -2.364  0.00  0.00    -0.720 N 
ATOM     19  H   LIG    1       -2.216   3.047  -2.779  0.00  0.00    +0.400 HD
ATOM     20  O   LIG    1       -0.474   5.555  -2.330  0.00  0.00    -0.540 OA
BRANCH  17  24
ATOM     21  C   LIG    1       -3.239   6.427  -6.502  0.00  0.00    +0.050 C 
ATOM     22  C   LIG    1       -1.828   6.256  -5.934  0.00  0.00    -0.090 C 
ATOM     23  C   LIG    1       -1.680   6.762  -4.490  0.00  0.00    +0.060 C 
ATOM     24  C   LIG    1       -2.090   5.351  -4.037  0.00  0.00    -0.030 C 
ATOM     25  C   LIG    1       -0.741   6.772  -6.879  0.00  0.00    +0.040 C 
ATOM     26  C   LIG    1       -1.553   4.845  -5.386  0.00  0.00    +0.060 C 
ENDBRANCH  17  24
ENDBRANCH   1  18
BRANCH   6  27
ATOM     27  O   LIG    1       -0.072   1.149  -2.408  0.00  0.00    -0.550 OA
ATOM     28  H   LIG    1       -0.009   0.187  -2.487  0.00  0.00    +0.380 HD
ENDBRANCH   6  27
TORSDOF 4
