REMARK  Name = ZINCrH000004oQCa.0
REMARK                            x       y       z     vdW  Elec       q    Type
REMARK                         _______ _______ _______ _____ _____    ______ ____
ROOT
ATOM      1  C   LIG    1        1.722   0.557  -6.684  0.00  0.00    -0.010 C 
ATOM      2  C   LIG    1        1.241   2.005  -6.553  0.00  0.00    +0.050 C 
ATOM      3  C   LIG    1        2.050   2.893  -7.500  0.00  0.00    +0.190 C 
ATOM      4  N   LIG    1        1.881   2.424  -8.881  0.00  0.00    -0.480 N 
ATOM      5  C   LIG    1        2.380   1.052  -9.041  0.00  0.00    +0.200 C 
ATOM      6  C   LIG    1        1.580   0.108  -8.141  0.00  0.00    +0.050 C 
ENDROOT
BRANCH   4   7
ATOM      7  C   LIG    1        2.492   3.279  -9.773  0.00  0.00    +0.400 A 
ATOM      8  N   LIG    1        3.772   3.133 -10.089  0.00  0.00    -0.560 NA
ATOM      9  C   LIG    1        4.369   3.944 -10.948  0.00  0.00    +0.520 A 
ATOM     10  N   LIG    1        3.753   4.943 -11.533  0.00  0.00    -0.510 NA
ATOM     11  C   LIG    1        2.457   5.185 -11.281  0.00  0.00    +0.130 A 
ATOM     12  C   LIG    1        1.766   6.244 -11.889  0.00  0.00    +0.110 A 
ATOM     13  C   LIG    1        0.448   6.443 -11.596  0.00  0.00    +0.040 A 
ATOM     14  C   LIG    1       -0.222   5.612 -10.703  0.00  0.00    +0.040 A 
ATOM     15  C   LIG    1        0.421   4.574 -10.095  0.00  0.00    +0.080 A 
ATOM     16  F   LIG    1        2.401   7.060 -12.758  0.00  0.00    -0.120 F 
ATOM     17  C   LIG    1        1.772   4.341 -10.373  0.00  0.00    -0.130 A 
ENDBRANCH   4   7
BRANCH   1  18
ATOM     18  C   LIG    1        0.875  -0.346  -5.785  0.00  0.00    +0.200 C 
BRANCH  18  22
ATOM     19  C   LIG    1        0.994   0.892  -2.417  0.00  0.00    +0.200 A 
ATOM     20  N   LIG    1        1.959   0.022  -2.436  0.00  0.00    -0.380 NA
ATOM     21  O   LIG    1        2.038  -0.494  -3.531  0.00  0.00    +0.080 OA
ATOM     22  C   LIG    1        1.108   0.019  -4.342  0.00  0.00    +0.180 A 
ATOM     23  N   LIG    1        0.438   0.903  -3.642  0.00  0.00    -0.470 NA
BRANCH  19  27
ATOM     24  C   LIG    1       -1.002   1.661   0.842  0.00  0.00    +0.070 C 
ATOM     25  C   LIG    1        0.114   1.010   0.022  0.00  0.00    -0.020 C 
ATOM     26  C   LIG    1        1.474   1.711  -0.001  0.00  0.00    +0.060 C 
ATOM     27  C   LIG    1        0.578   1.737  -1.241  0.00  0.00    +0.060 C 
ENDBRANCH  19  27
ENDBRANCH  18  22
ENDBRANCH   1  18
TORSDOF 4
