REMARK  Name = ZINCrD000000CC19.0
REMARK                            x       y       z     vdW  Elec       q    Type
REMARK                         _______ _______ _______ _____ _____    ______ ____
ROOT
ATOM      1  O   LIG    1        5.140   4.267   2.831  0.00  0.00    -0.530 OA
ATOM      2  C   LIG    1        5.088   5.261   2.133  0.00  0.00    +0.570 C 
ATOM      3  N   LIG    1        3.944   5.576   1.494  0.00  0.00    -0.610 N 
ATOM      4  C   LIG    1        2.784   4.673   1.527  0.00  0.00    +0.270 C 
ATOM      5  C   LIG    1        1.550   5.485   1.937  0.00  0.00    +0.220 C 
ATOM      6  O   LIG    1        1.438   6.631   1.090  0.00  0.00    -0.370 OA
ATOM      7  C   LIG    1        2.536   7.541   1.189  0.00  0.00    +0.200 C 
ATOM      8  C   LIG    1        3.820   6.835   0.740  0.00  0.00    +0.270 C 
ENDROOT
BRANCH   2   9
ATOM      9  C   LIG    1        6.276   6.123   1.987  0.00  0.00    -0.140 A 
ATOM     10  C   LIG    1        6.508   6.799   0.786  0.00  0.00    +0.060 A 
ATOM     11  C   LIG    1        7.615   7.606   0.654  0.00  0.00    +0.000 A 
ATOM     12  C   LIG    1        8.510   7.741   1.710  0.00  0.00    +0.100 A 
ATOM     13  C   LIG    1        8.286   7.064   2.908  0.00  0.00    +0.070 A 
ATOM     14  F   LIG    1        9.158   7.198   3.932  0.00  0.00    -0.130 F 
ATOM     15  C   LIG    1        7.177   6.260   3.048  0.00  0.00    +0.080 A 
BRANCH  12  16
ATOM     16  N   LIG    1        9.631   8.555   1.571  0.00  0.00    -0.470 N 
ATOM     17  C   LIG    1        9.574   9.327   0.303  0.00  0.00    +0.180 C 
ATOM     18  C   LIG    1       10.552  10.502   0.560  0.00  0.00    +0.030 C 
ATOM     19  C   LIG    1       10.306  10.837   2.049  0.00  0.00    +0.020 C 
ATOM     20  C   LIG    1        9.695   9.560   2.653  0.00  0.00    +0.190 C 
ENDBRANCH  12  16
ENDBRANCH   2   9
BRANCH   7  21
ATOM     21  C   LIG    1        2.282   8.734   0.303  0.00  0.00    -0.070 A 
ATOM     22  C   LIG    1        1.621   8.572  -0.900  0.00  0.00    +0.030 A 
ATOM     23  C   LIG    1        1.387   9.665  -1.715  0.00  0.00    +0.030 A 
ATOM     24  C   LIG    1        1.808  10.921  -1.326  0.00  0.00    -0.010 A 
ATOM     25  C   LIG    1        2.476  11.085  -0.121  0.00  0.00    +0.110 A 
ATOM     26  C   LIG    1        2.710   9.988   0.694  0.00  0.00    +0.000 A 
BRANCH  25  27
ATOM     27  O   LIG    1        2.896  12.320   0.261  0.00  0.00    -0.500 OA
ATOM     28  H   LIG    1        3.791  12.540  -0.034  0.00  0.00    +0.390 HD
ENDBRANCH  25  27
ENDBRANCH   7  21
TORSDOF 4
