REMARK  Name = ZINCpk00001AZirT.0
REMARK                            x       y       z     vdW  Elec       q    Type
REMARK                         _______ _______ _______ _____ _____    ______ ____
ROOT
ATOM      1  C   LIG    1       -1.290   1.681   0.017  0.00  0.00    +0.300 C 
ENDROOT
BRANCH   1   2
ATOM      2  C   LIG    1       -2.439   0.671   0.017  0.00  0.00    +0.000 C 
ATOM      3  C   LIG    1       -2.576  -0.011  -1.364  0.00  0.00    +0.070 C 
ATOM      4  C   LIG    1       -4.069  -0.168  -1.553  0.00  0.00    +0.520 C 
ATOM      5  N   LIG    1       -4.730   0.620  -0.688  0.00  0.00    -0.620 N 
ATOM      6  C   LIG    1       -6.190   0.705  -0.596  0.00  0.00    +0.300 C 
ATOM      7  O   LIG    1       -4.593  -0.899  -2.366  0.00  0.00    -0.520 OA
ATOM      8  C   LIG    1       -3.802   1.385   0.153  0.00  0.00    +0.280 C 
BRANCH   8   9
ATOM      9  C   LIG    1       -4.260   1.366   1.589  0.00  0.00    -0.060 A 
ATOM     10  C   LIG    1       -4.861   0.239   2.128  0.00  0.00    -0.030 A 
ATOM     11  C   LIG    1       -5.264   0.257   3.450  0.00  0.00    +0.260 A 
ATOM     12  N   LIG    1       -5.091   1.332   4.193  0.00  0.00    -0.480 NA
ATOM     13  C   LIG    1       -4.527   2.423   3.713  0.00  0.00    +0.260 A 
ATOM     14  C   LIG    1       -4.095   2.478   2.401  0.00  0.00    -0.020 A 
ENDBRANCH   8   9
ENDBRANCH   1   2
BRANCH   1  15
ATOM     15  N   LIG    1       -0.011   0.966   0.007  0.00  0.00    -0.700 N 
ATOM     16  H   LIG    1        0.002  -0.004   0.002  0.00  0.00    +0.420 HD
BRANCH  15  22
ATOM     17  C   LIG    1        4.705   6.514  -0.008  0.00  0.00    +0.210 C 
ATOM     18  C   LIG    1        3.949   5.210  -0.008  0.00  0.00    +0.230 A 
ATOM     19  N   LIG    1        2.639   5.094   0.004  0.00  0.00    -0.270 NA
ATOM     20  N   LIG    1        2.348   3.724  -0.000  0.00  0.00    -0.160 N 
ATOM     21  N   LIG    1        1.159   2.992   0.007  0.00  0.00    -0.290 NA
ATOM     22  C   LIG    1        1.184   1.678  -0.000  0.00  0.00    +0.400 A 
ATOM     23  C   LIG    1        2.407   0.984  -0.010  0.00  0.00    +0.000 A 
ATOM     24  C   LIG    1        3.581   1.673  -0.024  0.00  0.00    +0.170 A 
ATOM     25  C   LIG    1        3.553   3.079  -0.015  0.00  0.00    +0.210 A 
ATOM     26  N   LIG    1        4.502   4.008  -0.019  0.00  0.00    -0.510 NA
ENDBRANCH  15  22
ENDBRANCH   1  15
TORSDOF 4
