REMARK  Name = ZINCvU0000000Gty.1
REMARK                            x       y       z     vdW  Elec       q    Type
REMARK                         _______ _______ _______ _____ _____    ______ ____
ROOT
ATOM      1  N   LIG    1        0.002  -0.004   0.002  0.00  0.00    -0.550 N 
ATOM      2  H   LIG    1        0.849  -0.478  -0.009  0.00  0.00    +0.400 HD
ENDROOT
BRANCH   1   3
ATOM      3  C   LIG    1       -1.185  -0.711   0.010  0.00  0.00    +0.510 A 
ATOM      4  C   LIG    1       -1.179  -2.132   0.002  0.00  0.00    -0.230 A 
ATOM      5  C   LIG    1       -0.073  -3.064  -0.014  0.00  0.00    +0.060 A 
ATOM      6  C   LIG    1       -0.430  -4.349  -0.017  0.00  0.00    -0.140 A 
ATOM      7  S   LIG    1       -2.174  -4.524  -0.002  0.00  0.00    +0.190 S 
ATOM      8  C   LIG    1       -2.418  -2.783   0.010  0.00  0.00    +0.120 A 
ATOM      9  N   LIG    1       -3.538  -2.050   0.024  0.00  0.00    -0.530 NA
ATOM     10  C   LIG    1       -3.490  -0.738   0.030  0.00  0.00    +0.380 A 
ATOM     11  C   LIG    1       -4.782   0.038   0.046  0.00  0.00    +0.190 C 
ATOM     12  N   LIG    1       -2.348  -0.075   0.030  0.00  0.00    -0.540 NA
BRANCH   6  13
ATOM     13  C   LIG    1        0.523  -5.480  -0.032  0.00  0.00    -0.020 A 
ATOM     14  C   LIG    1        1.897  -5.238  -0.049  0.00  0.00    +0.020 A 
ATOM     15  C   LIG    1        2.781  -6.298  -0.058  0.00  0.00    +0.020 A 
ATOM     16  C   LIG    1        2.306  -7.598  -0.060  0.00  0.00    +0.020 A 
ATOM     17  C   LIG    1        0.945  -7.844  -0.049  0.00  0.00    +0.020 A 
ATOM     18  C   LIG    1        0.051  -6.793  -0.035  0.00  0.00    +0.010 A 
ENDBRANCH   6  13
ENDBRANCH   1   3
BRANCH   1  20
ATOM     19  C   LIG    1        1.099   2.061   0.003  0.00  0.00    +0.220 C 
ATOM     20  N   LIG    1       -0.017   1.397   0.010  0.00  0.00    -0.190 NA
BRANCH  19  26
ATOM     21  C   LIG    1       -0.143   4.221   0.026  0.00  0.00    +0.180 A 
ATOM     22  C   LIG    1       -0.156   5.605   0.034  0.00  0.00    -0.120 A 
ATOM     23  C   LIG    1        1.037   6.312   0.027  0.00  0.00    +0.160 A 
ATOM     24  C   LIG    1        2.254   5.633   0.012  0.00  0.00    +0.060 A 
ATOM     25  C   LIG    1        2.278   4.252   0.009  0.00  0.00    +0.040 A 
ATOM     26  C   LIG    1        1.079   3.534   0.011  0.00  0.00    -0.090 A 
BRANCH  21  28
ATOM     27  C   LIG    1       -2.519   4.295   0.048  0.00  0.00    +0.220 C 
ATOM     28  O   LIG    1       -1.313   3.529   0.033  0.00  0.00    -0.270 OA
ENDBRANCH  21  28
BRANCH  24  29
ATOM     29  O   LIG    1        3.421   6.333   0.005  0.00  0.00    -0.310 OA
ATOM     30  C   LIG    1        4.632   5.574  -0.011  0.00  0.00    +0.220 C 
ENDBRANCH  24  29
BRANCH  23  31
ATOM     31  O   LIG    1        1.019   7.671   0.035  0.00  0.00    -0.300 OA
ATOM     32  C   LIG    1       -0.263   8.303   0.050  0.00  0.00    +0.240 C 
ENDBRANCH  23  31
ENDBRANCH  19  26
ENDBRANCH   1  20
TORSDOF 7
