REMARK  Name = ZINCvU0000000Gty.0
REMARK                            x       y       z     vdW  Elec       q    Type
REMARK                         _______ _______ _______ _____ _____    ______ ____
ROOT
ATOM      1  C   LIG    1        5.321  -1.166  -3.247  0.00  0.00    +0.360 A 
ATOM      2  C   LIG    1        6.499  -0.723  -3.912  0.00  0.00    -0.130 A 
ATOM      3  C   LIG    1        7.518   0.128  -3.469  0.00  0.00    +0.070 A 
ATOM      4  C   LIG    1        8.503   0.352  -4.343  0.00  0.00    -0.120 A 
ATOM      5  S   LIG    1        8.216  -0.519  -5.840  0.00  0.00    +0.210 S 
ATOM      6  C   LIG    1        6.713  -1.189  -5.220  0.00  0.00    +0.090 A 
ATOM      7  N   LIG    1        5.821  -2.011  -5.773  0.00  0.00    -0.480 NA
ATOM      8  C   LIG    1        4.747  -2.390  -5.115  0.00  0.00    +0.340 A 
ATOM      9  C   LIG    1        3.771  -3.320  -5.789  0.00  0.00    +0.190 C 
ATOM     10  N   LIG    1        4.497  -1.990  -3.885  0.00  0.00    -0.500 NA
ENDROOT
BRANCH   4  11
ATOM     11  C   LIG    1        9.674   1.216  -4.086  0.00  0.00    -0.030 A 
ATOM     12  C   LIG    1        9.806   1.871  -2.860  0.00  0.00    +0.030 A 
ATOM     13  C   LIG    1       10.905   2.670  -2.623  0.00  0.00    +0.020 A 
ATOM     14  C   LIG    1       11.870   2.833  -3.602  0.00  0.00    +0.020 A 
ATOM     15  C   LIG    1       11.742   2.192  -4.822  0.00  0.00    +0.020 A 
ATOM     16  C   LIG    1       10.651   1.384  -5.069  0.00  0.00    +0.010 A 
ENDBRANCH   4  11
BRANCH   1  18
ATOM     17  N   LIG    1        4.015  -1.147  -1.403  0.00  0.00    -0.130 NA
ATOM     18  N   LIG    1        5.045  -0.754  -1.971  0.00  0.00    -0.210 NA
BRANCH  17  19
ATOM     19  C   LIG    1        3.719  -0.706  -0.037  0.00  0.00    +0.280 C 
BRANCH  19  25
ATOM     20  C   LIG    1        1.213  -0.680  -0.013  0.00  0.00    +0.160 A 
ATOM     21  C   LIG    1        0.002  -0.004   0.002  0.00  0.00    -0.120 A 
ATOM     22  C   LIG    1       -0.017   1.381   0.010  0.00  0.00    +0.150 A 
ATOM     23  C   LIG    1        1.180   2.091   0.002  0.00  0.00    +0.060 A 
ATOM     24  C   LIG    1        2.387   1.412  -0.013  0.00  0.00    +0.020 A 
ATOM     25  C   LIG    1        2.404   0.030  -0.021  0.00  0.00    -0.120 A 
BRANCH  20  27
ATOM     26  C   LIG    1       -0.032  -2.706  -0.011  0.00  0.00    +0.240 C 
ATOM     27  O   LIG    1        1.232  -2.039  -0.020  0.00  0.00    -0.300 OA
ENDBRANCH  20  27
BRANCH  23  28
ATOM     28  O   LIG    1        1.164   3.452   0.009  0.00  0.00    -0.300 OA
ATOM     29  C   LIG    1        2.429   4.116   0.001  0.00  0.00    +0.240 C 
ENDBRANCH  23  28
BRANCH  22  30
ATOM     30  O   LIG    1       -1.203   2.046   0.019  0.00  0.00    -0.300 OA
ATOM     31  C   LIG    1       -2.391   1.252   0.020  0.00  0.00    +0.240 C 
ENDBRANCH  22  30
ENDBRANCH  19  25
ENDBRANCH  17  19
ENDBRANCH   1  18
TORSDOF 7
