REMARK  Name = ZINCrH000004uXgU.0
REMARK                            x       y       z     vdW  Elec       q    Type
REMARK                         _______ _______ _______ _____ _____    ______ ____
ROOT
ATOM      1  O   LIG    1       -0.008   0.038   0.046  0.00  0.00    -0.510 OA
ATOM      2  C   LIG    1       -0.038   1.239  -0.146  0.00  0.00    +0.560 C 
ATOM      3  N   LIG    1        1.110   1.942  -0.204  0.00  0.00    -0.720 N 
ATOM      4  H   LIG    1        1.085   2.899  -0.357  0.00  0.00    +0.400 HD
ENDROOT
BRANCH   3   5
ATOM      5  C   LIG    1        2.396   1.259  -0.037  0.00  0.00    +0.290 C 
ATOM      6  C   LIG    1        3.489   2.068  -0.732  0.00  0.00    +0.020 C 
ATOM      7  C   LIG    1        4.848   1.459  -0.364  0.00  0.00    +0.030 C 
ATOM      8  C   LIG    1        5.123   1.749   1.109  0.00  0.00    +0.080 C 
ATOM      9  C   LIG    1        3.948   1.339   1.959  0.00  0.00    -0.070 A 
ATOM     10  C   LIG    1        4.159   1.184   3.322  0.00  0.00    -0.010 A 
ATOM     11  C   LIG    1        3.122   0.816   4.155  0.00  0.00    +0.010 A 
ATOM     12  C   LIG    1        1.863   0.598   3.628  0.00  0.00    -0.010 A 
ATOM     13  C   LIG    1        1.652   0.748   2.272  0.00  0.00    +0.020 A 
ATOM     14  C   LIG    1        2.695   1.118   1.433  0.00  0.00    -0.100 A 
ENDBRANCH   3   5
BRANCH   2  15
ATOM     15  C   LIG    1       -1.332   1.924  -0.321  0.00  0.00    -0.130 A 
ATOM     16  C   LIG    1       -1.373   3.304  -0.535  0.00  0.00    +0.070 A 
ATOM     17  C   LIG    1       -2.584   3.938  -0.702  0.00  0.00    +0.000 A 
ATOM     18  C   LIG    1       -3.766   3.216  -0.649  0.00  0.00    +0.060 A 
ATOM     19  C   LIG    1       -3.744   1.854  -0.432  0.00  0.00    -0.020 A 
ATOM     20  C   LIG    1       -2.531   1.195  -0.266  0.00  0.00    -0.050 A 
BRANCH  20  21
ATOM     21  S   LIG    1       -2.498  -0.545   0.010  0.00  0.00    +0.050 S 
BRANCH  21  22
ATOM     22  C   LIG    1       -4.256  -0.966   0.170  0.00  0.00    -0.030 C 
ATOM     23  C   LIG    1       -4.432  -2.494   0.195  0.00  0.00    +0.110 C 
ATOM     24  C   LIG    1       -5.862  -2.819   0.667  0.00  0.00    -0.300 C 
ATOM     25  S   LIG    1       -6.343  -1.412   1.732  0.00  0.00    +2.390 S 
ATOM     26  O   LIG    1       -6.439  -1.853   3.080  0.00  0.00    -0.930 OA
ATOM     27  O   LIG    1       -7.431  -0.720   1.135  0.00  0.00    -0.930 OA
ATOM     28  C   LIG    1       -4.809  -0.432   1.516  0.00  0.00    -0.300 C 
ENDBRANCH  21  22
ENDBRANCH  20  21
ENDBRANCH   2  15
TORSDOF 4
