REMARK  Name = ZINCpk00000y6w03.0
REMARK                            x       y       z     vdW  Elec       q    Type
REMARK                         _______ _______ _______ _____ _____    ______ ____
ROOT
ATOM      1  C   LIG    1        0.307  -0.559  -5.700  0.00  0.00    +0.600 C 
ATOM      2  N   LIG    1        1.370  -0.603  -6.527  0.00  0.00    -0.620 N 
ATOM      3  C   LIG    1        2.664  -0.025  -6.128  0.00  0.00    +0.240 C 
ATOM      4  C   LIG    1        3.754  -1.082  -6.368  0.00  0.00    +0.230 C 
ATOM      5  O   LIG    1        3.659  -1.557  -7.713  0.00  0.00    -0.370 OA
ATOM      6  C   LIG    1        2.428  -2.217  -8.015  0.00  0.00    +0.220 C 
ATOM      7  C   LIG    1        1.271  -1.224  -7.857  0.00  0.00    +0.300 C 
ATOM      8  O   LIG    1       -0.719  -1.142  -5.997  0.00  0.00    -0.510 OA
ENDROOT
BRANCH   1  13
ATOM      9  C   LIG    1        0.051   0.964  -2.393  0.00  0.00    +0.030 A 
ATOM     10  N   LIG    1        1.028   1.633  -2.951  0.00  0.00    -0.260 NA
ATOM     11  N   LIG    1        1.253   1.208  -4.142  0.00  0.00    -0.380 N 
ATOM     12  H   LIG    1        1.933   1.555  -4.740  0.00  0.00    +0.450 HD
ATOM     13  C   LIG    1        0.386   0.195  -4.439  0.00  0.00    -0.040 A 
ATOM     14  C   LIG    1       -0.405   0.021  -3.316  0.00  0.00    +0.030 A 
BRANCH   9  15
ATOM     15  C   LIG    1       -0.490   1.179  -1.003  0.00  0.00    +0.120 C 
BRANCH  15  17
ATOM     16  C   LIG    1        0.102   1.288   1.422  0.00  0.00    +0.030 C 
ATOM     17  C   LIG    1        0.651   1.070   0.011  0.00  0.00    +0.010 C 
ENDBRANCH  15  17
ENDBRANCH   9  15
ENDBRANCH   1  13
BRANCH   6  18
ATOM     18  C   LIG    1        2.464  -2.727  -9.432  0.00  0.00    +0.220 A 
ATOM     19  C   LIG    1        3.621  -2.618 -10.187  0.00  0.00    -0.120 A 
ATOM     20  C   LIG    1        3.612  -3.100 -11.487  0.00  0.00    +0.360 A 
ATOM     21  N   LIG    1        2.507  -3.646 -11.965  0.00  0.00    -0.570 NA
ATOM     22  C   LIG    1        1.417  -3.735 -11.217  0.00  0.00    +0.570 A 
ATOM     23  N   LIG    1        1.394  -3.288  -9.970  0.00  0.00    -0.560 NA
BRANCH  22  24
ATOM     24  N   LIG    1        0.277  -4.311 -11.749  0.00  0.00    -0.590 N 
ATOM     25  C   LIG    1       -0.938  -4.418 -10.937  0.00  0.00    +0.300 C 
ATOM     26  C   LIG    1        0.285  -4.815 -13.125  0.00  0.00    +0.300 C 
ENDBRANCH  22  24
ENDBRANCH   6  18
TORSDOF 5
