REMARK  Name = ZINCpk00000y6w03.1
REMARK                            x       y       z     vdW  Elec       q    Type
REMARK                         _______ _______ _______ _____ _____    ______ ____
ROOT
ATOM      1  C   LIG    1       -3.132   1.567   6.451  0.00  0.00    +0.610 C 
ATOM      2  N   LIG    1       -3.243   2.379   7.521  0.00  0.00    -0.610 N 
ATOM      3  C   LIG    1       -2.368   3.551   7.677  0.00  0.00    +0.260 C 
ATOM      4  C   LIG    1       -3.252   4.774   7.970  0.00  0.00    +0.220 C 
ATOM      5  O   LIG    1       -4.114   4.476   9.070  0.00  0.00    -0.370 OA
ATOM      6  C   LIG    1       -5.029   3.405   8.824  0.00  0.00    +0.220 C 
ATOM      7  C   LIG    1       -4.239   2.115   8.572  0.00  0.00    +0.290 C 
ATOM      8  O   LIG    1       -3.937   0.672   6.281  0.00  0.00    -0.520 OA
ENDROOT
BRANCH   1  11
ATOM      9  C   LIG    1       -0.726   1.594   3.718  0.00  0.00    +0.030 A 
ATOM     10  C   LIG    1       -1.862   1.090   4.253  0.00  0.00    -0.010 A 
ATOM     11  C   LIG    1       -2.032   1.764   5.486  0.00  0.00    -0.010 A 
ATOM     12  N   LIG    1       -1.022   2.602   5.608  0.00  0.00    -0.260 NA
ATOM     13  N   LIG    1       -0.247   2.511   4.587  0.00  0.00    -0.380 N 
ATOM     14  H   LIG    1        0.563   3.027   4.457  0.00  0.00    +0.450 HD
BRANCH   9  15
ATOM     15  C   LIG    1       -0.107   1.202   2.401  0.00  0.00    +0.120 C 
BRANCH  15  17
ATOM     16  C   LIG    1       -0.127   1.608  -0.064  0.00  0.00    +0.030 C 
ATOM     17  C   LIG    1       -0.755   2.006   1.273  0.00  0.00    +0.010 C 
ENDBRANCH  15  17
ENDBRANCH   9  15
ENDBRANCH   1  11
BRANCH   6  18
ATOM     18  C   LIG    1       -5.923   3.221  10.023  0.00  0.00    +0.220 A 
ATOM     19  C   LIG    1       -5.854   4.102  11.091  0.00  0.00    -0.110 A 
ATOM     20  C   LIG    1       -6.695   3.897  12.174  0.00  0.00    +0.360 A 
ATOM     21  N   LIG    1       -7.534   2.874  12.155  0.00  0.00    -0.570 NA
ATOM     22  C   LIG    1       -7.575   2.051  11.118  0.00  0.00    +0.570 A 
ATOM     23  N   LIG    1       -6.788   2.221  10.066  0.00  0.00    -0.560 NA
BRANCH  22  24
ATOM     24  N   LIG    1       -8.464   0.990  11.132  0.00  0.00    -0.590 N 
ATOM     25  C   LIG    1       -8.524   0.069   9.995  0.00  0.00    +0.300 C 
ATOM     26  C   LIG    1       -9.345   0.789  12.285  0.00  0.00    +0.300 C 
ENDBRANCH  22  24
ENDBRANCH   6  18
TORSDOF 5
