REMARK  Name = ZINCpk000000oUUR.0
REMARK                            x       y       z     vdW  Elec       q    Type
REMARK                         _______ _______ _______ _____ _____    ______ ____
ROOT
ATOM      1  C   LIG    1        1.839   6.125  -0.946  0.00  0.00    -0.010 C 
ATOM      2  C   LIG    1        2.541   5.514   0.270  0.00  0.00    +0.060 C 
ATOM      3  C   LIG    1        2.582   3.992   0.118  0.00  0.00    +0.200 C 
ATOM      4  N   LIG    1        1.212   3.473   0.009  0.00  0.00    -0.490 N 
ATOM      5  C   LIG    1        0.535   4.008  -1.178  0.00  0.00    +0.200 C 
ATOM      6  C   LIG    1        0.433   5.531  -1.065  0.00  0.00    +0.050 C 
ENDROOT
BRANCH   4   7
ATOM      7  C   LIG    1        1.206   2.088   0.002  0.00  0.00    +0.350 A 
ATOM      8  N   LIG    1        1.817   1.433  -0.972  0.00  0.00    -0.510 NA
ATOM      9  C   LIG    1        1.835   0.114  -1.017  0.00  0.00    +0.170 A 
ATOM     10  C   LIG    1        1.212  -0.645  -0.043  0.00  0.00    -0.030 A 
ATOM     11  C   LIG    1        0.557  -0.012   0.999  0.00  0.00    +0.010 A 
ATOM     12  C   LIG    1       -0.132  -0.810   2.076  0.00  0.00    +0.110 C 
ATOM     13  C   LIG    1        2.547  -0.577  -2.151  0.00  0.00    +0.140 C 
ATOM     14  C   LIG    1        0.550   1.387   1.028  0.00  0.00    -0.060 A 
BRANCH  14  15
ATOM     15  C   LIG    1       -0.118   2.091   2.081  0.00  0.00    +0.270 C 
ATOM     16  N   LIG    1       -0.648   2.650   2.917  0.00  0.00    -0.400 NA
ENDBRANCH  14  15
ENDBRANCH   4   7
BRANCH   1  19
ATOM     17  N   LIG    1        1.158   8.370  -1.729  0.00  0.00    -0.730 N 
ATOM     18  H   LIG    1        0.800   7.949  -2.526  0.00  0.00    +0.410 HD
ATOM     19  C   LIG    1        1.742   7.619  -0.775  0.00  0.00    +0.530 C 
ATOM     20  O   LIG    1        2.191   8.145   0.222  0.00  0.00    -0.530 OA
BRANCH  17  21
ATOM     21  C   LIG    1        1.064   9.822  -1.562  0.00  0.00    +0.350 C 
BRANCH  21  22
ATOM     22  C   LIG    1        0.373  10.422  -2.760  0.00  0.00    +0.460 C 
ATOM     23  O   LIG    1       -0.002   9.709  -3.660  0.00  0.00    -0.510 OA
BRANCH  22  24
ATOM     24  O   LIG    1        0.175  11.748  -2.826  0.00  0.00    -0.350 OA
BRANCH  24  26
ATOM     25  C   LIG    1       -0.632  13.776  -3.905  0.00  0.00    +0.070 C 
ATOM     26  C   LIG    1       -0.497  12.256  -4.009  0.00  0.00    +0.200 C 
ENDBRANCH  24  26
ENDBRANCH  22  24
ENDBRANCH  21  22
ENDBRANCH  17  21
ENDBRANCH   1  19
TORSDOF 7
