REMARK  Name = ZINCrH000004naCq.0
REMARK                            x       y       z     vdW  Elec       q    Type
REMARK                         _______ _______ _______ _____ _____    ______ ____
ROOT
ATOM      1  C   LIG    1       -6.323   2.018   8.084  0.00  0.00    +0.130 A 
ATOM      2  C   LIG    1       -5.999   3.130   7.321  0.00  0.00    -0.080 A 
ATOM      3  C   LIG    1       -4.809   3.156   6.623  0.00  0.00    +0.060 A 
ATOM      4  C   LIG    1       -3.934   2.080   6.679  0.00  0.00    -0.130 A 
ATOM      5  C   LIG    1       -4.257   0.970   7.428  0.00  0.00    -0.020 A 
ATOM      6  C   LIG    1       -3.365  -0.240   7.522  0.00  0.00    +0.080 C 
ATOM      7  C   LIG    1       -1.930   0.110   7.130  0.00  0.00    +0.230 C 
ATOM      8  N   LIG    1       -1.978   0.879   5.876  0.00  0.00    -0.600 N 
ATOM      9  C   LIG    1       -1.434   0.400   4.739  0.00  0.00    +0.570 C 
ATOM     10  O   LIG    1       -0.965  -0.721   4.715  0.00  0.00    -0.520 OA
ATOM     11  C   LIG    1       -1.123  -1.173   6.921  0.00  0.00    +0.060 C 
ATOM     12  C   LIG    1       -2.635   2.190   5.914  0.00  0.00    +0.280 C 
ATOM     13  C   LIG    1       -1.716   3.200   6.604  0.00  0.00    +0.040 C 
ATOM     14  C   LIG    1       -5.452   0.943   8.134  0.00  0.00    -0.020 A 
ENDROOT
BRANCH   9  15
ATOM     15  C   LIG    1       -1.410   1.236   3.523  0.00  0.00    -0.150 A 
ATOM     16  C   LIG    1       -0.909   2.540   3.580  0.00  0.00    +0.070 A 
ATOM     17  C   LIG    1       -0.888   3.318   2.444  0.00  0.00    -0.020 A 
ATOM     18  C   LIG    1       -1.365   2.808   1.240  0.00  0.00    +0.180 A 
ATOM     19  N   LIG    1       -1.344   3.597   0.092  0.00  0.00    -0.660 N 
ATOM     20  H   LIG    1       -0.769   4.377   0.055  0.00  0.00    +0.410 HD
ATOM     21  C   LIG    1       -2.114   3.286  -0.966  0.00  0.00    +0.520 C 
ATOM     22  C   LIG    1       -3.028   2.090  -0.929  0.00  0.00    +0.080 C 
ATOM     23  C   LIG    1       -2.377   0.964  -0.126  0.00  0.00    +0.110 C 
ATOM     24  O   LIG    1       -2.072   3.977  -1.962  0.00  0.00    -0.520 OA
ATOM     25  C   LIG    1       -1.864   1.510   1.181  0.00  0.00    -0.130 A 
ATOM     26  C   LIG    1       -1.887   0.727   2.312  0.00  0.00    +0.110 A 
ENDBRANCH   9  15
BRANCH   1  28
ATOM     27  C   LIG    1       -8.338   3.130   8.680  0.00  0.00    +0.250 C 
ATOM     28  O   LIG    1       -7.490   1.984   8.780  0.00  0.00    -0.320 OA
ENDBRANCH   1  28
TORSDOF 2
