REMARK  Name = ZINCqH00000392i1.0
REMARK                            x       y       z     vdW  Elec       q    Type
REMARK                         _______ _______ _______ _____ _____    ______ ____
ROOT
ATOM      1  N   LIG    1       -1.736  -0.774   0.003  0.00  0.00    -0.640 N 
ATOM      2  H   LIG    1       -1.925  -1.725  -0.000  0.00  0.00    +0.410 HD
ATOM      3  C   LIG    1       -2.749   0.115   0.013  0.00  0.00    +0.730 C 
ATOM      4  N   LIG    1       -4.023  -0.314  -0.086  0.00  0.00    -0.560 N 
ATOM      5  C   LIG    1       -4.439  -1.722  -0.104  0.00  0.00    +0.280 C 
ATOM      6  C   LIG    1       -5.963  -1.680  -0.230  0.00  0.00    -0.020 C 
ATOM      7  C   LIG    1       -6.319  -0.218  -0.274  0.00  0.00    -0.160 A 
ATOM      8  C   LIG    1       -7.539   0.425  -0.381  0.00  0.00    +0.150 A 
ATOM      9  C   LIG    1       -7.599   1.808  -0.385  0.00  0.00    -0.040 A 
ATOM     10  C   LIG    1       -6.434   2.547  -0.297  0.00  0.00    +0.080 A 
ATOM     11  C   LIG    1       -5.215   1.910  -0.196  0.00  0.00    +0.010 A 
ATOM     12  F   LIG    1       -8.677  -0.299  -0.465  0.00  0.00    -0.130 F 
ATOM     13  C   LIG    1       -6.631  -2.373   0.967  0.00  0.00    +0.040 C 
ATOM     14  C   LIG    1       -7.884  -3.051   0.356  0.00  0.00    +0.020 C 
ATOM     15  C   LIG    1       -7.378  -3.530  -1.027  0.00  0.00    +0.020 C 
ATOM     16  C   LIG    1       -6.431  -2.403  -1.496  0.00  0.00    +0.030 C 
ATOM     17  C   LIG    1       -5.145   0.517  -0.181  0.00  0.00    +0.200 A 
ATOM     18  O   LIG    1       -2.514   1.304   0.112  0.00  0.00    -0.540 OA
ENDROOT
BRANCH   1  22
ATOM     19  N   LIG    1        1.788  -0.247  -0.012  0.00  0.00    -0.370 N 
ATOM     20  C   LIG    1        1.359   1.033  -0.001  0.00  0.00    +0.250 A 
ATOM     21  C   LIG    1        0.007   1.018   0.000  0.00  0.00    -0.090 A 
ATOM     22  C   LIG    1       -0.409  -0.324  -0.003  0.00  0.00    +0.320 A 
ATOM     23  N   LIG    1        0.662  -1.081  -0.017  0.00  0.00    -0.320 NA
BRANCH  19  24
ATOM     24  C   LIG    1        3.185  -0.687  -0.017  0.00  0.00    +0.360 C 
BRANCH  24  25
ATOM     25  C   LIG    1        3.425  -1.639   1.157  0.00  0.00    +0.200 C 
BRANCH  25  27
ATOM     26  N   LIG    1        5.912  -2.422   1.148  0.00  0.00    -0.420 NA
ATOM     27  C   LIG    1        4.829  -2.081   1.152  0.00  0.00    +0.200 C 
ENDBRANCH  25  27
ENDBRANCH  24  25
ENDBRANCH  19  24
ENDBRANCH   1  22
TORSDOF 4
