REMARK  Name = ZINCrD0000072H2z.0
REMARK                            x       y       z     vdW  Elec       q    Type
REMARK                         _______ _______ _______ _____ _____    ______ ____
ROOT
ATOM      1  N   LIG    1       -2.419  -4.176   0.339  0.00  0.00    -0.340 N 
ATOM      2  N   LIG    1       -3.791  -4.441   0.441  0.00  0.00    -0.280 NA
ATOM      3  C   LIG    1       -4.433  -3.301   0.432  0.00  0.00    +0.110 A 
ATOM      4  C   LIG    1       -3.499  -2.265   0.329  0.00  0.00    -0.090 A 
ATOM      5  C   LIG    1       -5.928  -3.133   0.522  0.00  0.00    +0.170 C 
ATOM      6  C   LIG    1       -2.261  -2.825   0.267  0.00  0.00    +0.340 A 
ENDROOT
BRANCH   1   9
ATOM      7  C   LIG    1       -0.534  -7.290   0.843  0.00  0.00    +0.460 A 
ATOM      8  C   LIG    1       -1.583  -6.374   0.898  0.00  0.00    -0.130 A 
ATOM      9  C   LIG    1       -1.397  -5.126   0.316  0.00  0.00    +0.450 A 
ATOM     10  N   LIG    1       -0.230  -4.848  -0.259  0.00  0.00    -0.600 NA
ATOM     11  C   LIG    1        0.740  -5.739  -0.286  0.00  0.00    +0.590 A 
ATOM     12  N   LIG    1        0.603  -6.934   0.249  0.00  0.00    -0.580 NA
BRANCH   7  14
ATOM     13  C   LIG    1       -1.927  -8.929   2.056  0.00  0.00    +0.300 C 
ATOM     14  N   LIG    1       -0.670  -8.550   1.405  0.00  0.00    -0.710 N 
ATOM     15  H   LIG    1        0.066  -9.180   1.366  0.00  0.00    +0.410 HD
ENDBRANCH   7  14
ENDBRANCH   1   9
BRANCH   6  16
ATOM     16  N   LIG    1       -1.051  -2.140   0.156  0.00  0.00    -0.640 N 
ATOM     17  H   LIG    1       -0.216  -2.633   0.124  0.00  0.00    +0.420 HD
ATOM     18  C   LIG    1       -1.042  -0.794   0.094  0.00  0.00    +0.520 C 
ATOM     19  O   LIG    1       -2.086  -0.178   0.135  0.00  0.00    -0.490 OA
BRANCH  18  20
ATOM     20  C   LIG    1        0.265  -0.054  -0.025  0.00  0.00    +0.000 C 
ATOM     21  C   LIG    1        0.419   0.905   1.156  0.00  0.00    +0.060 C 
ATOM     22  C   LIG    1        1.746   1.656   1.035  0.00  0.00    +0.030 C 
ATOM     23  C   LIG    1        1.765   2.450  -0.273  0.00  0.00    +0.030 C 
ATOM     24  C   LIG    1        1.612   1.491  -1.455  0.00  0.00    +0.050 C 
ATOM     25  C   LIG    1        0.284   0.740  -1.333  0.00  0.00    +0.010 C 
BRANCH  25  26
ATOM     26  C   LIG    1        0.131  -0.220  -2.515  0.00  0.00    +0.450 C 
ATOM     27  F   LIG    1        1.111  -1.215  -2.437  0.00  0.00    -0.180 F 
ATOM     28  F   LIG    1        0.279   0.488  -3.712  0.00  0.00    -0.180 F 
ATOM     29  F   LIG    1       -1.137  -0.809  -2.475  0.00  0.00    -0.180 F 
ENDBRANCH  25  26
ENDBRANCH  18  20
ENDBRANCH   6  16
TORSDOF 5
