REMARK  Name = ZINCpe00000MzLm7.0
REMARK                            x       y       z     vdW  Elec       q    Type
REMARK                         _______ _______ _______ _____ _____    ______ ____
ROOT
ATOM      1  C   LIG    1       -0.614   1.968  -0.833  0.00  0.00    +0.180 C 
ATOM      2  C   LIG    1        0.278   1.657  -2.052  0.00  0.00    +0.020 C 
ATOM      3  C   LIG    1        0.243   2.986  -2.857  0.00  0.00    +0.180 C 
ATOM      4  C   LIG    1        0.201   4.040  -1.722  0.00  0.00    +0.170 C 
ATOM      5  F   LIG    1        1.396   3.133  -3.635  0.00  0.00    -0.200 F 
ATOM      6  N   LIG    1       -0.648   3.434  -0.675  0.00  0.00    -0.510 NA
ENDROOT
BRANCH   1   7
ATOM      7  C   LIG    1       -0.024   1.323   0.423  0.00  0.00    +0.180 C 
BRANCH   7   8
ATOM      8  N   LIG    1       -0.086  -0.139   0.298  0.00  0.00    -0.540 NA
ATOM      9  C   LIG    1       -1.478  -0.602   0.218  0.00  0.00    +0.210 C 
BRANCH   8  10
ATOM     10  C   LIG    1        0.624  -0.793   1.405  0.00  0.00    +0.310 C 
BRANCH  10  15
ATOM     11  N   LIG    1        1.994  -2.743   0.497  0.00  0.00    -0.300 N 
ATOM     12  N   LIG    1        1.810  -4.013   0.366  0.00  0.00    -0.090 NA
ATOM     13  N   LIG    1        0.638  -4.310   0.807  0.00  0.00    -0.070 NA
ATOM     14  N   LIG    1        0.057  -3.241   1.230  0.00  0.00    -0.300 NA
ATOM     15  C   LIG    1        0.879  -2.236   1.055  0.00  0.00    +0.190 A 
BRANCH  11  16
ATOM     16  C   LIG    1        3.193  -1.993   0.114  0.00  0.00    +0.330 C 
BRANCH  16  18
ATOM     17  C   LIG    1        5.419  -1.174   0.899  0.00  0.00    +0.040 C 
ATOM     18  C   LIG    1        4.219  -2.057   1.247  0.00  0.00    +0.010 C 
ENDBRANCH  16  18
ENDBRANCH  11  16
ENDBRANCH  10  15
ENDBRANCH   8  10
ENDBRANCH   7   8
ENDBRANCH   1   7
BRANCH   6  19
ATOM     19  C   LIG    1       -0.195   3.830   0.665  0.00  0.00    +0.270 C 
BRANCH  19  20
ATOM     20  C   LIG    1       -0.163   5.334   0.761  0.00  0.00    +0.080 A 
ATOM     21  C   LIG    1       -1.164   6.126   1.211  0.00  0.00    -0.100 A 
ATOM     22  C   LIG    1       -0.728   7.453   1.137  0.00  0.00    +0.240 A 
ATOM     23  N   LIG    1        0.487   7.458   0.653  0.00  0.00    -0.290 NA
ATOM     24  N   LIG    1        0.866   6.132   0.408  0.00  0.00    -0.370 N 
ATOM     25  C   LIG    1        2.152   5.690  -0.137  0.00  0.00    +0.340 C 
ENDBRANCH  19  20
ENDBRANCH   6  19
TORSDOF 8
