REMARK  Name = ZINCrD0000074ZgN.0
REMARK                            x       y       z     vdW  Elec       q    Type
REMARK                         _______ _______ _______ _____ _____    ______ ____
ROOT
ATOM      1  C   LIG    1       -1.188  -0.858   0.018  0.00  0.00    +0.550 C 
ATOM      2  O   LIG    1       -2.296  -0.358   0.041  0.00  0.00    -0.480 OA
ENDROOT
BRANCH   1   3
ATOM      3  C   LIG    1        0.002  -0.004   0.008  0.00  0.00    -0.290 A 
ATOM      4  C   LIG    1       -0.017   1.340   0.022  0.00  0.00    +0.080 A 
ATOM      5  C   LIG    1        1.248   1.932   0.008  0.00  0.00    -0.250 A 
ATOM      6  C   LIG    1        2.282   1.003  -0.017  0.00  0.00    +0.050 A 
ATOM      7  N   LIG    1        3.581   1.459  -0.033  0.00  0.00    -0.590 N 
ATOM      8  H   LIG    1        4.310   0.820  -0.051  0.00  0.00    +0.430 HD
ATOM      9  C   LIG    1        3.857   2.773  -0.025  0.00  0.00    +0.450 A 
ATOM     10  N   LIG    1        2.929   3.688  -0.002  0.00  0.00    -0.580 NA
ATOM     11  C   LIG    1        5.300   3.208  -0.043  0.00  0.00    +0.190 C 
ATOM     12  C   LIG    1        1.626   3.363   0.016  0.00  0.00    +0.550 A 
ATOM     13  O   LIG    1        0.770   4.232   0.037  0.00  0.00    -0.470 OA
ATOM     14  C   LIG    1       -1.294   2.140   0.044  0.00  0.00    +0.160 C 
ATOM     15  S   LIG    1        1.657  -0.586  -0.023  0.00  0.00    +0.320 S 
ENDBRANCH   1   3
BRANCH   1  16
ATOM     16  O   LIG    1       -1.054  -2.201   0.003  0.00  0.00    -0.330 OA
BRANCH  16  17
ATOM     17  C   LIG    1       -2.275  -2.985   0.015  0.00  0.00    +0.270 C 
BRANCH  17  20
ATOM     18  N   LIG    1       -2.913  -5.375   0.001  0.00  0.00    -0.670 N 
ATOM     19  H   LIG    1       -3.838  -5.098   0.086  0.00  0.00    +0.420 HD
ATOM     20  C   LIG    1       -1.931  -4.452  -0.005  0.00  0.00    +0.520 C 
ATOM     21  O   LIG    1       -0.770  -4.802  -0.027  0.00  0.00    -0.490 OA
BRANCH  18  26
ATOM     22  C   LIG    1       -1.636 -10.884  -0.468  0.00  0.00    +0.100 C 
ATOM     23  C   LIG    1       -1.974  -9.420  -0.344  0.00  0.00    -0.090 A 
ATOM     24  C   LIG    1       -3.131  -8.929  -0.920  0.00  0.00    +0.050 A 
ATOM     25  C   LIG    1       -3.447  -7.589  -0.803  0.00  0.00    +0.000 A 
ATOM     26  C   LIG    1       -2.597  -6.733  -0.115  0.00  0.00    +0.150 A 
ATOM     27  C   LIG    1       -1.435  -7.229   0.463  0.00  0.00    +0.040 A 
ATOM     28  C   LIG    1       -1.127  -8.571   0.347  0.00  0.00    -0.020 A 
ATOM     29 CL   LIG    1        0.325  -9.193   1.068  0.00  0.00    -0.060 Cl
ENDBRANCH  18  26
ENDBRANCH  17  20
ENDBRANCH  16  17
ENDBRANCH   1  16
TORSDOF 5
