REMARK  Name = ZINCvU0000000G9q.0
REMARK                            x       y       z     vdW  Elec       q    Type
REMARK                         _______ _______ _______ _____ _____    ______ ____
ROOT
ATOM      1  C   LIG    1       -0.179   5.246  -0.265  0.00  0.00    +0.500 C 
ATOM      2  O   LIG    1       -1.248   5.823  -0.251  0.00  0.00    -0.460 OA
ENDROOT
BRANCH   1   3
ATOM      3  C   LIG    1       -0.131   3.780  -0.131  0.00  0.00    -0.080 A 
ATOM      4  C   LIG    1        1.097   3.112  -0.145  0.00  0.00    +0.180 A 
ATOM      5  C   LIG    1        1.134   1.741  -0.020  0.00  0.00    -0.020 A 
ATOM      6  C   LIG    1       -0.040   1.018   0.121  0.00  0.00    +0.140 A 
ATOM      7  C   LIG    1       -1.260   1.661   0.132  0.00  0.00    +0.110 A 
ATOM      8  C   LIG    1       -1.319   3.044   0.012  0.00  0.00    -0.080 A 
BRANCH   5   9
ATOM      9  N   LIG    1        2.436   1.036  -0.037  0.00  0.00    +0.020 N 
ATOM     10  O   LIG    1        3.469   1.668  -0.160  0.00  0.00    -0.140 OA
ATOM     11  O   LIG    1        2.473  -0.176   0.073  0.00  0.00    -0.140 OA
ENDBRANCH   5   9
BRANCH   8  12
ATOM     12  S   LIG    1       -2.876   3.870   0.034  0.00  0.00    +0.180 S 
BRANCH  12  13
ATOM     13  C   LIG    1       -2.946   4.540   1.662  0.00  0.00    +0.020 A 
ATOM     14  N   LIG    1       -3.883   5.321   2.104  0.00  0.00    -0.440 NA
ATOM     15  C   LIG    1       -3.778   5.731   3.354  0.00  0.00    +0.080 A 
ATOM     16  C   LIG    1       -2.703   5.276   3.999  0.00  0.00    -0.070 A 
ATOM     17  C   LIG    1       -4.791   6.640   4.001  0.00  0.00    +0.160 C 
ATOM     18  S   LIG    1       -1.794   4.251   2.891  0.00  0.00    +0.110 S 
ENDBRANCH  12  13
ENDBRANCH   8  12
ENDBRANCH   1   3
BRANCH   1  19
ATOM     19  O   LIG    1        0.964   5.948  -0.402  0.00  0.00    -0.320 OA
BRANCH  19  20
ATOM     20  C   LIG    1        0.841   7.389  -0.529  0.00  0.00    +0.270 C 
BRANCH  20  23
ATOM     21  N   LIG    1        2.344   9.334  -0.805  0.00  0.00    -0.670 N 
ATOM     22  H   LIG    1        1.556   9.895  -0.876  0.00  0.00    +0.420 HD
ATOM     23  C   LIG    1        2.211   8.000  -0.672  0.00  0.00    +0.510 C 
ATOM     24  O   LIG    1        3.195   7.290  -0.667  0.00  0.00    -0.490 OA
BRANCH  21  29
ATOM     25  C   LIG    1        5.931   9.814  -1.482  0.00  0.00    -0.070 A 
ATOM     26  C   LIG    1        6.140  11.061  -0.905  0.00  0.00    -0.020 A 
ATOM     27  C   LIG    1        5.092  11.727  -0.299  0.00  0.00    +0.050 A 
ATOM     28  C   LIG    1        3.833  11.160  -0.270  0.00  0.00    -0.020 A 
ATOM     29  C   LIG    1        3.618   9.911  -0.840  0.00  0.00    +0.160 A 
ATOM     30  C   LIG    1        4.668   9.238  -1.449  0.00  0.00    +0.050 A 
BRANCH  25  32
ATOM     31  C   LIG    1        8.659  10.107  -2.034  0.00  0.00    +0.140 C 
ATOM     32  S   LIG    1        7.268   8.964  -2.254  0.00  0.00    -0.100 S 
ENDBRANCH  25  32
ENDBRANCH  21  29
ENDBRANCH  20  23
ENDBRANCH  19  20
ENDBRANCH   1  19
TORSDOF 9
