REMARK  Name = ZINCpe00000JPf7w.0
REMARK                            x       y       z     vdW  Elec       q    Type
REMARK                         _______ _______ _______ _____ _____    ______ ____
ROOT
ATOM      1  C   LIG    1       -0.927   1.982  -0.428  0.00  0.00    +0.530 C 
ATOM      2  N   LIG    1        0.263   1.397  -0.190  0.00  0.00    -0.620 N 
ATOM      3  C   LIG    1        1.451   2.203   0.129  0.00  0.00    +0.300 C 
ATOM      4  C   LIG    1        2.093   1.641   1.402  0.00  0.00    +0.180 C 
ATOM      5  N   LIG    1        2.347   0.205   1.226  0.00  0.00    -0.480 NA
ATOM      6  C   LIG    1        1.093  -0.538   1.039  0.00  0.00    +0.130 C 
ATOM      7  C   LIG    1        0.410  -0.066  -0.249  0.00  0.00    +0.310 C 
ATOM      8  O   LIG    1       -1.873   1.311  -0.784  0.00  0.00    -0.520 OA
ENDROOT
BRANCH   1  16
ATOM      9  C   LIG    1       -5.190   4.633  -0.325  0.00  0.00    +0.140 A 
ATOM     10  C   LIG    1       -4.714   4.124   0.874  0.00  0.00    -0.080 A 
ATOM     11  C   LIG    1       -3.396   3.726   0.977  0.00  0.00    +0.070 A 
ATOM     12  C   LIG    1       -2.547   3.832  -0.109  0.00  0.00    -0.120 A 
ATOM     13  C   LIG    1       -3.020   4.339  -1.309  0.00  0.00    -0.040 A 
ATOM     14  C   LIG    1       -1.906   4.353  -2.334  0.00  0.00    +0.090 C 
ATOM     15  C   LIG    1       -0.604   4.213  -1.518  0.00  0.00    +0.060 C 
ATOM     16  C   LIG    1       -1.083   3.471  -0.253  0.00  0.00    +0.040 C 
ATOM     17  C   LIG    1       -4.340   4.739  -1.415  0.00  0.00    -0.010 A 
BRANCH   9  19
ATOM     18  C   LIG    1       -7.304   4.888   0.733  0.00  0.00    +0.250 C 
ATOM     19  O   LIG    1       -6.487   5.026  -0.431  0.00  0.00    -0.320 OA
ENDBRANCH   9  19
ENDBRANCH   1  16
BRANCH   6  20
ATOM     20  C   LIG    1        1.393  -2.012   0.938  0.00  0.00    +0.520 C 
ATOM     21  O   LIG    1        2.466  -2.385   0.514  0.00  0.00    -0.510 OA
ATOM     22  N   LIG    1        0.467  -2.915   1.318  0.00  0.00    -0.850 N 
ATOM     23  H   LIG    1        0.660  -3.863   1.253  0.00  0.00    +0.410 HD
ATOM     24  H   LIG    1       -0.391  -2.616   1.656  0.00  0.00    +0.400 HD
ENDBRANCH   6  20
BRANCH   5  25
ATOM     25  C   LIG    1        3.116  -0.336   2.354  0.00  0.00    +0.140 C 
ATOM     26  C   LIG    1        3.254   0.541   3.600  0.00  0.00    -0.020 C 
ATOM     27  C   LIG    1        4.457   0.328   2.677  0.00  0.00    +0.040 C 
ENDBRANCH   5  25
TORSDOF 4
