REMARK  Name = ZINCrD00000F5LA6.1
REMARK                            x       y       z     vdW  Elec       q    Type
REMARK                         _______ _______ _______ _____ _____    ______ ____
ROOT
ATOM      1  C   LIG    1        4.826   2.736   3.251  0.00  0.00    +0.540 C 
ATOM      2  N   LIG    1        3.797   2.046   2.720  0.00  0.00    -0.630 N 
ATOM      3  C   LIG    1        3.533   0.608   2.917  0.00  0.00    +0.270 C 
ATOM      4  C   LIG    1        2.688   0.184   1.687  0.00  0.00    +0.060 C 
ATOM      5  C   LIG    1        1.832   1.442   1.456  0.00  0.00    -0.100 C 
ATOM      6  C   LIG    1        0.559   1.412   2.304  0.00  0.00    +0.100 C 
ATOM      7  C   LIG    1       -0.595   1.509   1.279  0.00  0.00    +0.260 C 
ATOM      8  N   LIG    1       -0.012   1.005   0.008  0.00  0.00    -0.390 N 
ATOM      9  H   LIG    1        0.002  -0.004   0.002  0.00  0.00    +0.430 HD
ATOM     10  C   LIG    1        1.376   1.544  -0.003  0.00  0.00    +0.290 C 
ATOM     11  C   LIG    1        2.749   2.603   1.846  0.00  0.00    +0.280 C 
ATOM     12  O   LIG    1        4.945   3.921   3.021  0.00  0.00    -0.520 OA
ENDROOT
BRANCH   1  13
ATOM     13  C   LIG    1        5.829   2.035   4.131  0.00  0.00    +0.090 C 
BRANCH  13  14
ATOM     14  C   LIG    1        6.885   3.038   4.599  0.00  0.00    +0.130 C 
BRANCH  14  15
ATOM     15  S   LIG    1        8.092   2.195   5.659  0.00  0.00    -0.140 S 
BRANCH  15  16
ATOM     16  S   LIG    1        9.104   0.995   4.340  0.00  0.00    -0.190 S 
BRANCH  16  17
ATOM     17  C   LIG    1       10.377   2.103   3.674  0.00  0.00    +0.150 C 
BRANCH  17  18
ATOM     18  C   LIG    1       11.410   2.406   4.761  0.00  0.00    -0.040 C 
BRANCH  18  20
ATOM     19  O   LIG    1       12.399   3.706   3.051  0.00  0.00    -0.700 OA
ATOM     20  C   LIG    1       12.466   3.327   4.208  0.00  0.00    +0.500 C 
ATOM     21  O   LIG    1       13.389   3.692   4.917  0.00  0.00    -0.690 OA
ENDBRANCH  18  20
ENDBRANCH  17  18
ENDBRANCH  16  17
ENDBRANCH  15  16
ENDBRANCH  14  15
ENDBRANCH  13  14
ENDBRANCH   1  13
BRANCH   8  22
ATOM     22  C   LIG    1       -0.768   1.514  -1.144  0.00  0.00    +0.330 C 
BRANCH  22  23
ATOM     23  C   LIG    1       -2.141   0.892  -1.159  0.00  0.00    -0.160 A 
ATOM     24  C   LIG    1       -2.356  -0.291  -1.840  0.00  0.00    +0.040 A 
ATOM     25  C   LIG    1       -3.614  -0.864  -1.850  0.00  0.00    +0.030 A 
ATOM     26  C   LIG    1       -4.659  -0.249  -1.185  0.00  0.00    +0.040 A 
ATOM     27  C   LIG    1       -4.444   0.936  -0.507  0.00  0.00    +0.030 A 
ATOM     28  C   LIG    1       -3.185   1.507  -0.494  0.00  0.00    +0.040 A 
ENDBRANCH  22  23
ENDBRANCH   8  22
TORSDOF 9
