REMARK  Name = ZINCrD00000F5LA6.0
REMARK                            x       y       z     vdW  Elec       q    Type
REMARK                         _______ _______ _______ _____ _____    ______ ____
ROOT
ATOM      1  C   LIG    1       -3.087   3.073  -1.417  0.00  0.00    +0.540 C 
ATOM      2  N   LIG    1       -2.117   2.487  -0.687  0.00  0.00    -0.630 N 
ATOM      3  C   LIG    1       -2.215   2.125   0.740  0.00  0.00    +0.270 C 
ATOM      4  C   LIG    1       -0.748   2.080   1.244  0.00  0.00    +0.070 C 
ATOM      5  C   LIG    1       -0.019   1.527   0.010  0.00  0.00    -0.100 C 
ATOM      6  C   LIG    1        0.002  -0.004   0.002  0.00  0.00    +0.090 C 
ATOM      7  C   LIG    1        1.400  -0.374  -0.536  0.00  0.00    +0.250 C 
ATOM      8  N   LIG    1        2.091   0.895  -0.858  0.00  0.00    -0.400 N 
ATOM      9  H   LIG    1        1.963   1.122  -1.833  0.00  0.00    +0.430 HD
ATOM     10  C   LIG    1        1.460   1.935  -0.002  0.00  0.00    +0.290 C 
ATOM     11  C   LIG    1       -0.783   2.102  -1.181  0.00  0.00    +0.270 C 
ATOM     12  O   LIG    1       -2.895   3.327  -2.588  0.00  0.00    -0.520 OA
ENDROOT
BRANCH   1  13
ATOM     13  C   LIG    1       -4.409   3.413  -0.779  0.00  0.00    +0.090 C 
BRANCH  13  14
ATOM     14  C   LIG    1       -5.324   4.065  -1.818  0.00  0.00    +0.130 C 
BRANCH  14  15
ATOM     15  S   LIG    1       -6.915   4.474  -1.050  0.00  0.00    -0.140 S 
BRANCH  15  16
ATOM     16  S   LIG    1       -6.435   6.015   0.214  0.00  0.00    -0.190 S 
BRANCH  16  17
ATOM     17  C   LIG    1       -6.515   7.470  -0.866  0.00  0.00    +0.150 C 
BRANCH  17  18
ATOM     18  C   LIG    1       -7.972   7.746  -1.242  0.00  0.00    -0.040 C 
BRANCH  18  20
ATOM     19  O   LIG    1       -7.016   9.541  -2.450  0.00  0.00    -0.700 OA
ATOM     20  C   LIG    1       -8.039   8.955  -2.140  0.00  0.00    +0.500 C 
ATOM     21  O   LIG    1       -9.116   9.347  -2.555  0.00  0.00    -0.690 OA
ENDBRANCH  18  20
ENDBRANCH  17  18
ENDBRANCH  16  17
ENDBRANCH  15  16
ENDBRANCH  14  15
ENDBRANCH  13  14
ENDBRANCH   1  13
BRANCH   8  22
ATOM     22  C   LIG    1        3.522   0.784  -0.548  0.00  0.00    +0.330 C 
BRANCH  22  23
ATOM     23  C   LIG    1        4.161  -0.219  -1.473  0.00  0.00    -0.160 A 
ATOM     24  C   LIG    1        4.222  -1.552  -1.112  0.00  0.00    +0.040 A 
ATOM     25  C   LIG    1        4.804  -2.473  -1.963  0.00  0.00    +0.030 A 
ATOM     26  C   LIG    1        5.333  -2.060  -3.171  0.00  0.00    +0.050 A 
ATOM     27  C   LIG    1        5.277  -0.726  -3.530  0.00  0.00    +0.030 A 
ATOM     28  C   LIG    1        4.691   0.194  -2.681  0.00  0.00    +0.040 A 
ENDBRANCH  22  23
ENDBRANCH   8  22
TORSDOF 9
