REMARK  Name = ZINCrD00000l1kEa.0
REMARK                            x       y       z     vdW  Elec       q    Type
REMARK                         _______ _______ _______ _____ _____    ______ ____
ROOT
ATOM      1  N   LIG    1       -3.028   1.146   1.460  0.00  0.00    -0.610 N 
ATOM      2  C   LIG    1       -4.022   2.034   1.655  0.00  0.00    +0.580 C 
ATOM      3  O   LIG    1       -4.307   2.830   0.779  0.00  0.00    -0.500 OA
ENDROOT
BRANCH   2   4
ATOM      4  C   LIG    1       -4.761   2.043   2.922  0.00  0.00    -0.250 A 
ATOM      5  C   LIG    1       -5.754   1.087   3.169  0.00  0.00    +0.180 A 
ATOM      6  C   LIG    1       -6.436   1.117   4.373  0.00  0.00    -0.050 A 
ATOM      7  C   LIG    1       -6.130   2.089   5.317  0.00  0.00    +0.260 A 
ATOM      8  N   LIG    1       -5.158   3.021   5.071  0.00  0.00    -0.590 N 
ATOM      9  H   LIG    1       -4.958   3.692   5.742  0.00  0.00    +0.420 HD
ATOM     10  C   LIG    1       -4.474   3.015   3.912  0.00  0.00    +0.540 A 
ATOM     11  O   LIG    1       -3.608   3.849   3.712  0.00  0.00    -0.520 OA
BRANCH   7  12
ATOM     12  C   LIG    1       -6.854   2.116   6.590  0.00  0.00    -0.020 A 
ATOM     13  C   LIG    1       -6.656   3.006   7.609  0.00  0.00    +0.000 A 
ATOM     14  C   LIG    1       -7.562   2.665   8.625  0.00  0.00    -0.050 A 
ATOM     15  C   LIG    1       -8.260   1.591   8.192  0.00  0.00    +0.220 A 
ATOM     16  O   LIG    1       -7.830   1.263   6.965  0.00  0.00    -0.150 OA
ENDBRANCH   7  12
ENDBRANCH   2   4
BRANCH   1  18
ATOM     17  C   LIG    1       -1.595   0.927   3.430  0.00  0.00    +0.010 C 
ATOM     18  C   LIG    1       -2.634   0.239   2.542  0.00  0.00    +0.270 C 
ENDBRANCH   1  18
BRANCH   1  19
ATOM     19  C   LIG    1       -2.341   1.086   0.168  0.00  0.00    +0.360 C 
BRANCH  19  20
ATOM     20  C   LIG    1       -1.160   2.023   0.183  0.00  0.00    -0.120 A 
ATOM     21  C   LIG    1        0.121   1.515   0.295  0.00  0.00    +0.060 A 
ATOM     22  C   LIG    1        1.207   2.366   0.304  0.00  0.00    +0.050 A 
ATOM     23  C   LIG    1        1.011   3.745   0.204  0.00  0.00    +0.010 A 
ATOM     24  C   LIG    1       -0.285   4.254   0.097  0.00  0.00    +0.030 A 
ATOM     25  C   LIG    1       -1.364   3.391   0.089  0.00  0.00    +0.130 A 
ATOM     26  F   LIG    1       -2.619   3.881  -0.015  0.00  0.00    -0.100 F 
BRANCH  23  27
ATOM     27  C   LIG    1        2.134   4.633   0.212  0.00  0.00    +0.250 C 
ATOM     28  N   LIG    1        3.025   5.338   0.218  0.00  0.00    -0.400 NA
ENDBRANCH  23  27
ENDBRANCH  19  20
ENDBRANCH   1  19
TORSDOF 6
