REMARK  Name = ZINCrH000004qeQq.0
REMARK                            x       y       z     vdW  Elec       q    Type
REMARK                         _______ _______ _______ _____ _____    ______ ____
ROOT
ATOM      1  C   LIG    1       -4.652   9.486   2.385  0.00  0.00    +0.170 C 
ATOM      2  C   LIG    1       -3.788  10.253   1.418  0.00  0.00    +0.190 A 
ATOM      3  C   LIG    1       -3.052   9.715   0.420  0.00  0.00    -0.090 A 
ATOM      4  C   LIG    1       -2.380  10.818  -0.267  0.00  0.00    +0.540 A 
ATOM      5  N   LIG    1       -2.747  11.954   0.361  0.00  0.00    -0.370 N 
ATOM      6  O   LIG    1       -1.631  10.729  -1.224  0.00  0.00    -0.510 OA
ATOM      7  N   LIG    1       -3.614  11.612   1.405  0.00  0.00    -0.390 N 
ATOM      8  C   LIG    1       -4.242  12.557   2.332  0.00  0.00    +0.360 C 
ENDROOT
BRANCH   5   9
ATOM      9  C   LIG    1       -2.333  13.248   0.029  0.00  0.00    +0.150 A 
ATOM     10  C   LIG    1       -3.268  14.267  -0.099  0.00  0.00    +0.000 A 
ATOM     11  C   LIG    1       -2.855  15.544  -0.423  0.00  0.00    +0.030 A 
ATOM     12  C   LIG    1       -1.514  15.807  -0.630  0.00  0.00    +0.010 A 
ATOM     13  C   LIG    1       -0.581  14.794  -0.510  0.00  0.00    +0.030 A 
ATOM     14  C   LIG    1       -0.986  13.515  -0.181  0.00  0.00    +0.030 A 
ENDBRANCH   5   9
BRANCH   3  15
ATOM     15  N   LIG    1       -2.955   8.347   0.097  0.00  0.00    -0.630 N 
ATOM     16  H   LIG    1       -3.753   7.844  -0.131  0.00  0.00    +0.410 HD
ATOM     17  C   LIG    1       -1.753   7.736   0.105  0.00  0.00    +0.540 C 
ATOM     18  O   LIG    1       -0.744   8.385   0.284  0.00  0.00    -0.490 OA
BRANCH  17  19
ATOM     19  C   LIG    1       -1.663   6.247  -0.109  0.00  0.00    +0.010 C 
ATOM     20  C   LIG    1       -1.642   5.948  -1.609  0.00  0.00    +0.080 C 
BRANCH  19  21
ATOM     21  S   LIG    1       -0.144   5.617   0.655  0.00  0.00    -0.060 S 
BRANCH  21  22
ATOM     22  C   LIG    1       -0.320   3.870   0.506  0.00  0.00    -0.150 A 
ATOM     23  C   LIG    1        0.180   3.213  -0.612  0.00  0.00    +0.100 A 
ATOM     24  C   LIG    1        0.042   1.844  -0.727  0.00  0.00    -0.020 A 
ATOM     25  C   LIG    1       -0.595   1.126   0.271  0.00  0.00    +0.130 A 
ATOM     26  C   LIG    1       -1.099   1.778   1.383  0.00  0.00    -0.020 A 
ATOM     27  F   LIG    1       -0.730  -0.214   0.156  0.00  0.00    -0.130 F 
ATOM     28  C   LIG    1       -0.959   3.147   1.505  0.00  0.00    +0.100 A 
ENDBRANCH  21  22
ENDBRANCH  19  21
ENDBRANCH  17  19
ENDBRANCH   3  15
TORSDOF 5
