REMARK  Name = ZINCrH000004mBna.0
REMARK                            x       y       z     vdW  Elec       q    Type
REMARK                         _______ _______ _______ _____ _____    ______ ____
ROOT
ATOM      1  N   LIG    1        2.323   0.998  -0.015  0.00  0.00    -0.750 N 
ATOM      2  H   LIG    1        2.336   0.028  -0.020  0.00  0.00    +0.400 HD
ATOM      3  C   LIG    1        1.147   1.655   0.000  0.00  0.00    +0.710 C 
ATOM      4  N   LIG    1       -0.011   0.966   0.007  0.00  0.00    -0.730 N 
ATOM      5  H   LIG    1        0.002  -0.004   0.002  0.00  0.00    +0.400 HD
ATOM      6  O   LIG    1        1.130   2.871   0.007  0.00  0.00    -0.580 OA
ENDROOT
BRANCH   1   7
ATOM      7  C   LIG    1        3.582   1.747  -0.023  0.00  0.00    +0.280 C 
BRANCH   7   8
ATOM      8  C   LIG    1        4.758   0.769  -0.039  0.00  0.00    +0.070 C 
BRANCH   8  12
ATOM      9  C   LIG    1        8.430   2.955  -0.063  0.00  0.00    +0.130 A 
ATOM     10  C   LIG    1        7.844   2.593   1.142  0.00  0.00    -0.020 A 
ATOM     11  C   LIG    1        6.657   1.887   1.147  0.00  0.00    +0.060 A 
ATOM     12  C   LIG    1        6.053   1.540  -0.048  0.00  0.00    -0.120 A 
ATOM     13  C   LIG    1        6.637   1.895  -1.249  0.00  0.00    +0.060 A 
ATOM     14  C   LIG    1        7.821   2.607  -1.260  0.00  0.00    -0.080 A 
BRANCH   9  16
ATOM     15  C   LIG    1       10.143   3.989  -1.347  0.00  0.00    +0.250 C 
ATOM     16  O   LIG    1        9.598   3.650  -0.070  0.00  0.00    -0.320 OA
ENDBRANCH   9  16
ENDBRANCH   8  12
ENDBRANCH   7   8
ENDBRANCH   1   7
BRANCH   4  17
ATOM     17  C   LIG    1       -1.290   1.681   0.017  0.00  0.00    +0.370 C 
BRANCH  17  18
ATOM     18  C   LIG    1       -2.360   0.806  -0.583  0.00  0.00    +0.120 A 
ATOM     19  C   LIG    1       -2.967   1.183  -1.765  0.00  0.00    -0.010 A 
ATOM     20  C   LIG    1       -3.950   0.371  -2.309  0.00  0.00    +0.070 A 
ATOM     21  C   LIG    1       -4.287  -0.796  -1.640  0.00  0.00    -0.030 A 
ATOM     22  C   LIG    1       -3.636  -1.108  -0.462  0.00  0.00    +0.260 A 
ATOM     23  N   LIG    1       -2.701  -0.314   0.024  0.00  0.00    -0.470 NA
ENDBRANCH  17  18
BRANCH  17  24
ATOM     24  C   LIG    1       -1.661   2.027   1.436  0.00  0.00    -0.090 A 
ATOM     25  C   LIG    1       -1.441   1.113   2.450  0.00  0.00    +0.040 A 
ATOM     26  C   LIG    1       -1.778   1.432   3.753  0.00  0.00    -0.010 A 
ATOM     27  C   LIG    1       -2.343   2.660   4.040  0.00  0.00    +0.000 A 
ATOM     28  C   LIG    1       -2.567   3.572   3.025  0.00  0.00    +0.000 A 
ATOM     29  C   LIG    1       -2.226   3.255   1.723  0.00  0.00    +0.020 A 
ENDBRANCH  17  24
ENDBRANCH   4  17
TORSDOF 7
