REMARK  Name = ZINCrD00000F5LvW.1
REMARK                            x       y       z     vdW  Elec       q    Type
REMARK                         _______ _______ _______ _____ _____    ______ ____
ROOT
ATOM      1  C   LIG    1       -2.429  -2.878   0.010  0.00  0.00    +0.570 C 
ATOM      2  N   LIG    1       -2.405  -4.221  -0.099  0.00  0.00    -0.610 N 
ATOM      3  C   LIG    1       -3.648  -5.004  -0.198  0.00  0.00    +0.290 C 
ATOM      4  C   LIG    1       -3.664  -5.679  -1.574  0.00  0.00    +0.080 C 
ATOM      5  C   LIG    1       -2.344  -6.346  -1.859  0.00  0.00    -0.030 A 
ATOM      6  C   LIG    1       -2.319  -7.330  -2.838  0.00  0.00    +0.000 A 
ATOM      7  C   LIG    1       -1.133  -7.965  -3.167  0.00  0.00    +0.130 A 
ATOM      8  C   LIG    1        0.039  -7.615  -2.512  0.00  0.00    -0.070 A 
ATOM      9  C   LIG    1        0.010  -6.642  -1.535  0.00  0.00    +0.060 A 
ATOM     10  C   LIG    1       -1.180  -6.008  -1.204  0.00  0.00    -0.130 A 
ATOM     11  C   LIG    1       -1.139  -4.962  -0.118  0.00  0.00    +0.330 C 
ATOM     12  O   LIG    1       -3.493  -2.294   0.090  0.00  0.00    -0.530 OA
ENDROOT
BRANCH   1  15
ATOM     13  C   LIG    1        0.165  -0.248  -0.715  0.00  0.00    -0.220 A 
ATOM     14  C   LIG    1       -1.033  -0.964  -0.740  0.00  0.00    +0.150 A 
ATOM     15  C   LIG    1       -1.165  -2.116   0.032  0.00  0.00    -0.160 A 
ATOM     16  C   LIG    1       -0.099  -2.552   0.828  0.00  0.00    +0.090 A 
ATOM     17  C   LIG    1        1.083  -1.847   0.853  0.00  0.00    -0.020 A 
ATOM     18  C   LIG    1        1.230  -0.699   0.085  0.00  0.00    +0.190 A 
BRANCH  13  20
ATOM     19  O   LIG    1        1.356   1.588  -1.502  0.00  0.00    -0.440 OA
ATOM     20  C   LIG    1        0.314   0.968  -1.525  0.00  0.00    +0.490 C 
ENDBRANCH  13  20
BRANCH  18  21
ATOM     21  O   LIG    1        2.397  -0.012   0.109  0.00  0.00    -0.480 OA
ATOM     22  H   LIG    1        2.436   0.673   0.790  0.00  0.00    +0.400 HD
ENDBRANCH  18  21
ENDBRANCH   1  15
BRANCH   7  23
ATOM     23  O   LIG    1       -1.118  -8.926  -4.127  0.00  0.00    -0.300 OA
BRANCH  23  24
ATOM     24  C   LIG    1        0.142  -9.537  -4.413  0.00  0.00    +0.230 C 
BRANCH  24  25
ATOM     25  C   LIG    1       -0.038 -10.586  -5.512  0.00  0.00    +0.470 C 
ATOM     26  F   LIG    1       -0.943 -11.563  -5.082  0.00  0.00    -0.170 F 
ATOM     27  F   LIG    1        1.195 -11.185  -5.792  0.00  0.00    -0.170 F 
ATOM     28  F   LIG    1       -0.531  -9.971  -6.668  0.00  0.00    -0.170 F 
ENDBRANCH  24  25
ENDBRANCH  23  24
ENDBRANCH   7  23
TORSDOF 6
