REMARK  Name = ZINCrH00000tj19X.0
REMARK                            x       y       z     vdW  Elec       q    Type
REMARK                         _______ _______ _______ _____ _____    ______ ____
ROOT
ATOM      1  C   LIG    1        2.699   0.904   0.749  0.00  0.00    -0.250 A 
ATOM      2  C   LIG    1        3.913   1.466   0.736  0.00  0.00    +0.040 A 
ATOM      3  C   LIG    1        4.989   0.575   0.618  0.00  0.00    -0.200 A 
ATOM      4  C   LIG    1        6.378   0.830   0.573  0.00  0.00    +0.260 A 
ATOM      5  N   LIG    1        7.211  -0.183   0.457  0.00  0.00    -0.520 NA
ATOM      6  C   LIG    1        6.776  -1.429   0.382  0.00  0.00    +0.370 A 
ATOM      7  N   LIG    1        5.497  -1.724   0.418  0.00  0.00    -0.490 NA
ATOM      8  C   LIG    1        6.900   2.241   0.656  0.00  0.00    +0.160 C 
ATOM      9  C   LIG    1        4.575  -0.765   0.535  0.00  0.00    +0.110 A 
ATOM     10  C   LIG    1        4.110   2.956   0.842  0.00  0.00    +0.150 C 
ATOM     11  S   LIG    1        2.821  -0.842   0.616  0.00  0.00    +0.200 S 
ENDROOT
BRANCH   1  14
ATOM     12  N   LIG    1        0.263   0.984   0.869  0.00  0.00    -0.500 N 
ATOM     13  H   LIG    1        0.251   0.017   0.795  0.00  0.00    +0.430 HD
ATOM     14  C   LIG    1        1.436   1.647   0.865  0.00  0.00    +0.600 C 
ATOM     15  O   LIG    1        1.450   2.860   0.958  0.00  0.00    -0.520 OA
BRANCH  12  16
ATOM     16  N   LIG    1       -0.942   1.692   0.974  0.00  0.00    -0.490 N 
ATOM     17  H   LIG    1       -0.930   2.659   1.048  0.00  0.00    +0.450 HD
BRANCH  16  23
ATOM     18  C   LIG    1       -3.267  -2.491   0.746  0.00  0.00    +0.140 C 
ATOM     19  C   LIG    1       -3.279  -0.989   0.863  0.00  0.00    +0.230 A 
ATOM     20  C   LIG    1       -4.479  -0.303   0.966  0.00  0.00    -0.130 A 
ATOM     21  C   LIG    1       -4.445   1.079   1.072  0.00  0.00    +0.230 A 
ATOM     22  N   LIG    1       -3.276   1.698   1.071  0.00  0.00    -0.570 NA
ATOM     23  C   LIG    1       -2.147   1.012   0.971  0.00  0.00    +0.580 A 
ATOM     24  C   LIG    1       -5.725   1.866   1.185  0.00  0.00    +0.140 C 
ATOM     25  N   LIG    1       -2.144  -0.308   0.864  0.00  0.00    -0.580 NA
ENDBRANCH  16  23
ENDBRANCH  12  16
ENDBRANCH   1  14
BRANCH   6  26
ATOM     26  C   LIG    1        7.779  -2.546   0.250  0.00  0.00    -0.000 C 
ATOM     27  C   LIG    1        8.713  -2.538   1.462  0.00  0.00    +0.050 C 
ATOM     28  C   LIG    1        8.598  -2.347  -1.027  0.00  0.00    +0.050 C 
ATOM     29  C   LIG    1        7.044  -3.886   0.181  0.00  0.00    +0.050 C 
ENDBRANCH   6  26
TORSDOF 4
