REMARK  Name = ZINCqH0000001KTT.0
REMARK                            x       y       z     vdW  Elec       q    Type
REMARK                         _______ _______ _______ _____ _____    ______ ____
ROOT
ATOM      1  S   LIG    1        5.958   3.304  -1.750  0.00  0.00    +2.440 S 
ATOM      2  O   LIG    1        5.176   4.327  -2.349  0.00  0.00    -0.920 OA
ATOM      3  O   LIG    1        6.024   2.027  -2.370  0.00  0.00    -0.900 OA
ENDROOT
BRANCH   1   4
ATOM      4  C   LIG    1        7.648   3.925  -1.525  0.00  0.00    -0.460 C 
ATOM      5  C   LIG    1        8.474   2.892  -0.757  0.00  0.00    +0.120 C 
BRANCH   4   6
ATOM      6  C   LIG    1        8.277   4.169  -2.873  0.00  0.00    +0.550 C 
ATOM      7  N   LIG    1        9.341   4.989  -2.982  0.00  0.00    -0.600 N 
ATOM      8  C   LIG    1        9.887   5.642  -1.789  0.00  0.00    +0.290 C 
ATOM      9  O   LIG    1        7.825   3.628  -3.860  0.00  0.00    -0.520 OA
BRANCH   7  10
ATOM     10  C   LIG    1        9.953   5.226  -4.292  0.00  0.00    +0.340 C 
BRANCH  10  11
ATOM     11  C   LIG    1        9.292   6.411  -4.947  0.00  0.00    -0.120 A 
ATOM     12  C   LIG    1        8.188   6.225  -5.759  0.00  0.00    +0.040 A 
ATOM     13  C   LIG    1        7.579   7.313  -6.356  0.00  0.00    +0.000 A 
ATOM     14  C   LIG    1        8.079   8.585  -6.150  0.00  0.00    +0.010 A 
ATOM     15  C   LIG    1        9.186   8.770  -5.343  0.00  0.00    +0.000 A 
ATOM     16  C   LIG    1        9.792   7.683  -4.741  0.00  0.00    +0.010 A 
ENDBRANCH  10  11
ENDBRANCH   7  10
ENDBRANCH   4   6
ENDBRANCH   1   4
BRANCH   1  17
ATOM     17  C   LIG    1        5.409   3.086  -0.035  0.00  0.00    -0.290 C 
BRANCH  17  21
ATOM     18  C   LIG    1        1.401   1.607  -0.003  0.00  0.00    -0.060 A 
ATOM     19  C   LIG    1        1.635   2.970  -0.003  0.00  0.00    +0.020 A 
ATOM     20  C   LIG    1        2.932   3.448  -0.008  0.00  0.00    +0.030 A 
ATOM     21  C   LIG    1        3.995   2.564  -0.023  0.00  0.00    -0.100 A 
ATOM     22  C   LIG    1        3.761   1.202  -0.028  0.00  0.00    +0.030 A 
ATOM     23  C   LIG    1        2.464   0.724  -0.018  0.00  0.00    +0.010 A 
BRANCH  18  25
ATOM     24  C   LIG    1       -0.753   1.593  -1.232  0.00  0.00    +0.030 C 
ATOM     25  C   LIG    1       -0.013   1.086   0.008  0.00  0.00    +0.020 C 
ATOM     26  C   LIG    1       -0.729   1.579   1.267  0.00  0.00    +0.030 C 
ENDBRANCH  18  25
ENDBRANCH  17  21
ENDBRANCH   1  17
TORSDOF 7
