REMARK  Name = ZINCrH00000tj0XI.0
REMARK                            x       y       z     vdW  Elec       q    Type
REMARK                         _______ _______ _______ _____ _____    ______ ____
ROOT
ATOM      1  C   LIG    1        4.888  -4.143  -0.069  0.00  0.00    +0.480 C 
ATOM      2  O   LIG    1        3.818  -4.704  -0.062  0.00  0.00    -0.500 OA
ENDROOT
BRANCH   1   3
ATOM      3  C   LIG    1        4.949  -2.637  -0.061  0.00  0.00    +0.130 C 
BRANCH   3   4
ATOM      4  C   LIG    1        3.528  -2.070  -0.044  0.00  0.00    +0.210 C 
BRANCH   4   5
ATOM      5  O   LIG    1        3.585  -0.642  -0.036  0.00  0.00    -0.300 OA
BRANCH   5  11
ATOM      6  C   LIG    1        2.380   1.415  -0.013  0.00  0.00    +0.100 A 
ATOM      7  C   LIG    1        1.170   2.089   0.002  0.00  0.00    -0.030 A 
ATOM      8  C   LIG    1       -0.017   1.378   0.010  0.00  0.00    +0.020 A 
ATOM      9  C   LIG    1        0.002  -0.004   0.002  0.00  0.00    +0.010 A 
ATOM     10  C   LIG    1        1.207  -0.682  -0.013  0.00  0.00    -0.030 A 
ATOM     11  C   LIG    1        2.399   0.024  -0.021  0.00  0.00    +0.100 A 
BRANCH   6  12
ATOM     12  O   LIG    1        3.548   2.113  -0.021  0.00  0.00    -0.310 OA
BRANCH  12  14
ATOM     13  C   LIG    1        4.857   4.144  -0.022  0.00  0.00    +0.070 C 
ATOM     14  C   LIG    1        3.452   3.539  -0.012  0.00  0.00    +0.170 C 
ENDBRANCH  12  14
ENDBRANCH   6  12
ENDBRANCH   5  11
ENDBRANCH   4   5
ENDBRANCH   3   4
ENDBRANCH   1   3
BRANCH   1  15
ATOM     15  O   LIG    1        6.023  -4.860  -0.084  0.00  0.00    -0.330 OA
BRANCH  15  16
ATOM     16  C   LIG    1        5.889  -6.306  -0.091  0.00  0.00    +0.270 C 
BRANCH  16  17
ATOM     17  C   LIG    1        7.257  -6.937  -0.108  0.00  0.00    +0.510 C 
ATOM     18  N   LIG    1        7.380  -8.279  -0.117  0.00  0.00    -0.660 N 
ATOM     19  H   LIG    1        6.588  -8.838  -0.112  0.00  0.00    +0.420 HD
ATOM     20  O   LIG    1        8.248  -6.237  -0.114  0.00  0.00    -0.440 OA
BRANCH  18  21
ATOM     21  C   LIG    1        8.647  -8.863  -0.133  0.00  0.00    +0.380 A 
ATOM     22  N   LIG    1        9.723  -8.094  -0.144  0.00  0.00    -0.450 NA
ATOM     23  C   LIG    1       10.940  -8.605  -0.153  0.00  0.00    +0.340 A 
ATOM     24  C   LIG    1       11.133  -9.973  -0.163  0.00  0.00    -0.110 A 
ATOM     25  C   LIG    1       10.029 -10.816  -0.157  0.00  0.00    +0.130 A 
ATOM     26 CL   LIG    1       12.739 -10.632  -0.182  0.00  0.00    -0.040 Cl
ATOM     27  C   LIG    1        8.766 -10.249  -0.142  0.00  0.00    -0.120 A 
ATOM     28 CL   LIG    1        7.351 -11.255  -0.134  0.00  0.00    -0.040 Cl
ENDBRANCH  18  21
ENDBRANCH  16  17
ENDBRANCH  15  16
ENDBRANCH   1  15
TORSDOF 10
