REMARK  Name = ZINCrH000004poMC.0
REMARK                            x       y       z     vdW  Elec       q    Type
REMARK                         _______ _______ _______ _____ _____    ______ ____
ROOT
ATOM      1  C   LIG    1        1.698  -0.110   1.816  0.00  0.00    +0.060 C 
ATOM      2  C   LIG    1        1.501   1.341   2.261  0.00  0.00    +0.270 C 
ENDROOT
BRANCH   2   3
ATOM      3  C   LIG    1        0.030   1.666   2.278  0.00  0.00    +0.520 C 
ATOM      4  N   LIG    1       -0.695   1.571   1.146  0.00  0.00    -0.600 N 
ATOM      5  C   LIG    1       -0.052   1.153  -0.102  0.00  0.00    +0.280 C 
ATOM      6  O   LIG    1       -0.502   2.012   3.312  0.00  0.00    -0.530 OA
BRANCH   4   7
ATOM      7  C   LIG    1       -2.125   1.888   1.163  0.00  0.00    +0.300 C 
ATOM      8  C   LIG    1       -2.427   2.943   0.097  0.00  0.00    +0.060 C 
BRANCH   7   9
ATOM      9  C   LIG    1       -2.919   0.640   0.874  0.00  0.00    -0.080 A 
ATOM     10  C   LIG    1       -2.630  -0.118  -0.245  0.00  0.00    +0.050 A 
ATOM     11  C   LIG    1       -3.353  -1.266  -0.510  0.00  0.00    +0.030 A 
ATOM     12  C   LIG    1       -4.375  -1.652   0.340  0.00  0.00    +0.070 A 
ATOM     13  C   LIG    1       -4.668  -0.888   1.460  0.00  0.00    +0.070 A 
ATOM     14  F   LIG    1       -5.665  -1.263   2.292  0.00  0.00    -0.130 F 
ATOM     15  F   LIG    1       -5.085  -2.771   0.080  0.00  0.00    -0.130 F 
ATOM     16  C   LIG    1       -3.939   0.257   1.725  0.00  0.00    +0.040 A 
ENDBRANCH   7   9
ENDBRANCH   4   7
ENDBRANCH   2   3
BRANCH   2  17
ATOM     17  N   LIG    1        2.057   1.519   3.605  0.00  0.00    -0.690 N 
ATOM     18  H   LIG    1        1.480   1.446   4.381  0.00  0.00    +0.420 HD
ATOM     19  C   LIG    1        3.369   1.784   3.762  0.00  0.00    +0.650 C 
ATOM     20  O   LIG    1        4.091   1.875   2.789  0.00  0.00    -0.570 OA
BRANCH  19  21
ATOM     21  O   LIG    1        3.880   1.948   4.997  0.00  0.00    -0.360 OA
BRANCH  21  22
ATOM     22  C   LIG    1        5.301   2.231   5.090  0.00  0.00    +0.290 C 
BRANCH  22  23
ATOM     23  C   LIG    1        5.689   2.382   6.538  0.00  0.00    -0.100 A 
ATOM     24  C   LIG    1        5.642   3.626   7.141  0.00  0.00    +0.040 A 
ATOM     25  C   LIG    1        5.993   3.763   8.470  0.00  0.00    +0.010 A 
ATOM     26  C   LIG    1        6.401   2.659   9.195  0.00  0.00    +0.020 A 
ATOM     27  C   LIG    1        6.452   1.416   8.592  0.00  0.00    +0.010 A 
ATOM     28  C   LIG    1        6.096   1.278   7.263  0.00  0.00    +0.040 A 
ENDBRANCH  22  23
ENDBRANCH  21  22
ENDBRANCH  19  21
ENDBRANCH   2  17
TORSDOF 7
