REMARK  Name = ZINCrD00000F5Lp0.0
REMARK                            x       y       z     vdW  Elec       q    Type
REMARK                         _______ _______ _______ _____ _____    ______ ____
ROOT
ATOM      1  C   LIG    1       -1.102   2.590   0.022  0.00  0.00    +0.250 C 
ATOM      2  C   LIG    1       -0.048   1.799  -0.296  0.00  0.00    -0.240 C 
ATOM      3  S   LIG    1        0.025   0.025  -0.298  0.00  0.00    -0.010 S 
ATOM      4  C   LIG    1        1.713  -0.047  -0.831  0.00  0.00    +0.530 C 
ATOM      5  N   LIG    1        2.130   1.216  -0.977  0.00  0.00    -0.570 N 
ATOM      6  O   LIG    1        2.369  -1.052  -1.025  0.00  0.00    -0.420 OA
ATOM      7  C   LIG    1        1.295   2.211  -0.726  0.00  0.00    +0.560 C 
ATOM      8  O   LIG    1        1.616   3.379  -0.841  0.00  0.00    -0.450 OA
ENDROOT
BRANCH   1  13
ATOM      9  C   LIG    1       -0.392   8.275   0.482  0.00  0.00    +0.100 C 
ATOM     10  C   LIG    1       -0.578   6.784   0.361  0.00  0.00    -0.060 A 
ATOM     11  C   LIG    1       -1.718   6.280  -0.241  0.00  0.00    +0.000 A 
ATOM     12  C   LIG    1       -1.895   4.917  -0.355  0.00  0.00    +0.050 A 
ATOM     13  C   LIG    1       -0.920   4.044   0.139  0.00  0.00    -0.110 A 
ATOM     14  C   LIG    1        0.227   4.563   0.751  0.00  0.00    +0.080 A 
ATOM     15  C   LIG    1        0.392   5.928   0.852  0.00  0.00    +0.000 A 
ENDBRANCH   1  13
BRANCH   5  16
ATOM     16  C   LIG    1        3.500   1.495  -1.413  0.00  0.00    +0.310 C 
BRANCH  16  17
ATOM     17  C   LIG    1        3.544   1.577  -2.940  0.00  0.00    +0.270 C 
BRANCH  17  18
ATOM     18  N   LIG    1        4.914   1.856  -3.375  0.00  0.00    -0.730 N 
ATOM     19  H   LIG    1        5.621   1.957  -2.719  0.00  0.00    +0.400 HD
ATOM     20  C   LIG    1        5.194   1.971  -4.689  0.00  0.00    +0.520 C 
ATOM     21  O   LIG    1        4.310   1.844  -5.510  0.00  0.00    -0.530 OA
BRANCH  20  22
ATOM     22  C   LIG    1        6.604   2.258  -5.137  0.00  0.00    +0.060 C 
BRANCH  22  23
ATOM     23  C   LIG    1        6.647   2.339  -6.664  0.00  0.00    +0.170 C 
BRANCH  23  24
ATOM     24  C   LIG    1        8.057   2.626  -7.112  0.00  0.00    -0.020 A 
ATOM     25  C   LIG    1        8.996   1.705  -7.392  0.00  0.00    -0.060 A 
ATOM     26  C   LIG    1       10.161   2.410  -7.773  0.00  0.00    -0.060 A 
ATOM     27  C   LIG    1        9.866   3.721  -7.695  0.00  0.00    +0.160 A 
ATOM     28  O   LIG    1        8.590   3.845  -7.294  0.00  0.00    -0.180 OA
ENDBRANCH  23  24
ENDBRANCH  22  23
ENDBRANCH  20  22
ENDBRANCH  17  18
ENDBRANCH  16  17
ENDBRANCH   5  16
TORSDOF 7
