REMARK  Name = ZINCqH0000008dUu.0
REMARK                            x       y       z     vdW  Elec       q    Type
REMARK                         _______ _______ _______ _____ _____    ______ ____
ROOT
ATOM      1  N   LIG    1       -2.062   0.977   1.338  0.00  0.00    -0.740 N 
ATOM      2  H   LIG    1       -2.237   0.133   0.893  0.00  0.00    +0.390 HD
ATOM      3  C   LIG    1       -3.046   1.595   2.021  0.00  0.00    +0.700 C 
ATOM      4  N   LIG    1       -4.272   1.040   2.087  0.00  0.00    -0.740 N 
ATOM      5  H   LIG    1       -4.447   0.196   1.642  0.00  0.00    +0.390 HD
ATOM      6  O   LIG    1       -2.826   2.653   2.579  0.00  0.00    -0.590 OA
ENDROOT
BRANCH   1   8
ATOM      7  C   LIG    1        0.079   1.179   2.503  0.00  0.00    +0.020 C 
ATOM      8  C   LIG    1       -0.729   1.579   1.267  0.00  0.00    +0.250 C 
BRANCH   8   9
ATOM      9  C   LIG    1       -0.013   1.086   0.008  0.00  0.00    +0.030 C 
BRANCH   9  10
ATOM     10  C   LIG    1       -0.753   1.593  -1.232  0.00  0.00    +0.060 C 
BRANCH  10  11
ATOM     11  C   LIG    1       -0.047   1.107  -2.471  0.00  0.00    -0.090 A 
ATOM     12  C   LIG    1        0.950   1.874  -3.044  0.00  0.00    +0.030 A 
ATOM     13  C   LIG    1        1.602   1.428  -4.177  0.00  0.00    -0.010 A 
ATOM     14  C   LIG    1        1.247   0.215  -4.748  0.00  0.00    +0.100 A 
ATOM     15  C   LIG    1        0.242  -0.551  -4.175  0.00  0.00    -0.010 A 
ATOM     16  C   LIG    1       -0.403  -0.103  -3.038  0.00  0.00    +0.020 A 
BRANCH  14  17
ATOM     17  O   LIG    1        1.883  -0.223  -5.866  0.00  0.00    -0.500 OA
ATOM     18  H   LIG    1        1.467   0.062  -6.692  0.00  0.00    +0.390 HD
ENDBRANCH  14  17
ENDBRANCH  10  11
ENDBRANCH   9  10
ENDBRANCH   8   9
ENDBRANCH   1   8
BRANCH   4  19
ATOM     19  C   LIG    1       -5.341   1.713   2.830  0.00  0.00    +0.250 C 
ATOM     20  C   LIG    1       -6.017   2.747   1.927  0.00  0.00    +0.020 C 
BRANCH  19  21
ATOM     21  C   LIG    1       -6.374   0.679   3.284  0.00  0.00    +0.030 C 
BRANCH  21  22
ATOM     22  C   LIG    1       -5.728  -0.281   4.285  0.00  0.00    +0.060 C 
BRANCH  22  23
ATOM     23  C   LIG    1       -6.745  -1.299   4.732  0.00  0.00    -0.090 A 
ATOM     24  C   LIG    1       -7.532  -1.047   5.842  0.00  0.00    +0.030 A 
ATOM     25  C   LIG    1       -8.469  -1.976   6.251  0.00  0.00    -0.010 A 
ATOM     26  C   LIG    1       -8.613  -3.167   5.554  0.00  0.00    +0.100 A 
ATOM     27  C   LIG    1       -7.819  -3.420   4.445  0.00  0.00    -0.010 A 
ATOM     28  C   LIG    1       -6.887  -2.485   4.037  0.00  0.00    +0.020 A 
BRANCH  26  29
ATOM     29  O   LIG    1       -9.530  -4.086   5.959  0.00  0.00    -0.500 OA
ATOM     30  H   LIG    1       -9.188  -4.728   6.596  0.00  0.00    +0.390 HD
ENDBRANCH  26  29
ENDBRANCH  22  23
ENDBRANCH  21  22
ENDBRANCH  19  21
ENDBRANCH   4  19
TORSDOF 10
