REMARK  Name = ZINCrH000004v6Bj.0
REMARK                            x       y       z     vdW  Elec       q    Type
REMARK                         _______ _______ _______ _____ _____    ______ ____
ROOT
ATOM      1  O   LIG    1       -2.292   5.608  -0.046  0.00  0.00    -0.570 OA
ATOM      2  C   LIG    1       -1.245   6.226  -0.053  0.00  0.00    +0.710 C 
ATOM      3  N   LIG    1       -1.257   7.571  -0.146  0.00  0.00    -0.730 N 
ATOM      4  H   LIG    1       -0.421   8.064  -0.152  0.00  0.00    +0.400 HD
ATOM      5  N   LIG    1       -0.072   5.567   0.034  0.00  0.00    -0.680 N 
ATOM      6  H   LIG    1        0.759   6.063   0.096  0.00  0.00    +0.410 HD
ENDROOT
BRANCH   3   7
ATOM      7  C   LIG    1       -2.531   8.287  -0.240  0.00  0.00    +0.250 C 
ATOM      8  C   LIG    1       -2.989   8.329  -1.702  0.00  0.00    -0.010 C 
ATOM      9  C   LIG    1       -4.287   9.136  -1.801  0.00  0.00    +0.220 C 
ATOM     10  O   LIG    1       -4.067  10.454  -1.291  0.00  0.00    -0.360 OA
ATOM     11  C   LIG    1       -3.653  10.492   0.069  0.00  0.00    +0.090 C 
ATOM     12  C   LIG    1       -3.485  11.949   0.538  0.00  0.00    +0.050 C 
ATOM     13  C   LIG    1       -4.511  12.091   1.685  0.00  0.00    +0.210 C 
ATOM     14  O   LIG    1       -4.718  10.744   2.165  0.00  0.00    -0.370 OA
ATOM     15  C   LIG    1       -4.753   9.917   0.981  0.00  0.00    +0.190 C 
ATOM     16  C   LIG    1       -2.351   9.723   0.266  0.00  0.00    +0.030 C 
ENDBRANCH   3   7
BRANCH   5  17
ATOM     17  C   LIG    1       -0.055   4.165   0.034  0.00  0.00    +0.170 A 
ATOM     18  C   LIG    1       -1.078   3.459   0.650  0.00  0.00    +0.040 A 
ATOM     19  C   LIG    1       -1.062   2.077   0.650  0.00  0.00    +0.010 A 
ATOM     20  C   LIG    1       -0.021   1.396   0.034  0.00  0.00    +0.080 A 
ATOM     21  C   LIG    1        1.007   2.103  -0.578  0.00  0.00    +0.010 A 
ATOM     22 CL   LIG    1        2.312   1.251  -1.343  0.00  0.00    -0.050 Cl
ATOM     23  C   LIG    1        0.986   3.484  -0.584  0.00  0.00    +0.000 A 
BRANCH  20  24
ATOM     24  N   LIG    1       -0.005  -0.004   0.033  0.00  0.00    -0.490 N 
ATOM     25  C   LIG    1       -1.143  -0.544  -0.721  0.00  0.00    +0.180 C 
ATOM     26  C   LIG    1       -1.014  -2.065  -0.824  0.00  0.00    +0.020 C 
ATOM     27  C   LIG    1       -0.980  -2.666   0.585  0.00  0.00    +0.010 C 
ATOM     28  C   LIG    1        0.186  -2.051   1.365  0.00  0.00    +0.020 C 
ATOM     29  C   LIG    1        0.021  -0.530   1.404  0.00  0.00    +0.180 C 
ENDBRANCH  20  24
ENDBRANCH   5  17
TORSDOF 3
