REMARK  Name = ZINCqH0000001Yxz.0
REMARK                            x       y       z     vdW  Elec       q    Type
REMARK                         _______ _______ _______ _____ _____    ______ ____
ROOT
ATOM      1  C   LIG    1        2.698   4.242   8.112  0.00  0.00    +0.070 C 
ATOM      2  C   LIG    1        2.026   5.506   7.573  0.00  0.00    -0.080 C 
ATOM      3  C   LIG    1        1.401   5.342   6.181  0.00  0.00    +0.260 C 
ATOM      4  N   LIG    1        0.173   4.877   6.845  0.00  0.00    -0.650 N 
ATOM      5  C   LIG    1       -0.858   4.071   6.523  0.00  0.00    +0.730 C 
ATOM      6  N   LIG    1       -0.896   3.476   5.315  0.00  0.00    -0.680 N 
ATOM      7  H   LIG    1       -0.147   3.565   4.706  0.00  0.00    +0.410 HD
ATOM      8  O   LIG    1       -1.753   3.881   7.324  0.00  0.00    -0.550 OA
ATOM      9  C   LIG    1        2.886   6.762   7.731  0.00  0.00    +0.060 C 
ATOM     10  C   LIG    1        0.563   5.684   8.011  0.00  0.00    +0.300 C 
ENDROOT
BRANCH   6  11
ATOM     11  C   LIG    1       -2.019   2.728   4.938  0.00  0.00    +0.160 A 
ATOM     12  C   LIG    1       -1.871   1.615   4.121  0.00  0.00    +0.060 A 
ATOM     13  C   LIG    1       -2.979   0.879   3.752  0.00  0.00    +0.050 A 
ATOM     14  C   LIG    1       -4.236   1.246   4.199  0.00  0.00    +0.030 A 
ATOM     15  C   LIG    1       -4.387   2.358   5.009  0.00  0.00    -0.630 A 
ATOM     16 CL   LIG    1       -5.626   0.315   3.739  0.00  0.00    -0.040 Cl
ATOM     17  C   LIG    1       -3.282   3.098   5.382  0.00  0.00    +0.160 A 
BRANCH  15  18
ATOM     18  S   LIG    1       -5.990   2.827   5.572  0.00  0.00    +2.490 S 
ATOM     19  O   LIG    1       -6.531   1.633   6.120  0.00  0.00    -0.920 OA
ATOM     20  O   LIG    1       -5.756   3.967   6.386  0.00  0.00    -0.930 OA
ATOM     21  C   LIG    1       -6.880   3.295   4.062  0.00  0.00    -0.250 C 
ENDBRANCH  15  18
ENDBRANCH   6  11
BRANCH  10  22
ATOM     22  C   LIG    1        0.085   7.111   7.941  0.00  0.00    -0.140 A 
ATOM     23  C   LIG    1       -0.236   7.684   6.720  0.00  0.00    +0.060 A 
ATOM     24  C   LIG    1       -0.678   8.999   6.704  0.00  0.00    -0.030 A 
ATOM     25  C   LIG    1       -0.772   9.692   7.896  0.00  0.00    +0.260 A 
ATOM     26  N   LIG    1       -0.453   9.116   9.039  0.00  0.00    -0.480 NA
ATOM     27  C   LIG    1       -0.035   7.867   9.092  0.00  0.00    +0.280 A 
ENDBRANCH  10  22
TORSDOF 3
