REMARK  Name = ZINCrH000004tTDd.0
REMARK                            x       y       z     vdW  Elec       q    Type
REMARK                         _______ _______ _______ _____ _____    ______ ____
ROOT
ATOM      1  O   LIG    1       -1.742   2.260  -1.088  0.00  0.00    -0.510 OA
ATOM      2  C   LIG    1       -0.742   1.583  -1.213  0.00  0.00    +0.520 C 
ATOM      3  N   LIG    1       -0.288   1.272  -2.443  0.00  0.00    -0.670 N 
ATOM      4  H   LIG    1        0.546   0.789  -2.544  0.00  0.00    +0.410 HD
ENDROOT
BRANCH   3   5
ATOM      5  C   LIG    1       -1.022   1.646  -3.575  0.00  0.00    +0.140 A 
ATOM      6  C   LIG    1       -1.045   0.823  -4.692  0.00  0.00    +0.000 A 
ATOM      7  C   LIG    1       -1.774   1.192  -5.806  0.00  0.00    +0.030 A 
ATOM      8  C   LIG    1       -2.471   2.386  -5.812  0.00  0.00    +0.020 A 
ATOM      9  C   LIG    1       -2.445   3.212  -4.703  0.00  0.00    -0.130 A 
ATOM     10  C   LIG    1       -1.723   2.845  -3.585  0.00  0.00    +0.060 A 
BRANCH   9  11
ATOM     11  C   LIG    1       -3.206   4.512  -4.715  0.00  0.00    +0.270 C 
BRANCH  11  12
ATOM     12  C   LIG    1       -2.400   5.569  -5.472  0.00  0.00    +0.420 C 
ATOM     13  F   LIG    1       -1.166   5.756  -4.839  0.00  0.00    -0.180 F 
ATOM     14  F   LIG    1       -3.107   6.776  -5.483  0.00  0.00    -0.170 F 
ATOM     15  F   LIG    1       -2.189   5.140  -6.787  0.00  0.00    -0.180 F 
ENDBRANCH  11  12
BRANCH  11  16
ATOM     16  O   LIG    1       -4.466   4.321  -5.361  0.00  0.00    -0.520 OA
ATOM     17  H   LIG    1       -4.397   4.023  -6.278  0.00  0.00    +0.390 HD
ENDBRANCH  11  16
ENDBRANCH   9  11
ENDBRANCH   3   5
BRANCH   2  18
ATOM     18  C   LIG    1       -0.009   1.091   0.008  0.00  0.00    +0.070 C 
BRANCH  18  19
ATOM     19  C   LIG    1       -0.727   1.581   1.267  0.00  0.00    +0.090 C 
ATOM     20  C   LIG    1       -2.114   0.942   1.343  0.00  0.00    +0.090 C 
ATOM     21  C   LIG    1       -1.987  -0.520   1.677  0.00  0.00    +0.520 C 
ATOM     22  N   LIG    1       -1.020  -0.956   2.505  0.00  0.00    -0.670 N 
ATOM     23  H   LIG    1       -0.959  -1.900   2.719  0.00  0.00    +0.410 HD
ATOM     24  C   LIG    1       -0.102  -0.057   3.058  0.00  0.00    +0.160 A 
ATOM     25  C   LIG    1        0.635  -0.414   4.179  0.00  0.00    -0.020 A 
ATOM     26  C   LIG    1        1.541   0.479   4.719  0.00  0.00    +0.050 A 
ATOM     27  C   LIG    1        1.713   1.725   4.145  0.00  0.00    -0.010 A 
ATOM     28  C   LIG    1        0.979   2.083   3.029  0.00  0.00    +0.050 A 
ATOM     29  O   LIG    1       -2.766  -1.314   1.194  0.00  0.00    -0.520 OA
ATOM     30  C   LIG    1        0.073   1.195   2.484  0.00  0.00    -0.120 A 
ENDBRANCH  18  19
ENDBRANCH   2  18
TORSDOF 6
