REMARK  Name = ZINCkj000005hljV.0
REMARK                            x       y       z     vdW  Elec       q    Type
REMARK                         _______ _______ _______ _____ _____    ______ ____
ROOT
ATOM      1  C   LIG    1       -1.216   2.233   0.020  0.00  0.00    +0.340 C 
ATOM      2  N   LIG    1       -0.017   1.391   0.010  0.00  0.00    -0.540 N 
ATOM      3  C   LIG    1        1.255   1.832  -0.000  0.00  0.00    +0.680 A 
ATOM      4  N   LIG    1        2.099   0.783  -0.014  0.00  0.00    -0.540 N 
ATOM      5  C   LIG    1        1.345  -0.388  -0.013  0.00  0.00    +0.140 A 
ATOM      6  C   LIG    1        1.679  -1.733  -0.024  0.00  0.00    -0.050 A 
ATOM      7  C   LIG    1        0.677  -2.693  -0.019  0.00  0.00    +0.210 A 
ATOM      8  C   LIG    1       -0.658  -2.307  -0.004  0.00  0.00    -0.060 A 
ATOM      9  C   LIG    1       -0.995  -0.968   0.006  0.00  0.00    +0.070 A 
ATOM     10  C   LIG    1        3.562   0.860  -0.027  0.00  0.00    +0.340 C 
ATOM     11  O   LIG    1        1.592   3.001   0.003  0.00  0.00    -0.550 OA
ATOM     12  C   LIG    1        0.002  -0.004   0.002  0.00  0.00    +0.050 A 
ENDROOT
BRANCH   7  13
ATOM     13  N   LIG    1        1.011  -4.051  -0.030  0.00  0.00    -0.740 N 
ATOM     14  H   LIG    1        1.943  -4.322  -0.041  0.00  0.00    +0.400 HD
BRANCH  13  15
ATOM     15  C   LIG    1       -0.046  -5.066  -0.026  0.00  0.00    +0.250 C 
ATOM     16  C   LIG    1       -0.481  -5.345   1.416  0.00  0.00    +0.040 C 
ATOM     17  C   LIG    1       -1.528  -6.461   1.419  0.00  0.00    +0.250 C 
ATOM     18  N   LIG    1       -0.952  -7.679   0.836  0.00  0.00    -0.390 N 
ATOM     19  C   LIG    1       -0.598  -7.439  -0.568  0.00  0.00    +0.270 C 
ATOM     20  C   LIG    1       -1.935  -8.768   0.913  0.00  0.00    +0.310 C 
ATOM     21  H   LIG    1       -0.124  -7.937   1.351  0.00  0.00    +0.430 HD
ATOM     22  C   LIG    1        0.484  -6.361  -0.648  0.00  0.00    +0.050 C 
ENDBRANCH  13  15
ENDBRANCH   7  13
TORSDOF 2
