REMARK  Name = ZINCpe00000VVGam.0
REMARK                            x       y       z     vdW  Elec       q    Type
REMARK                         _______ _______ _______ _____ _____    ______ ____
ROOT
ATOM      1  C   LIG    1       -0.003  -2.704  -0.828  0.00  0.00    +0.580 C 
ATOM      2  N   LIG    1       -0.009  -2.519  -2.163  0.00  0.00    -0.610 N 
ATOM      3  C   LIG    1        0.953  -1.697  -2.921  0.00  0.00    +0.270 C 
ATOM      4  C   LIG    1        0.925  -2.280  -4.362  0.00  0.00    +0.090 C 
ATOM      5  C   LIG    1       -0.560  -2.654  -4.509  0.00  0.00    +0.100 C 
ATOM      6  N   LIG    1       -1.355  -1.530  -4.994  0.00  0.00    -0.710 N 
ATOM      7  H   LIG    1       -1.455  -0.661  -4.574  0.00  0.00    +0.440 HD
ATOM      8  C   LIG    1       -1.925  -1.946  -6.145  0.00  0.00    +0.710 C 
ATOM      9  N   LIG    1       -1.587  -3.205  -6.455  0.00  0.00    -0.680 N 
ATOM     10  H   LIG    1       -1.899  -3.674  -7.244  0.00  0.00    +0.440 HD
ATOM     11  O   LIG    1       -2.660  -1.256  -6.823  0.00  0.00    -0.530 OA
ATOM     12  C   LIG    1       -0.758  -3.739  -5.530  0.00  0.00    +0.550 C 
ATOM     13  O   LIG    1       -0.278  -4.852  -5.525  0.00  0.00    -0.450 OA
ATOM     14  C   LIG    1       -0.980  -3.099  -3.106  0.00  0.00    +0.310 C 
ATOM     15  O   LIG    1       -0.898  -3.328  -0.298  0.00  0.00    -0.520 OA
ENDROOT
BRANCH   1  16
ATOM     16  C   LIG    1        1.116  -2.137   0.007  0.00  0.00    -0.120 C 
ATOM     17  C   LIG    1        1.520  -2.906   1.266  0.00  0.00    +0.090 C 
ATOM     18  C   LIG    1        2.435  -2.911   0.040  0.00  0.00    +0.060 C 
BRANCH  16  21
ATOM     19  C   LIG    1        0.101   1.498   0.203  0.00  0.00    +0.130 A 
ATOM     20  C   LIG    1        0.032   0.113   0.157  0.00  0.00    -0.060 A 
ATOM     21  C   LIG    1        1.191  -0.632   0.057  0.00  0.00    -0.010 A 
ATOM     22  C   LIG    1        2.419   0.000   0.004  0.00  0.00    -0.020 A 
ATOM     23  C   LIG    1        2.491   1.381   0.050  0.00  0.00    +0.050 A 
ATOM     24  C   LIG    1        1.335   2.131   0.150  0.00  0.00    -0.110 A 
ATOM     25  C   LIG    1        1.414   3.635   0.200  0.00  0.00    +0.100 C 
BRANCH  19  27
ATOM     26  C   LIG    1       -2.276   1.525   0.222  0.00  0.00    +0.240 C 
ATOM     27  O   LIG    1       -1.038   2.234   0.296  0.00  0.00    -0.310 OA
ENDBRANCH  19  27
ENDBRANCH  16  21
ENDBRANCH   1  16
TORSDOF 3
