REMARK  Name = ZINCpk00000kh9Id.0
REMARK                            x       y       z     vdW  Elec       q    Type
REMARK                         _______ _______ _______ _____ _____    ______ ____
ROOT
ATOM      1  C   LIG    1       -0.787   2.892   1.346  0.00  0.00    +0.100 A 
ATOM      2  C   LIG    1       -0.251   3.747   0.392  0.00  0.00    +0.020 A 
ATOM      3  C   LIG    1       -0.352   5.116   0.532  0.00  0.00    +0.050 A 
ATOM      4  C   LIG    1       -0.988   5.657   1.649  0.00  0.00    +0.040 A 
ATOM      5  C   LIG    1       -1.528   4.796   2.623  0.00  0.00    -0.200 A 
ATOM      6  C   LIG    1       -2.244   5.032   3.885  0.00  0.00    +0.390 C 
ATOM      7  O   LIG    1       -2.535   6.102   4.382  0.00  0.00    -0.360 OA
ATOM      8  C   LIG    1       -2.535   3.665   4.426  0.00  0.00    +0.490 C 
ATOM      9  O   LIG    1       -3.116   3.412   5.460  0.00  0.00    -0.450 OA
ATOM     10  N   LIG    1       -2.034   2.771   3.556  0.00  0.00    -0.640 N 
ATOM     11  H   LIG    1       -2.087   1.809   3.668  0.00  0.00    +0.430 HD
ATOM     12  C   LIG    1       -1.428   3.405   2.471  0.00  0.00    +0.170 A 
ENDROOT
BRANCH   4  13
ATOM     13  C   LIG    1       -1.095   7.123   1.809  0.00  0.00    -0.150 A 
ATOM     14  C   LIG    1        0.039   7.937   1.676  0.00  0.00    +0.110 A 
ATOM     15  C   LIG    1       -0.110   9.300   1.829  0.00  0.00    -0.040 A 
ATOM     16  C   LIG    1       -1.370   9.818   2.119  0.00  0.00    +0.320 A 
ATOM     17  N   LIG    1       -2.422   9.021   2.244  0.00  0.00    -0.520 NA
ATOM     18  C   LIG    1       -2.323   7.715   2.101  0.00  0.00    +0.320 A 
BRANCH  16  19
ATOM     19  N   LIG    1       -1.527  11.188   2.279  0.00  0.00    -0.470 N 
ATOM     20  C   LIG    1       -0.674  11.693   3.376  0.00  0.00    +0.200 C 
ATOM     21  C   LIG    1       -1.488  12.849   4.009  0.00  0.00    +0.010 C 
ATOM     22  C   LIG    1       -2.936  12.301   3.916  0.00  0.00    +0.160 C 
ATOM     23  C   LIG    1       -2.930  11.527   2.580  0.00  0.00    +0.230 C 
BRANCH  22  24
ATOM     24  O   LIG    1       -3.881  13.372   3.874  0.00  0.00    -0.560 OA
ATOM     25  H   LIG    1       -3.924  13.890   4.690  0.00  0.00    +0.380 HD
ENDBRANCH  22  24
ENDBRANCH  16  19
ENDBRANCH   4  13
BRANCH   1  27
ATOM     26  C   LIG    1       -0.013   1.086   0.008  0.00  0.00    +0.260 C 
ATOM     27  O   LIG    1       -0.682   1.547   1.184  0.00  0.00    -0.320 OA
ENDBRANCH   1  27
TORSDOF 4
