REMARK  Name = ZINCpk00000xIgT1.0
REMARK                            x       y       z     vdW  Elec       q    Type
REMARK                         _______ _______ _______ _____ _____    ______ ____
ROOT
ATOM      1  C   LIG    1        3.138   1.961  -1.360  0.00  0.00    -0.290 C 
ATOM      2  C   LIG    1        4.358   2.538  -1.375  0.00  0.00    +0.270 C 
ATOM      3  N   LIG    1        4.986   2.889  -0.215  0.00  0.00    -0.530 N 
ATOM      4  C   LIG    1        4.460   2.696   1.002  0.00  0.00    +0.720 C 
ATOM      5  N   LIG    1        3.249   2.132   1.178  0.00  0.00    -0.710 N 
ATOM      6  H   LIG    1        2.887   2.002   2.068  0.00  0.00    +0.430 HD
ATOM      7  O   LIG    1        5.095   3.043   1.978  0.00  0.00    -0.570 OA
ATOM      8  C   LIG    1        6.309   3.511  -0.305  0.00  0.00    +0.340 C 
ATOM      9  C   LIG    1        5.039   2.798  -2.694  0.00  0.00    +0.150 C 
ATOM     10  C   LIG    1        2.489   1.716  -0.013  0.00  0.00    +0.370 C 
ENDROOT
BRANCH  10  11
ATOM     11  C   LIG    1        1.167   2.440   0.004  0.00  0.00    -0.310 A 
ATOM     12  C   LIG    1       -0.021   1.732   0.012  0.00  0.00    +0.290 A 
ATOM     13  N   LIG    1       -1.178   2.379   0.021  0.00  0.00    -0.540 NA
ATOM     14  C   LIG    1       -1.227   3.709   0.033  0.00  0.00    +0.410 A 
ATOM     15  C   LIG    1       -2.476   4.357   0.049  0.00  0.00    +0.030 A 
ATOM     16  C   LIG    1       -2.524   5.719   0.056  0.00  0.00    +0.140 A 
ATOM     17  C   LIG    1       -1.330   6.453   0.049  0.00  0.00    +0.000 A 
ATOM     18  C   LIG    1       -0.139   5.814   0.035  0.00  0.00    +0.280 A 
ATOM     19  N   LIG    1       -0.080   4.453   0.027  0.00  0.00    -0.430 N 
ATOM     20 CL   LIG    1        0.002  -0.004   0.002  0.00  0.00    +0.010 Cl
ATOM     21  C   LIG    1        1.122   3.837   0.012  0.00  0.00    +0.530 A 
ATOM     22  O   LIG    1        2.153   4.491   0.005  0.00  0.00    -0.510 OA
ENDBRANCH  10  11
BRANCH   1  23
ATOM     23  C   LIG    1        2.487   1.597  -2.562  0.00  0.00    +0.530 C 
ATOM     24  O   LIG    1        3.027   1.802  -3.633  0.00  0.00    -0.520 OA
BRANCH  23  26
ATOM     25  C   LIG    1        0.669   0.679  -3.773  0.00  0.00    +0.260 C 
ATOM     26  O   LIG    1        1.268   1.021  -2.522  0.00  0.00    -0.350 OA
ENDBRANCH  23  26
ENDBRANCH   1  23
TORSDOF 3
