REMARK  Name = ZINCtV00000L6l3l.0
REMARK                            x       y       z     vdW  Elec       q    Type
REMARK                         _______ _______ _______ _____ _____    ______ ____
ROOT
ATOM      1  C   LIG    1        5.896   3.258   0.273  0.00  0.00    +0.120 A 
ATOM      2  C   LIG    1        7.118   3.854   0.367  0.00  0.00    -0.130 A 
ATOM      3  C   LIG    1        8.221   2.917   0.452  0.00  0.00    -0.060 A 
ATOM      4  C   LIG    1        7.831   1.637   0.413  0.00  0.00    -0.230 A 
ATOM      5  C   LIG    1        8.776   0.451   0.479  0.00  0.00    +0.120 C 
ATOM      6  C   LIG    1       10.197   0.935   0.180  0.00  0.00    +0.020 C 
ATOM      7  C   LIG    1       10.503   2.153   1.057  0.00  0.00    +0.020 C 
ATOM      8  C   LIG    1        9.677   3.344   0.568  0.00  0.00    +0.090 C 
ATOM      9  S   LIG    1        6.084   1.514   0.275  0.00  0.00    +0.260 S 
ENDROOT
BRANCH   2  10
ATOM     10  C   LIG    1        7.301   5.316   0.386  0.00  0.00    +0.200 A 
ATOM     11  N   LIG    1        6.342   6.181   0.317  0.00  0.00    -0.500 NA
ATOM     12  C   LIG    1        6.670   7.486   0.346  0.00  0.00    +0.090 A 
ATOM     13  C   LIG    1        5.820   8.611   0.287  0.00  0.00    +0.060 A 
ATOM     14  C   LIG    1        6.342   9.879   0.331  0.00  0.00    +0.040 A 
ATOM     15  C   LIG    1        7.711  10.076   0.435  0.00  0.00    +0.030 A 
ATOM     16  C   LIG    1        8.560   8.993   0.495  0.00  0.00    +0.060 A 
ATOM     17  C   LIG    1        8.049   7.699   0.451  0.00  0.00    -0.190 A 
ATOM     18  S   LIG    1        8.852   6.132   0.513  0.00  0.00    +0.090 S 
ENDBRANCH   2  10
BRANCH   1  22
ATOM     19  N   LIG    1        2.355   3.889   0.001  0.00  0.00    -0.670 N 
ATOM     20  H   LIG    1        2.342   4.856  -0.072  0.00  0.00    +0.410 HD
ATOM     21  C   LIG    1        3.531   3.236   0.088  0.00  0.00    +0.700 C 
ATOM     22  N   LIG    1        4.682   3.931   0.183  0.00  0.00    -0.630 N 
ATOM     23  H   LIG    1        4.664   4.901   0.188  0.00  0.00    +0.430 HD
ATOM     24  O   LIG    1        3.554   2.021   0.082  0.00  0.00    -0.540 OA
BRANCH  19  30
ATOM     25  C   LIG    1       -2.304   3.405  -1.493  0.00  0.00    +0.090 C 
ATOM     26  C   LIG    1       -1.120   2.914  -0.700  0.00  0.00    -0.070 A 
ATOM     27  C   LIG    1       -1.219   1.749   0.038  0.00  0.00    -0.010 A 
ATOM     28  C   LIG    1       -0.137   1.298   0.772  0.00  0.00    +0.040 A 
ATOM     29  C   LIG    1        1.050   2.003   0.760  0.00  0.00    +0.020 A 
ATOM     30  C   LIG    1        1.154   3.171   0.015  0.00  0.00    +0.160 A 
ATOM     31  C   LIG    1        0.064   3.625  -0.716  0.00  0.00    -0.010 A 
ENDBRANCH  19  30
ENDBRANCH   1  22
TORSDOF 3
