REMARK  Name = ZINCrH000004jlcA.0
REMARK                            x       y       z     vdW  Elec       q    Type
REMARK                         _______ _______ _______ _____ _____    ______ ____
ROOT
ATOM      1  N   LIG    1       -0.846   1.526  -1.121  0.00  0.00    -0.510 NA
ATOM      2  C   LIG    1       -0.044   1.298  -2.335  0.00  0.00    +0.240 C 
ATOM      3  C   LIG    1        1.355   1.863  -2.104  0.00  0.00    -0.050 C 
ATOM      4  C   LIG    1        1.277   3.270  -1.575  0.00  0.00    -0.060 A 
ATOM      5  C   LIG    1        2.411   4.065  -1.630  0.00  0.00    +0.030 A 
ATOM      6  C   LIG    1        2.383   5.364  -1.150  0.00  0.00    +0.060 A 
ATOM      7  C   LIG    1        1.207   5.873  -0.612  0.00  0.00    +0.050 A 
ATOM      8  O   LIG    1        1.153   7.145  -0.146  0.00  0.00    -0.310 OA
ATOM      9  C   LIG    1        2.361   7.858   0.065  0.00  0.00    +0.220 C 
ATOM     10  C   LIG    1        3.404   7.524  -0.990  0.00  0.00    +0.220 C 
ATOM     11  C   LIG    1        0.076   5.074  -0.558  0.00  0.00    +0.040 A 
ATOM     12  O   LIG    1        3.504   6.125  -1.204  0.00  0.00    -0.310 OA
ATOM     13  C   LIG    1        0.108   3.775  -1.041  0.00  0.00    -0.110 A 
ATOM     14  C   LIG    1        2.147   1.849  -3.424  0.00  0.00    +0.030 C 
ATOM     15  C   LIG    1        3.591   1.484  -2.995  0.00  0.00    +0.010 C 
ATOM     16  C   LIG    1        3.361   0.446  -1.867  0.00  0.00    +0.020 C 
ATOM     17  C   LIG    1        2.123   0.975  -1.113  0.00  0.00    +0.030 C 
ATOM     18  C   LIG    1       -1.151   2.952  -0.973  0.00  0.00    +0.240 C 
ATOM     19  C   LIG    1       -1.832   3.183   0.378  0.00  0.00    +0.050 C 
ENDROOT
BRANCH   1  20
ATOM     20  C   LIG    1       -0.159   1.007   0.069  0.00  0.00    +0.340 C 
BRANCH  20  24
ATOM     21  C   LIG    1        0.232  -2.553  -0.175  0.00  0.00    +0.170 A 
ATOM     22  N   LIG    1       -0.946  -2.431   0.359  0.00  0.00    -0.380 NA
ATOM     23  O   LIG    1       -1.219  -1.259   0.511  0.00  0.00    +0.090 OA
ATOM     24  C   LIG    1       -0.214  -0.499   0.065  0.00  0.00    +0.200 A 
ATOM     25  N   LIG    1        0.716  -1.313  -0.370  0.00  0.00    -0.470 NA
BRANCH  21  27
ATOM     26  C   LIG    1        1.757  -4.308   0.687  0.00  0.00    +0.040 C 
ATOM     27  C   LIG    1        0.928  -3.846  -0.514  0.00  0.00    +0.160 C 
ENDBRANCH  21  27
ENDBRANCH  20  24
ENDBRANCH   1  20
TORSDOF 3
