REMARK  Name = ZINCrH000004owmZ.0
REMARK                            x       y       z     vdW  Elec       q    Type
REMARK                         _______ _______ _______ _____ _____    ______ ____
ROOT
ATOM      1  C   LIG    1       -6.211  -1.813   0.039  0.00  0.00    +0.090 C 
ATOM      2  C   LIG    1       -4.861  -1.553   0.711  0.00  0.00    +0.230 C 
ATOM      3  C   LIG    1       -4.674  -0.072   0.978  0.00  0.00    +0.530 C 
ATOM      4  N   LIG    1       -3.588   0.291   0.268  0.00  0.00    -0.570 N 
ATOM      5  C   LIG    1       -3.071  -0.742  -0.407  0.00  0.00    +0.710 C 
ATOM      6  O   LIG    1       -2.091  -0.659  -1.121  0.00  0.00    -0.520 OA
ATOM      7  O   LIG    1       -5.360   0.637   1.682  0.00  0.00    -0.430 OA
ATOM      8  N   LIG    1       -3.755  -1.882  -0.204  0.00  0.00    -0.560 N 
ENDROOT
BRANCH   8   9
ATOM      9  C   LIG    1       -3.473  -3.137  -0.758  0.00  0.00    +0.180 A 
ATOM     10  C   LIG    1       -4.275  -4.228  -0.453  0.00  0.00    +0.010 A 
ATOM     11  C   LIG    1       -3.999  -5.463  -1.006  0.00  0.00    +0.020 A 
ATOM     12  C   LIG    1       -2.916  -5.616  -1.855  0.00  0.00    +0.080 A 
ATOM     13  C   LIG    1       -2.111  -4.531  -2.156  0.00  0.00    +0.020 A 
ATOM     14  F   LIG    1       -2.644  -6.827  -2.390  0.00  0.00    -0.140 F 
ATOM     15  C   LIG    1       -2.387  -3.292  -1.610  0.00  0.00    +0.040 A 
ENDBRANCH   8   9
BRANCH   4  16
ATOM     16  C   LIG    1       -3.044   1.651   0.235  0.00  0.00    +0.460 C 
BRANCH  16  17
ATOM     17  C   LIG    1       -2.029   1.813   1.336  0.00  0.00    +0.250 A 
ATOM     18  N   LIG    1       -2.298   2.214   2.545  0.00  0.00    -0.460 NA
ATOM     19  C   LIG    1       -1.155   2.253   3.277  0.00  0.00    +0.050 A 
ATOM     20  C   LIG    1       -0.871   2.606   4.599  0.00  0.00    +0.090 A 
ATOM     21  C   LIG    1        0.425   2.539   5.061  0.00  0.00    -0.040 A 
ATOM     22  C   LIG    1        1.451   2.123   4.223  0.00  0.00    +0.050 A 
ATOM     23  C   LIG    1        1.187   1.772   2.916  0.00  0.00    +0.030 A 
ATOM     24 CL   LIG    1        0.779   2.977   6.703  0.00  0.00    -0.060 Cl
ATOM     25  C   LIG    1       -0.113   1.833   2.434  0.00  0.00    +0.060 A 
ATOM     26  N   LIG    1       -0.698   1.558   1.213  0.00  0.00    -0.480 N 
ATOM     27  C   LIG    1       -0.013   1.086   0.008  0.00  0.00    +0.340 C 
ENDBRANCH  16  17
ENDBRANCH   4  16
TORSDOF 3
