REMARK  Name = ZINCpe00000bSrEE.0
REMARK                            x       y       z     vdW  Elec       q    Type
REMARK                         _______ _______ _______ _____ _____    ______ ____
ROOT
ATOM      1  C   LIG    1       -0.014   1.209   0.009  0.00  0.00    +0.550 C 
ATOM      2  N   LIG    1        1.143   1.898   0.001  0.00  0.00    -0.650 N 
ATOM      3  C   LIG    1        1.531   3.317  -0.001  0.00  0.00    +0.310 C 
ATOM      4  C   LIG    1        2.841   2.902   0.689  0.00  0.00    +0.170 C 
ATOM      5  F   LIG    1        2.769   2.841   2.085  0.00  0.00    -0.160 F 
ATOM      6  C   LIG    1        2.575   1.563  -0.014  0.00  0.00    +0.320 C 
ATOM      7  O   LIG    1        0.002  -0.004   0.002  0.00  0.00    -0.510 OA
ENDROOT
BRANCH   4   8
ATOM      8  C   LIG    1        4.059   3.633   0.187  0.00  0.00    -0.040 A 
ATOM      9  C   LIG    1        4.579   4.779   0.686  0.00  0.00    +0.210 A 
ATOM     10  N   LIG    1        5.668   5.063  -0.079  0.00  0.00    -0.220 N 
ATOM     11  N   LIG    1        5.782   4.142  -0.971  0.00  0.00    -0.050 NA
ATOM     12  N   LIG    1        4.843   3.273  -0.836  0.00  0.00    -0.230 NA
BRANCH  10  13
ATOM     13  C   LIG    1        6.520   6.167   0.079  0.00  0.00    +0.280 A 
ATOM     14  N   LIG    1        6.405   7.106   0.989  0.00  0.00    -0.280 NA
ATOM     15  N   LIG    1        7.450   8.021   0.806  0.00  0.00    -0.350 N 
ATOM     16  C   LIG    1        8.194   7.603  -0.239  0.00  0.00    +0.270 A 
ATOM     17  C   LIG    1        7.693   9.221   1.611  0.00  0.00    +0.380 C 
ATOM     18  C   LIG    1        7.647   6.458  -0.706  0.00  0.00    -0.070 A 
ENDBRANCH  10  13
ENDBRANCH   4   8
BRANCH   1  20
ATOM     19  C   LIG    1       -1.429   2.829  -1.225  0.00  0.00    +0.060 C 
ATOM     20  C   LIG    1       -1.330   1.944   0.019  0.00  0.00    +0.010 C 
BRANCH  20  21
ATOM     21  C   LIG    1       -2.479   0.934   0.019  0.00  0.00    +0.180 C 
ATOM     22  C   LIG    1       -3.829   1.677   0.029  0.00  0.00    +0.010 C 
ATOM     23  C   LIG    1       -4.545   1.181  -1.250  0.00  0.00    +0.010 C 
ATOM     24  C   LIG    1       -3.802  -0.147  -1.544  0.00  0.00    +0.190 C 
ATOM     25  O   LIG    1       -2.435   0.144  -1.181  0.00  0.00    -0.350 OA
ENDBRANCH  20  21
ENDBRANCH   1  20
TORSDOF 4
