REMARK  Name = ZINCrH00000No4tF.0
REMARK                            x       y       z     vdW  Elec       q    Type
REMARK                         _______ _______ _______ _____ _____    ______ ____
ROOT
ATOM      1  C   LIG    1       -0.731   1.931   3.644  0.00  0.00    +0.170 A 
ATOM      2  C   LIG    1       -0.081   1.434   4.756  0.00  0.00    -0.010 A 
ATOM      3  C   LIG    1        1.037   0.606   4.597  0.00  0.00    +0.020 A 
ATOM      4  C   LIG    1        1.485   0.282   3.312  0.00  0.00    -0.030 A 
ATOM      5  C   LIG    1        0.827   0.778   2.207  0.00  0.00    +0.080 A 
ATOM      6  C   LIG    1       -0.281   1.598   2.366  0.00  0.00    +0.090 A 
ENDROOT
BRANCH   4   7
ATOM      7  N   LIG    1        2.666  -0.593   3.138  0.00  0.00    +0.030 N 
ATOM      8  O   LIG    1        3.320  -0.933   4.108  0.00  0.00    -0.150 OA
ATOM      9  O   LIG    1        2.984  -0.974   2.026  0.00  0.00    -0.140 OA
ENDBRANCH   4   7
BRANCH   1  11
ATOM     10  C   LIG    1       -2.220   3.038   5.132  0.00  0.00    +0.260 C 
ATOM     11  O   LIG    1       -1.814   2.739   3.794  0.00  0.00    -0.290 OA
ENDBRANCH   1  11
BRANCH   3  12
ATOM     12  C   LIG    1        1.737   0.078   5.777  0.00  0.00    +0.120 C 
ATOM     13  C   LIG    1        1.230   0.285   7.011  0.00  0.00    -0.050 C 
BRANCH  13  14
ATOM     14  C   LIG    1        1.927  -0.240   8.184  0.00  0.00    +0.550 C 
ATOM     15  N   LIG    1        1.368  -0.128   9.406  0.00  0.00    -0.610 N 
ATOM     16  C   LIG    1        1.997  -0.755  10.577  0.00  0.00    +0.290 C 
ATOM     17  C   LIG    1        0.968  -1.637  11.281  0.00  0.00    -0.040 C 
ATOM     18  C   LIG    1       -0.277  -0.808  11.604  0.00  0.00    +0.030 C 
ATOM     19  C   LIG    1       -0.895  -0.286  10.305  0.00  0.00    -0.030 C 
ATOM     20  C   LIG    1       -2.158   0.516  10.626  0.00  0.00    +0.030 C 
ATOM     21  C   LIG    1        1.566  -2.186  12.578  0.00  0.00    +0.030 C 
ATOM     22  C   LIG    1        0.116   0.617   9.590  0.00  0.00    +0.260 C 
ATOM     23  O   LIG    1        3.011  -0.779   8.058  0.00  0.00    -0.530 OA
ENDBRANCH  13  14
ENDBRANCH   3  12
BRANCH   6  24
ATOM     24  O   LIG    1       -0.927   2.084   1.274  0.00  0.00    -0.300 OA
BRANCH  24  25
ATOM     25  C   LIG    1       -0.410   1.709  -0.005  0.00  0.00    +0.600 C 
ATOM     26  F   LIG    1        0.912   2.152  -0.121  0.00  0.00    -0.190 F 
ATOM     27  F   LIG    1       -0.448   0.316  -0.133  0.00  0.00    -0.190 F 
ENDBRANCH  24  25
ENDBRANCH   6  24
TORSDOF 6
