REMARK  Name = ZINCrH000004rMwM.0
REMARK                            x       y       z     vdW  Elec       q    Type
REMARK                         _______ _______ _______ _____ _____    ______ ____
ROOT
ATOM      1  N   LIG    1        2.566   4.242  -0.071  0.00  0.00    -0.730 N 
ATOM      2  H   LIG    1        3.411   3.765  -0.050  0.00  0.00    +0.400 HD
ATOM      3  C   LIG    1        1.405   3.557  -0.053  0.00  0.00    +0.520 C 
ATOM      4  O   LIG    1        0.349   4.153  -0.079  0.00  0.00    -0.530 OA
ENDROOT
BRANCH   3   5
ATOM      5  C   LIG    1        1.420   2.051  -0.001  0.00  0.00    -0.010 C 
ATOM      6  C   LIG    1       -0.019   1.526   0.010  0.00  0.00    +0.060 C 
ATOM      7  C   LIG    1        0.002  -0.004   0.002  0.00  0.00    +0.210 C 
ATOM      8  N   LIG    1        0.706  -0.479  -1.196  0.00  0.00    -0.470 N 
ATOM      9  C   LIG    1        2.103  -0.026  -1.205  0.00  0.00    +0.200 C 
ATOM     10  C   LIG    1        2.145   1.503  -1.232  0.00  0.00    +0.050 C 
BRANCH   8  11
ATOM     11  C   LIG    1        0.630  -1.863  -1.303  0.00  0.00    +0.320 A 
ATOM     12  C   LIG    1        1.239  -2.506  -2.376  0.00  0.00    -0.030 A 
ATOM     13  C   LIG    1        1.156  -3.883  -2.471  0.00  0.00    +0.110 A 
ATOM     14  C   LIG    1        0.464  -4.575  -1.484  0.00  0.00    -0.120 A 
ATOM     15  C   LIG    1       -0.116  -3.872  -0.446  0.00  0.00    +0.310 A 
ATOM     16 CL   LIG    1        0.330  -6.304  -1.555  0.00  0.00    -0.060 Cl
ATOM     17  N   LIG    1       -0.016  -2.558  -0.380  0.00  0.00    -0.510 NA
ENDBRANCH   8  11
ENDBRANCH   3   5
BRANCH   1  18
ATOM     18  C   LIG    1        2.553   5.706  -0.121  0.00  0.00    +0.290 C 
BRANCH  18  19
ATOM     19  C   LIG    1        3.990   6.229  -0.132  0.00  0.00    +0.180 C 
BRANCH  19  20
ATOM     20  O   LIG    1        4.639   5.815  -1.336  0.00  0.00    -0.330 OA
BRANCH  20  28
ATOM     21  C   LIG    1        5.106   8.275  -2.645  0.00  0.00    +0.090 C 
ATOM     22  C   LIG    1        6.222   7.398  -2.140  0.00  0.00    -0.100 A 
ATOM     23  C   LIG    1        7.537   7.790  -2.304  0.00  0.00    +0.020 A 
ATOM     24  C   LIG    1        8.562   6.983  -1.847  0.00  0.00    +0.020 A 
ATOM     25  C   LIG    1        8.275   5.786  -1.218  0.00  0.00    +0.010 A 
ATOM     26  C   LIG    1        6.962   5.393  -1.046  0.00  0.00    -0.100 A 
ATOM     27  C   LIG    1        6.649   4.087  -0.361  0.00  0.00    +0.090 C 
ATOM     28  C   LIG    1        5.931   6.200  -1.505  0.00  0.00    +0.090 A 
ENDBRANCH  20  28
ENDBRANCH  19  20
ENDBRANCH  18  19
ENDBRANCH   1  18
TORSDOF 6
