REMARK  Name = ZINCkj00000dD4gl.0
REMARK                            x       y       z     vdW  Elec       q    Type
REMARK                         _______ _______ _______ _____ _____    ______ ____
ROOT
ATOM      1  N   LIG    1       -1.094  -0.523  -0.820  0.00  0.00    -1.110 NA
ATOM      2  H   LIG    1       -0.987  -0.597  -1.781  0.00  0.00    +0.430 HD
ENDROOT
BRANCH   1   6
ATOM      3  N   LIG    1        1.413   1.933  -0.001  0.00  0.00    -0.390 N 
ATOM      4  C   LIG    1        2.051   0.963  -0.928  0.00  0.00    +0.280 C 
ATOM      5  C   LIG    1        1.364  -0.383  -0.615  0.00  0.00    +0.010 C 
ATOM      6  C   LIG    1        0.002  -0.004   0.002  0.00  0.00    +0.260 C 
ATOM      7  C   LIG    1        1.159  -1.186  -1.901  0.00  0.00    +0.080 C 
ATOM      8  C   LIG    1       -0.019   1.540   0.011  0.00  0.00    +0.250 C 
ATOM      9  H   LIG    1        1.810   1.851   0.923  0.00  0.00    +0.430 HD
BRANCH   3  11
ATOM     10  C   LIG    1        3.030   3.731  -0.393  0.00  0.00    +0.080 C 
ATOM     11  C   LIG    1        1.565   3.304  -0.507  0.00  0.00    +0.250 C 
ENDBRANCH   3  11
ENDBRANCH   1   6
BRANCH   1  12
ATOM     12  S   LIG    1       -2.516  -0.985  -0.108  0.00  0.00    +2.690 S 
ATOM     13  O   LIG    1       -2.164  -1.821   0.986  0.00  0.00    -0.940 OA
ATOM     14  O   LIG    1       -3.374  -1.403  -1.161  0.00  0.00    -0.940 OA
BRANCH  12  15
ATOM     15  C   LIG    1       -3.246   0.461   0.585  0.00  0.00    -0.730 A 
ATOM     16  C   LIG    1       -2.956   0.824   1.887  0.00  0.00    +0.150 A 
ATOM     17  C   LIG    1       -3.523   1.960   2.431  0.00  0.00    -0.090 A 
ATOM     18  C   LIG    1       -4.393   2.731   1.673  0.00  0.00    +0.190 A 
ATOM     19  C   LIG    1       -4.686   2.361   0.369  0.00  0.00    -0.020 A 
ATOM     20  C   LIG    1       -4.112   1.227  -0.172  0.00  0.00    +0.170 A 
BRANCH  18  21
ATOM     21  O   LIG    1       -4.957   3.846   2.208  0.00  0.00    -0.310 OA
ATOM     22  C   LIG    1       -4.609   4.165   3.557  0.00  0.00    +0.250 C 
ENDBRANCH  18  21
ENDBRANCH  12  15
ENDBRANCH   1  12
TORSDOF 5
