REMARK  Name = ZINCkj00000dD4gl.1
REMARK                            x       y       z     vdW  Elec       q    Type
REMARK                         _______ _______ _______ _____ _____    ______ ____
ROOT
ATOM      1  N   LIG    1        4.346  -1.062  -1.627  0.00  0.00    -1.120 NA
ATOM      2  H   LIG    1        4.391  -1.961  -1.990  0.00  0.00    +0.420 HD
ENDROOT
BRANCH   1   6
ATOM      3  N   LIG    1        3.368  -0.429  -4.448  0.00  0.00    -0.390 N 
ATOM      4  C   LIG    1        4.735  -0.933  -4.676  0.00  0.00    +0.250 C 
ATOM      5  C   LIG    1        5.643  -0.294  -3.604  0.00  0.00    +0.020 C 
ATOM      6  C   LIG    1        4.642   0.089  -2.482  0.00  0.00    +0.280 C 
ATOM      7  C   LIG    1        6.668  -1.307  -3.091  0.00  0.00    +0.080 C 
ATOM      8  C   LIG    1        3.396   0.506  -3.303  0.00  0.00    +0.250 C 
ATOM      9  H   LIG    1        2.754  -1.202  -4.240  0.00  0.00    +0.430 HD
BRANCH   3  11
ATOM     10  C   LIG    1        2.747  -0.726  -6.798  0.00  0.00    +0.080 C 
ATOM     11  C   LIG    1        2.893   0.273  -5.648  0.00  0.00    +0.250 C 
ENDBRANCH   3  11
ENDBRANCH   1   6
BRANCH   1  12
ATOM     12  S   LIG    1        3.933  -0.831  -0.040  0.00  0.00    +2.690 S 
ATOM     13  O   LIG    1        3.677  -2.121   0.500  0.00  0.00    -0.940 OA
ATOM     14  O   LIG    1        4.899   0.060   0.500  0.00  0.00    -0.940 OA
BRANCH  12  15
ATOM     15  C   LIG    1        2.396   0.030  -0.021  0.00  0.00    -0.730 A 
ATOM     16  C   LIG    1        1.208  -0.677  -0.013  0.00  0.00    +0.170 A 
ATOM     17  C   LIG    1        0.002  -0.004   0.002  0.00  0.00    -0.020 A 
ATOM     18  C   LIG    1       -0.017   1.383   0.010  0.00  0.00    +0.190 A 
ATOM     19  C   LIG    1        1.177   2.091   0.002  0.00  0.00    -0.090 A 
ATOM     20  C   LIG    1        2.380   1.413  -0.013  0.00  0.00    +0.160 A 
BRANCH  18  21
ATOM     21  O   LIG    1       -1.202   2.048   0.019  0.00  0.00    -0.310 OA
ATOM     22  C   LIG    1       -1.145   3.475   0.026  0.00  0.00    +0.260 C 
ENDBRANCH  18  21
ENDBRANCH  12  15
ENDBRANCH   1  12
TORSDOF 5
