REMARK  Name = ZINCkj00000kIYAm.2
REMARK                            x       y       z     vdW  Elec       q    Type
REMARK                         _______ _______ _______ _____ _____    ______ ____
ROOT
ATOM      1  C   LIG    1       -1.843   0.229  -3.619  0.00  0.00    +0.500 C 
ATOM      2  N   LIG    1       -1.136   0.147  -4.763  0.00  0.00    -0.590 N 
ATOM      3  C   LIG    1        0.034  -0.736  -4.858  0.00  0.00    +0.280 C 
ATOM      4  C   LIG    1        1.232   0.085  -5.346  0.00  0.00    +0.020 C 
ATOM      5  C   LIG    1        0.866   0.786  -6.656  0.00  0.00    +0.030 C 
ATOM      6  C   LIG    1       -0.307   1.739  -6.416  0.00  0.00    +0.050 C 
ATOM      7  C   LIG    1       -1.526   0.933  -5.942  0.00  0.00    +0.340 C 
ATOM      8  O   LIG    1       -2.746   1.033  -3.521  0.00  0.00    -0.500 OA
ENDROOT
BRANCH   7   9
ATOM      9  C   LIG    1       -2.644   1.874  -5.575  0.00  0.00    +0.170 A 
ATOM     10  N   LIG    1       -2.583   2.847  -4.708  0.00  0.00    -0.250 NA
ATOM     11  N   LIG    1       -3.720   3.444  -4.646  0.00  0.00    -0.290 NA
ATOM     12  C   LIG    1       -4.559   2.879  -5.471  0.00  0.00    +0.380 A 
ATOM     13  N   LIG    1       -3.898   1.869  -6.088  0.00  0.00    -0.580 N 
ATOM     14  H   LIG    1       -4.252   1.264  -6.759  0.00  0.00    +0.430 HD
ENDBRANCH   7   9
BRANCH   1  15
ATOM     15  C   LIG    1       -1.512  -0.677  -2.462  0.00  0.00    +0.290 C 
BRANCH  15  16
ATOM     16  N   LIG    1       -2.510  -0.499  -1.398  0.00  0.00    -0.340 N 
ATOM     17  H   LIG    1       -2.579   0.480  -1.163  0.00  0.00    +0.430 HD
BRANCH  16  18
ATOM     18  C   LIG    1       -2.102  -1.261  -0.211  0.00  0.00    +0.100 C 
ATOM     19  C   LIG    1       -2.182  -0.555   1.144  0.00  0.00    +0.110 C 
ATOM     20  C   LIG    1       -0.820  -0.826   0.502  0.00  0.00    +0.100 C 
ENDBRANCH  16  18
BRANCH  16  22
ATOM     21  C   LIG    1       -4.879  -0.684  -0.808  0.00  0.00    +0.080 C 
ATOM     22  C   LIG    1       -3.815  -0.983  -1.866  0.00  0.00    +0.240 C 
ENDBRANCH  16  22
ENDBRANCH  15  16
ENDBRANCH   1  15
TORSDOF 5
