REMARK  Name = ZINCkj00000kIYAm.0
REMARK                            x       y       z     vdW  Elec       q    Type
REMARK                         _______ _______ _______ _____ _____    ______ ____
ROOT
ATOM      1  C   LIG    1       -0.522   0.113   4.752  0.00  0.00    +0.500 C 
ATOM      2  N   LIG    1       -0.965   0.498   5.965  0.00  0.00    -0.580 N 
ATOM      3  C   LIG    1       -2.162   1.341   6.093  0.00  0.00    +0.280 C 
ATOM      4  C   LIG    1       -1.816   2.572   6.930  0.00  0.00    +0.020 C 
ATOM      5  C   LIG    1       -1.215   2.126   8.265  0.00  0.00    +0.030 C 
ATOM      6  C   LIG    1        0.071   1.338   8.009  0.00  0.00    +0.050 C 
ATOM      7  C   LIG    1       -0.256   0.088   7.185  0.00  0.00    +0.350 C 
ATOM      8  O   LIG    1        0.521  -0.497   4.653  0.00  0.00    -0.500 OA
ENDROOT
BRANCH   7   9
ATOM      9  C   LIG    1        1.019  -0.623   6.814  0.00  0.00    +0.240 A 
ATOM     10  N   LIG    1        1.268  -1.891   7.013  0.00  0.00    -0.310 NA
ATOM     11  N   LIG    1        2.561  -2.134   6.521  0.00  0.00    -0.480 N 
ATOM     12  H   LIG    1        3.034  -2.980   6.523  0.00  0.00    +0.440 HD
ATOM     13  C   LIG    1        3.011  -0.960   6.046  0.00  0.00    +0.490 A 
ATOM     14  N   LIG    1        2.074  -0.064   6.223  0.00  0.00    -0.520 NA
ENDBRANCH   7   9
BRANCH   1  15
ATOM     15  C   LIG    1       -1.324   0.442   3.519  0.00  0.00    +0.290 C 
BRANCH  15  16
ATOM     16  N   LIG    1       -0.711  -0.204   2.350  0.00  0.00    -0.340 N 
ATOM     17  H   LIG    1        0.264   0.051   2.297  0.00  0.00    +0.430 HD
BRANCH  16  18
ATOM     18  C   LIG    1       -1.400   0.236   1.130  0.00  0.00    +0.100 C 
ATOM     19  C   LIG    1       -0.532   0.656  -0.058  0.00  0.00    +0.110 C 
ATOM     20  C   LIG    1       -1.287   1.714   0.750  0.00  0.00    +0.100 C 
ENDBRANCH  16  18
BRANCH  16  22
ATOM     21  C   LIG    1       -0.083  -2.339   1.327  0.00  0.00    +0.080 C 
ATOM     22  C   LIG    1       -0.829  -1.663   2.480  0.00  0.00    +0.250 C 
ENDBRANCH  16  22
ENDBRANCH  15  16
ENDBRANCH   1  15
TORSDOF 5
