REMARK  Name = ZINCkj00000kIYAm.1
REMARK                            x       y       z     vdW  Elec       q    Type
REMARK                         _______ _______ _______ _____ _____    ______ ____
ROOT
ATOM      1  C   LIG    1       -1.648   4.113  -0.240  0.00  0.00    +0.500 C 
ATOM      2  N   LIG    1       -1.850   4.670  -1.451  0.00  0.00    -0.590 N 
ATOM      3  C   LIG    1       -2.626   3.964  -2.480  0.00  0.00    +0.280 C 
ATOM      4  C   LIG    1       -1.790   3.884  -3.760  0.00  0.00    +0.020 C 
ATOM      5  C   LIG    1       -1.345   5.292  -4.164  0.00  0.00    +0.030 C 
ATOM      6  C   LIG    1       -0.476   5.891  -3.056  0.00  0.00    +0.050 C 
ATOM      7  C   LIG    1       -1.302   5.997  -1.766  0.00  0.00    +0.340 C 
ATOM      8  O   LIG    1       -0.924   4.660   0.565  0.00  0.00    -0.490 OA
ENDROOT
BRANCH   7   9
ATOM      9  C   LIG    1       -0.420   6.460  -0.635  0.00  0.00    +0.180 A 
ATOM     10  N   LIG    1        0.683   5.892  -0.232  0.00  0.00    -0.250 NA
ATOM     11  N   LIG    1        1.177   6.554   0.754  0.00  0.00    -0.290 NA
ATOM     12  C   LIG    1        0.410   7.575   1.024  0.00  0.00    +0.380 A 
ATOM     13  N   LIG    1       -0.622   7.548   0.147  0.00  0.00    -0.580 N 
ATOM     14  H   LIG    1       -1.358   8.178   0.092  0.00  0.00    +0.430 HD
ENDBRANCH   7   9
BRANCH   1  15
ATOM     15  C   LIG    1       -2.321   2.812   0.112  0.00  0.00    +0.280 C 
BRANCH  15  16
ATOM     16  N   LIG    1       -1.943   2.419   1.476  0.00  0.00    -0.340 N 
ATOM     17  H   LIG    1       -0.937   2.385   1.550  0.00  0.00    +0.430 HD
BRANCH  16  18
ATOM     18  C   LIG    1       -2.471   3.401   2.433  0.00  0.00    +0.090 C 
ATOM     19  C   LIG    1       -1.458   4.206   3.250  0.00  0.00    +0.120 C 
ATOM     20  C   LIG    1       -2.284   3.107   3.922  0.00  0.00    +0.090 C 
ENDBRANCH  16  18
BRANCH  16  22
ATOM     21  C   LIG    1       -1.858   0.050   0.862  0.00  0.00    +0.080 C 
ATOM     22  C   LIG    1       -2.502   1.094   1.776  0.00  0.00    +0.250 C 
ENDBRANCH  16  22
ENDBRANCH  15  16
ENDBRANCH   1  15
TORSDOF 5
