REMARK  Name = ZINCb70000004T16.1
REMARK                            x       y       z     vdW  Elec       q    Type
REMARK                         _______ _______ _______ _____ _____    ______ ____
ROOT
ATOM      1  C   LIG    1       -0.455   2.992   1.391  0.00  0.00    +0.190 C 
ATOM      2  N   LIG    1       -0.629   1.538   1.304  0.00  0.00    -0.510 N 
ATOM      3  C   LIG    1        0.127   1.036   0.146  0.00  0.00    +0.280 C 
ATOM      4  C   LIG    1       -0.563   1.503  -1.137  0.00  0.00    +0.310 C 
ATOM      5  N   LIG    1       -0.799   2.944  -1.078  0.00  0.00    -0.720 N 
ATOM      6  H   LIG    1       -0.987   3.419  -1.902  0.00  0.00    +0.430 HD
ATOM      7  H   LIG    1       -0.284   1.103   2.147  0.00  0.00    +0.440 HD
ATOM      8  H   LIG    1       -1.608   1.323   1.188  0.00  0.00    +0.430 HD
ATOM      9  C   LIG    1       -0.766   3.633   0.069  0.00  0.00    +0.510 C 
ATOM     10  O   LIG    1       -0.995   4.824   0.038  0.00  0.00    -0.480 OA
ENDROOT
BRANCH   1  12
ATOM     11  C   LIG    1       -2.847   3.390   1.994  0.00  0.00    +0.050 C 
ATOM     12  C   LIG    1       -1.398   3.550   2.459  0.00  0.00    -0.070 C 
ATOM     13  C   LIG    1       -1.096   5.033   2.682  0.00  0.00    +0.080 C 
ATOM     14  C   LIG    1       -1.195   2.786   3.769  0.00  0.00    +0.050 C 
ENDBRANCH   1  12
TORSDOF 1
