REMARK  Name = ZINCrg00000Bi316.0
REMARK                            x       y       z     vdW  Elec       q    Type
REMARK                         _______ _______ _______ _____ _____    ______ ____
ROOT
ATOM      1  C   LIG    1       -0.997   1.758  -3.630  0.00  0.00    +0.250 C 
ATOM      2  C   LIG    1       -0.064   1.768  -4.869  0.00  0.00    +0.050 C 
ATOM      3  C   LIG    1       -1.050   1.619  -6.046  0.00  0.00    +0.250 C 
ATOM      4  N   LIG    1       -2.278   1.011  -5.512  0.00  0.00    -0.620 N 
ATOM      5  C   LIG    1       -3.390   0.733  -6.222  0.00  0.00    +0.600 C 
ATOM      6  O   LIG    1       -4.350   0.227  -5.673  0.00  0.00    -0.520 OA
ATOM      7  C   LIG    1       -2.091   0.754  -4.072  0.00  0.00    +0.260 C 
ENDROOT
BRANCH   5   8
ATOM      8  C   LIG    1       -3.442   1.043  -7.662  0.00  0.00    -0.190 A 
ATOM      9  C   LIG    1       -2.460   1.613  -8.420  0.00  0.00    +0.250 A 
ATOM     10  O   LIG    1       -2.905   1.719  -9.676  0.00  0.00    -0.140 OA
ATOM     11  C   LIG    1       -4.158   1.247  -9.784  0.00  0.00    -0.070 A 
ATOM     12  C   LIG    1       -5.295   1.018 -10.756  0.00  0.00    +0.360 C 
ATOM     13  O   LIG    1       -6.471   0.825  -9.949  0.00  0.00    -0.340 OA
ATOM     14  C   LIG    1       -5.967   0.285  -8.712  0.00  0.00    +0.310 C 
ATOM     15  C   LIG    1       -4.561   0.811  -8.578  0.00  0.00    -0.180 A 
ENDBRANCH   5   8
BRANCH   1  18
ATOM     16  O   LIG    1       -1.736   2.268  -1.088  0.00  0.00    -0.520 OA
ATOM     17  C   LIG    1       -0.742   1.585  -1.213  0.00  0.00    +0.500 C 
ATOM     18  N   LIG    1       -0.288   1.272  -2.443  0.00  0.00    -0.720 N 
ATOM     19  H   LIG    1        0.507   0.726  -2.543  0.00  0.00    +0.400 HD
BRANCH  17  20
ATOM     20  C   LIG    1       -0.013   1.086   0.008  0.00  0.00    +0.320 C 
BRANCH  20  21
ATOM     21  N   LIG    1       -0.698   1.558   1.213  0.00  0.00    -0.590 N 
ATOM     22  C   LIG    1       -0.313   2.844   1.817  0.00  0.00    +0.270 C 
ATOM     23  C   LIG    1       -1.435   3.859   1.551  0.00  0.00    +0.010 C 
ATOM     24  C   LIG    1       -2.503   3.777   2.626  0.00  0.00    +0.010 C 
ATOM     25  C   LIG    1       -3.284   2.475   2.616  0.00  0.00    +0.040 C 
ATOM     26  C   LIG    1       -2.383   1.300   3.002  0.00  0.00    +0.050 C 
ATOM     27  C   LIG    1       -1.664   0.818   1.760  0.00  0.00    +0.520 C 
ATOM     28  O   LIG    1       -1.966  -0.245   1.260  0.00  0.00    -0.550 OA
ENDBRANCH  20  21
ENDBRANCH  17  20
ENDBRANCH   1  18
TORSDOF 4
