REMARK  Name = ZINCrD00000hQ6xh.0
REMARK                            x       y       z     vdW  Elec       q    Type
REMARK                         _______ _______ _______ _____ _____    ______ ____
ROOT
ATOM      1  O   LIG    1       -0.091  -2.605  -0.704  0.00  0.00    -0.580 OA
ATOM      2  C   LIG    1       -0.271  -1.812  -1.608  0.00  0.00    +0.710 C 
ATOM      3  N   LIG    1       -0.498  -2.258  -2.860  0.00  0.00    -0.740 N 
ATOM      4  H   LIG    1       -0.641  -1.626  -3.581  0.00  0.00    +0.390 HD
ATOM      5  N   LIG    1       -0.244  -0.488  -1.359  0.00  0.00    -0.740 N 
ATOM      6  H   LIG    1       -0.388   0.144  -2.080  0.00  0.00    +0.400 HD
ENDROOT
BRANCH   3   7
ATOM      7  C   LIG    1       -0.527  -3.697  -3.131  0.00  0.00    +0.240 C 
ATOM      8  C   LIG    1       -1.930  -4.243  -2.848  0.00  0.00    +0.020 C 
ATOM      9  C   LIG    1       -1.970  -5.731  -3.209  0.00  0.00    +0.010 C 
ATOM     10  C   LIG    1       -1.564  -5.904  -4.675  0.00  0.00    +0.220 C 
ATOM     11  O   LIG    1       -0.262  -5.348  -4.876  0.00  0.00    -0.360 OA
ATOM     12  C   LIG    1       -0.177  -3.949  -4.600  0.00  0.00    +0.210 C 
BRANCH  12  13
ATOM     13  C   LIG    1        1.226  -3.468  -4.871  0.00  0.00    -0.040 A 
ATOM     14  C   LIG    1        2.318  -4.281  -4.610  0.00  0.00    +0.000 A 
ATOM     15  C   LIG    1        3.589  -3.808  -4.876  0.00  0.00    +0.260 A 
ATOM     16  N   LIG    1        3.769  -2.596  -5.363  0.00  0.00    -0.480 NA
ATOM     17  C   LIG    1        2.755  -1.793  -5.617  0.00  0.00    +0.260 A 
ATOM     18  C   LIG    1        1.455  -2.200  -5.382  0.00  0.00    -0.030 A 
ENDBRANCH  12  13
ENDBRANCH   3   7
BRANCH   5  19
ATOM     19  C   LIG    1        0.002  -0.004   0.002  0.00  0.00    +0.350 C 
BRANCH  19  20
ATOM     20  C   LIG    1       -0.018   1.503   0.010  0.00  0.00    -0.120 A 
ATOM     21  C   LIG    1        1.168   2.206   0.003  0.00  0.00    +0.100 A 
ATOM     22  C   LIG    1        1.161   3.590   0.009  0.00  0.00    -0.070 A 
ATOM     23  C   LIG    1       -0.045   4.270   0.020  0.00  0.00    +0.090 A 
ATOM     24  C   LIG    1       -1.231   3.569   0.024  0.00  0.00    -0.170 A 
ATOM     25  C   LIG    1       -2.679   4.018   0.018  0.00  0.00    +0.090 C 
ATOM     26  C   LIG    1       -3.414   2.717  -0.395  0.00  0.00    +0.240 C 
ATOM     27  O   LIG    1       -2.506   1.692   0.041  0.00  0.00    -0.290 OA
ATOM     28 CL   LIG    1        2.657   4.469   0.004  0.00  0.00    -0.060 Cl
ATOM     29  C   LIG    1       -1.235   2.180   0.020  0.00  0.00    +0.130 A 
ENDBRANCH  19  20
ENDBRANCH   5  19
TORSDOF 4
