REMARK  Name = ZINCpk00000kUkHC.0
REMARK                            x       y       z     vdW  Elec       q    Type
REMARK                         _______ _______ _______ _____ _____    ______ ____
ROOT
ATOM      1  C   LIG    1        2.362   0.853   0.593  0.00  0.00    +0.320 C 
ATOM      2  N   LIG    1        3.659   1.487   0.392  0.00  0.00    -0.700 N 
ATOM      3  H   LIG    1        4.397   1.199   0.951  0.00  0.00    +0.410 HD
ATOM      4  C   LIG    1        3.895   2.438  -0.512  0.00  0.00    +0.530 C 
ATOM      5  C   LIG    1        2.834   3.011  -1.408  0.00  0.00    +0.090 C 
ATOM      6  C   LIG    1        1.622   2.077  -1.443  0.00  0.00    +0.040 C 
ATOM      7  O   LIG    1        5.026   2.863  -0.617  0.00  0.00    -0.540 OA
ATOM      8  C   LIG    1        1.248   1.716  -0.001  0.00  0.00    +0.260 C 
ENDROOT
BRANCH   1  14
ATOM      9  C   LIG    1        1.299  -1.702   1.986  0.00  0.00    +0.330 C 
ATOM     10  N   LIG    1        1.655  -0.450   2.659  0.00  0.00    -0.450 N 
ATOM     11  C   LIG    1        1.582  -0.202   4.003  0.00  0.00    +0.140 A 
ATOM     12  C   LIG    1        1.996   1.067   4.187  0.00  0.00    +0.150 A 
ATOM     13  N   LIG    1        2.318   1.576   2.989  0.00  0.00    -0.460 NA
ATOM     14  C   LIG    1        2.119   0.672   2.069  0.00  0.00    +0.170 A 
ENDBRANCH   1  14
BRANCH   8  15
ATOM     15  N   LIG    1       -0.011   0.966   0.007  0.00  0.00    -0.720 N 
ATOM     16  H   LIG    1        0.002  -0.004   0.002  0.00  0.00    +0.400 HD
ATOM     17  C   LIG    1       -1.187   1.624   0.017  0.00  0.00    +0.570 C 
ATOM     18  O   LIG    1       -1.204   2.839   0.023  0.00  0.00    -0.510 OA
BRANCH  17  19
ATOM     19  C   LIG    1       -2.460   0.866   0.018  0.00  0.00    -0.080 A 
ATOM     20  C   LIG    1       -2.464  -0.532   0.005  0.00  0.00    -0.020 A 
ATOM     21  C   LIG    1       -3.674  -1.199   0.013  0.00  0.00    +0.280 A 
ATOM     22  N   LIG    1       -4.812  -0.535   0.022  0.00  0.00    -0.460 NA
ATOM     23  C   LIG    1       -4.854   0.782   0.029  0.00  0.00    +0.160 A 
ATOM     24  C   LIG    1       -3.691   1.529   0.028  0.00  0.00    +0.040 A 
BRANCH  23  25
ATOM     25  C   LIG    1       -6.187   1.484   0.040  0.00  0.00    +0.020 C 
ATOM     26  C   LIG    1       -6.204   2.964   0.427  0.00  0.00    +0.040 C 
ATOM     27  C   LIG    1       -6.750   1.912   1.396  0.00  0.00    +0.040 C 
ENDBRANCH  23  25
ENDBRANCH  17  19
ENDBRANCH   8  15
TORSDOF 4
