REMARK  Name = ZINCrD000000fRC1.0
REMARK                            x       y       z     vdW  Elec       q    Type
REMARK                         _______ _______ _______ _____ _____    ______ ____
ROOT
ATOM      1  C   LIG    1        8.095   2.937   0.251  0.00  0.00    +0.020 C 
ATOM      2  C   LIG    1        8.139   1.850  -0.825  0.00  0.00    +0.090 C 
ENDROOT
BRANCH   1   5
ATOM      3  N   LIG    1       10.004   4.420  -0.273  0.00  0.00    -0.650 N 
ATOM      4  H   LIG    1        9.453   4.842  -0.951  0.00  0.00    +0.420 HD
ATOM      5  C   LIG    1        9.490   3.448   0.506  0.00  0.00    +0.540 C 
ATOM      6  O   LIG    1       10.150   2.984   1.411  0.00  0.00    -0.500 OA
BRANCH   3  12
ATOM      7  C   LIG    1       11.690   6.163  -0.305  0.00  0.00    -0.210 A 
ATOM      8  C   LIG    1       13.023   6.552  -0.127  0.00  0.00    +0.090 A 
ATOM      9  C   LIG    1       13.968   5.616   0.230  0.00  0.00    -0.020 A 
ATOM     10  C   LIG    1       13.607   4.292   0.420  0.00  0.00    +0.070 A 
ATOM     11  C   LIG    1       12.295   3.893   0.254  0.00  0.00    +0.000 A 
ATOM     12  C   LIG    1       11.327   4.820  -0.105  0.00  0.00    +0.210 A 
BRANCH   7  14
ATOM     13  C   LIG    1       11.091   8.564  -1.023  0.00  0.00    +0.090 C 
ATOM     14  C   LIG    1       10.678   7.153  -0.692  0.00  0.00    +0.400 C 
ATOM     15  O   LIG    1        9.508   6.835  -0.746  0.00  0.00    -0.470 OA
ENDBRANCH   7  14
ENDBRANCH   3  12
ENDBRANCH   1   5
BRANCH   1  16
ATOM     16  S   LIG    1        7.416   2.244   1.784  0.00  0.00    +0.100 S 
BRANCH  16  17
ATOM     17  C   LIG    1        5.760   1.843   1.337  0.00  0.00    -0.070 A 
ATOM     18  N   LIG    1        5.214   2.025   0.170  0.00  0.00    -0.250 NA
ATOM     19  N   LIG    1        4.010   1.679   0.025  0.00  0.00    -0.280 NA
ATOM     20  C   LIG    1        3.400   1.165   1.050  0.00  0.00    +0.230 A 
ATOM     21  S   LIG    1        4.541   1.129   2.396  0.00  0.00    +0.230 S 
BRANCH  20  22
ATOM     22  N   LIG    1        2.079   0.727   1.082  0.00  0.00    -0.480 N 
ATOM     23  C   LIG    1        1.543   0.285   2.238  0.00  0.00    +0.510 C 
ATOM     24  O   LIG    1        2.181   0.356   3.267  0.00  0.00    -0.500 OA
ATOM     25  C   LIG    1        0.153  -0.297   2.250  0.00  0.00    +0.150 C 
BRANCH  22  26
ATOM     26  C   LIG    1        1.270   0.745  -0.140  0.00  0.00    +0.190 C 
ATOM     27  C   LIG    1        1.846   0.054  -1.378  0.00  0.00    +0.040 C 
ATOM     28  C   LIG    1        1.783   1.582  -1.313  0.00  0.00    +0.070 C 
ENDBRANCH  22  26
ENDBRANCH  20  22
ENDBRANCH  16  17
ENDBRANCH   1  16
TORSDOF 7
