REMARK  Name = ZINCpk00000eajk5.0
REMARK                            x       y       z     vdW  Elec       q    Type
REMARK                         _______ _______ _______ _____ _____    ______ ____
ROOT
ATOM      1  C   LIG    1        1.184   2.087   0.002  0.00  0.00    -0.120 A 
ATOM      2  C   LIG    1       -0.017   1.375   0.010  0.00  0.00    +0.080 A 
ATOM      3  C   LIG    1        0.002  -0.004   0.002  0.00  0.00    +0.030 A 
ATOM      4  C   LIG    1        1.208  -0.682  -0.013  0.00  0.00    -0.070 A 
ATOM      5  C   LIG    1        2.402   0.016  -0.021  0.00  0.00    +0.030 A 
ATOM      6  C   LIG    1        2.397   1.396  -0.013  0.00  0.00    +0.050 A 
ENDROOT
BRANCH   4   7
ATOM      7  C   LIG    1        1.221  -2.189  -0.021  0.00  0.00    +0.160 C 
ATOM      8  N   LIG    1        0.068  -2.714  -0.774  0.00  0.00    -0.720 N 
ATOM      9  H   LIG    1       -0.870  -2.579  -0.566  0.00  0.00    +0.440 HD
ATOM     10  C   LIG    1        0.575  -3.416  -1.808  0.00  0.00    +0.710 C 
ATOM     11  N   LIG    1        1.913  -3.416  -1.819  0.00  0.00    -0.680 N 
ATOM     12  H   LIG    1        2.452  -3.869  -2.487  0.00  0.00    +0.440 HD
ATOM     13  O   LIG    1       -0.107  -3.986  -2.636  0.00  0.00    -0.530 OA
ATOM     14  C   LIG    1        1.222  -2.733   1.409  0.00  0.00    +0.110 C 
ATOM     15  C   LIG    1        2.419  -2.709  -0.790  0.00  0.00    +0.540 C 
ATOM     16  O   LIG    1        3.590  -2.525  -0.533  0.00  0.00    -0.460 OA
ENDBRANCH   4   7
BRANCH   1  19
ATOM     17  N   LIG    1        2.333   4.249   0.003  0.00  0.00    -0.720 N 
ATOM     18  H   LIG    1        3.177   3.771  -0.008  0.00  0.00    +0.400 HD
ATOM     19  C   LIG    1        1.172   3.565   0.011  0.00  0.00    +0.560 C 
ATOM     20  O   LIG    1        0.114   4.164   0.024  0.00  0.00    -0.530 OA
BRANCH  17  26
ATOM     21  C   LIG    1        3.630   6.231   0.611  0.00  0.00    +0.150 C 
ATOM     22  C   LIG    1        3.617   7.761   0.620  0.00  0.00    +0.010 C 
ATOM     23  C   LIG    1        3.473   8.278  -0.812  0.00  0.00    +0.010 C 
ATOM     24  C   LIG    1        2.164   7.761  -1.412  0.00  0.00    +0.020 C 
ATOM     25  C   LIG    1        2.177   6.231  -1.421  0.00  0.00    +0.020 C 
ATOM     26  C   LIG    1        2.321   5.714   0.012  0.00  0.00    +0.250 C 
BRANCH  21  28
ATOM     27  C   LIG    1        5.118   5.564   2.368  0.00  0.00    +0.200 C 
ATOM     28  O   LIG    1        3.764   5.748   1.950  0.00  0.00    -0.380 OA
ENDBRANCH  21  28
ENDBRANCH  17  26
ENDBRANCH   1  19
TORSDOF 4
