REMARK  Name = ZINCvU0000000Edr.0
REMARK                            x       y       z     vdW  Elec       q    Type
REMARK                         _______ _______ _______ _____ _____    ______ ____
ROOT
ATOM      1  C   LIG    1        5.399  -4.988   0.595  0.00  0.00    -0.110 C 
ATOM      2  C   LIG    1        6.642  -5.277   0.134  0.00  0.00    +0.210 C 
ATOM      3  C   LIG    1        6.890  -6.713   0.111  0.00  0.00    -0.080 C 
ATOM      4  C   LIG    1        5.645  -7.405   0.621  0.00  0.00    +0.080 C 
ATOM      5  C   LIG    1        8.027  -7.317  -0.294  0.00  0.00    +0.030 C 
ATOM      6  C   LIG    1        4.669  -6.261   0.943  0.00  0.00    +0.100 C 
ENDROOT
BRANCH   5   7
ATOM      7  C   LIG    1        8.084  -8.784  -0.397  0.00  0.00    -0.030 A 
ATOM      8  C   LIG    1        6.990  -9.496  -0.898  0.00  0.00    +0.060 A 
ATOM      9  C   LIG    1        7.052 -10.870  -0.997  0.00  0.00    +0.040 A 
ATOM     10  C   LIG    1        8.191 -11.546  -0.592  0.00  0.00    -0.030 A 
ATOM     11  C   LIG    1        9.277 -10.849  -0.089  0.00  0.00    +0.050 A 
ATOM     12 CL   LIG    1        8.258 -13.276  -0.715  0.00  0.00    -0.050 Cl
ATOM     13  C   LIG    1        9.232  -9.474   0.011  0.00  0.00    -0.020 A 
ATOM     14 CL   LIG    1       10.594  -8.601   0.641  0.00  0.00    -0.050 Cl
ENDBRANCH   5   7
BRANCH   2  15
ATOM     15  N   LIG    1        7.566  -4.319  -0.267  0.00  0.00    -0.660 N 
ATOM     16  C   LIG    1        8.117  -3.349   0.693  0.00  0.00    +0.240 C 
ATOM     17  C   LIG    1        9.649  -3.368   0.567  0.00  0.00    +0.210 C 
ATOM     18  O   LIG    1       10.009  -3.179  -0.804  0.00  0.00    -0.380 OA
ATOM     19  C   LIG    1        9.551  -4.213  -1.678  0.00  0.00    +0.190 C 
ATOM     20  C   LIG    1        8.018  -4.240  -1.666  0.00  0.00    +0.250 C 
ENDBRANCH   2  15
BRANCH   1  22
ATOM     21  N   LIG    1        3.625  -3.526   1.096  0.00  0.00    -0.220 NA
ATOM     22  C   LIG    1        4.869  -3.689   0.734  0.00  0.00    +0.230 C 
BRANCH  21  24
ATOM     23  C   LIG    1        1.815  -2.067   1.607  0.00  0.00    +0.610 C 
ATOM     24  N   LIG    1        3.099  -2.235   1.233  0.00  0.00    -0.580 N 
ATOM     25  H   LIG    1        3.659  -1.462   1.060  0.00  0.00    +0.390 HD
ATOM     26  O   LIG    1        1.113  -3.037   1.825  0.00  0.00    -0.500 OA
BRANCH  23  29
ATOM     27  C   LIG    1       -1.115  -1.336   2.456  0.00  0.00    +0.200 C 
ATOM     28  C   LIG    1       -0.008  -0.371   2.120  0.00  0.00    +0.090 A 
ATOM     29  C   LIG    1        1.261  -0.709   1.752  0.00  0.00    -0.250 A 
ATOM     30  C   LIG    1        1.962   0.565   1.530  0.00  0.00    -0.030 A 
ATOM     31  C   LIG    1        1.063   1.529   1.781  0.00  0.00    +0.180 A 
ATOM     32  O   LIG    1       -0.103   0.963   2.130  0.00  0.00    -0.170 OA
ENDBRANCH  23  29
ENDBRANCH  21  24
ENDBRANCH   1  22
TORSDOF 5
