REMARK  Name = ZINCvU0000000DUR.0
REMARK                            x       y       z     vdW  Elec       q    Type
REMARK                         _______ _______ _______ _____ _____    ______ ____
ROOT
ATOM      1  N   LIG    1        4.953   5.740  -0.058  0.00  0.00    -0.540 NA
ATOM      2  C   LIG    1        4.906   4.445   0.031  0.00  0.00    +0.340 A 
ATOM      3  S   LIG    1        6.278   3.350   0.264  0.00  0.00    +0.050 S 
ATOM      4  C   LIG    1        5.333   1.911   0.271  0.00  0.00    -0.090 A 
ATOM      5  C   LIG    1        3.948   2.351   0.080  0.00  0.00    +0.140 A 
ATOM      6  N   LIG    1        3.780   3.656  -0.035  0.00  0.00    -0.350 N 
ENDROOT
BRANCH   6   7
ATOM      7  N   LIG    1        2.509   4.215  -0.218  0.00  0.00    -0.280 NA
ATOM      8  C   LIG    1        2.215   4.804  -1.330  0.00  0.00    +0.190 C 
ATOM      9  C   LIG    1        3.182   4.791  -2.493  0.00  0.00    +0.050 C 
ATOM     10  C   LIG    1        2.427   4.313  -3.743  0.00  0.00    +0.050 C 
ATOM     11  C   LIG    1        1.195   5.194  -3.958  0.00  0.00    +0.040 C 
ATOM     12  C   LIG    1        0.229   5.029  -2.784  0.00  0.00    +0.040 C 
ATOM     13  C   LIG    1        0.899   5.529  -1.499  0.00  0.00    +0.120 C 
BRANCH  11  14
ATOM     14  C   LIG    1        0.505   4.787  -5.235  0.00  0.00    -0.080 A 
ATOM     15  C   LIG    1        0.024   3.500  -5.381  0.00  0.00    +0.010 A 
ATOM     16  C   LIG    1       -0.612   3.128  -6.550  0.00  0.00    +0.000 A 
ATOM     17  C   LIG    1       -0.759   4.042  -7.577  0.00  0.00    +0.000 A 
ATOM     18  C   LIG    1       -0.274   5.328  -7.433  0.00  0.00    +0.000 A 
ATOM     19  C   LIG    1        0.358   5.701  -6.262  0.00  0.00    +0.000 A 
ENDBRANCH  11  14
ENDBRANCH   6   7
BRANCH   5  20
ATOM     20  C   LIG    1        2.827   1.409   0.025  0.00  0.00    +0.020 A 
ATOM     21  C   LIG    1        2.893   0.279  -0.807  0.00  0.00    +0.070 A 
ATOM     22  C   LIG    1        1.834  -0.600  -0.851  0.00  0.00    +0.110 A 
ATOM     23  C   LIG    1        0.706  -0.372  -0.078  0.00  0.00    +0.000 A 
ATOM     24  C   LIG    1        0.631   0.741   0.746  0.00  0.00    +0.110 A 
ATOM     25  C   LIG    1        1.679   1.631   0.804  0.00  0.00    +0.080 A 
BRANCH  23  26
ATOM     26  N   LIG    1       -0.427  -1.323  -0.133  0.00  0.00    -0.020 N 
ATOM     27  O   LIG    1       -1.502  -1.111   0.599  0.00  0.00    -0.160 OA
ATOM     28  O   LIG    1       -0.361  -2.381  -0.914  0.00  0.00    -0.170 OA
ENDBRANCH  23  26
ENDBRANCH   5  20
BRANCH   1  29
ATOM     29  C   LIG    1        6.247   6.427  -0.082  0.00  0.00    +0.250 C 
BRANCH  29  31
ATOM     30  C   LIG    1        6.694   8.384  -1.472  0.00  0.00    +0.030 C 
ATOM     31  C   LIG    1        6.433   7.101  -1.417  0.00  0.00    -0.040 C 
ENDBRANCH  29  31
ENDBRANCH   1  29
TORSDOF 6
