REMARK  Name = ZINCnE000001Oiy9.0
REMARK                            x       y       z     vdW  Elec       q    Type
REMARK                         _______ _______ _______ _____ _____    ______ ____
ROOT
ATOM      1  C   LIG    1       -4.519   4.473  -2.370  0.00  0.00    +0.030 A 
ATOM      2  C   LIG    1       -5.761   4.716  -2.847  0.00  0.00    -0.020 A 
ATOM      3  S   LIG    1       -5.963   6.402  -3.051  0.00  0.00    +0.180 S 
ATOM      4  C   LIG    1       -4.327   6.686  -2.468  0.00  0.00    +0.080 A 
ATOM      5  N   LIG    1       -3.772   5.551  -2.171  0.00  0.00    -0.420 NA
ENDROOT
BRANCH   1  11
ATOM      6  C   LIG    1       -2.145   1.564   1.255  0.00  0.00    +0.040 C 
ATOM      7  C   LIG    1       -1.330   1.951   0.019  0.00  0.00    -0.140 C 
ATOM      8  C   LIG    1       -1.092   3.475  -0.011  0.00  0.00    +0.030 C 
ATOM      9  C   LIG    1       -1.764   3.958  -1.314  0.00  0.00    +0.260 C 
ATOM     10  N   LIG    1       -2.786   2.927  -1.612  0.00  0.00    -0.600 N 
ATOM     11  C   LIG    1       -4.034   3.112  -2.087  0.00  0.00    +0.600 C 
ATOM     12  O   LIG    1       -4.759   2.155  -2.281  0.00  0.00    -0.550 OA
ATOM     13  C   LIG    1       -2.126   1.644  -1.267  0.00  0.00    +0.280 C 
BRANCH   7  14
ATOM     14  C   LIG    1       -0.015   1.215   0.009  0.00  0.00    +0.510 C 
ATOM     15  O   LIG    1        1.033   1.839   0.002  0.00  0.00    -0.690 OA
ATOM     16  O   LIG    1        0.002  -0.004   0.002  0.00  0.00    -0.690 OA
ENDBRANCH   7  14
ENDBRANCH   1  11
BRANCH   4  17
ATOM     17  C   LIG    1       -3.686   8.012  -2.333  0.00  0.00    -0.010 A 
ATOM     18  C   LIG    1       -4.387   9.168  -2.681  0.00  0.00    +0.030 A 
ATOM     19  C   LIG    1       -3.784  10.402  -2.553  0.00  0.00    +0.040 A 
ATOM     20  C   LIG    1       -2.487  10.497  -2.080  0.00  0.00    +0.040 A 
ATOM     21  C   LIG    1       -1.786   9.354  -1.734  0.00  0.00    -0.030 A 
ATOM     22 CL   LIG    1       -0.159   9.482  -1.142  0.00  0.00    -0.060 Cl
ATOM     23  C   LIG    1       -2.380   8.113  -1.853  0.00  0.00    +0.090 A 
ENDBRANCH   4  17
TORSDOF 3
