REMARK  Name = ZINCrg000000tXdn.0
REMARK                            x       y       z     vdW  Elec       q    Type
REMARK                         _______ _______ _______ _____ _____    ______ ____
ROOT
ATOM      1  C   LIG    1       -4.578  -2.546   0.348  0.00  0.00    +0.250 A 
ATOM      2  N   LIG    1       -3.958  -2.390  -0.794  0.00  0.00    -0.390 NA
ATOM      3  O   LIG    1       -3.807  -1.209  -1.028  0.00  0.00    +0.080 OA
ATOM      4  C   LIG    1       -4.326  -0.476  -0.038  0.00  0.00    +0.200 A 
ATOM      5  N   LIG    1       -4.815  -1.310   0.845  0.00  0.00    -0.450 NA
ENDROOT
BRANCH   4   6
ATOM      6  C   LIG    1       -4.341   1.028   0.049  0.00  0.00    +0.130 C 
ATOM      7  C   LIG    1       -5.092   1.604  -1.156  0.00  0.00    +0.010 C 
ATOM      8  C   LIG    1       -5.032   3.132  -1.102  0.00  0.00    +0.220 C 
ATOM      9  O   LIG    1       -3.667   3.555  -1.083  0.00  0.00    -0.370 OA
ATOM     10  C   LIG    1       -2.927   3.086   0.046  0.00  0.00    +0.240 C 
ATOM     11  C   LIG    1       -2.903   1.556   0.038  0.00  0.00    -0.090 C 
ATOM     12  C   LIG    1       -2.188   1.063  -1.221  0.00  0.00    +0.040 C 
ATOM     13  C   LIG    1       -0.752   1.593  -1.232  0.00  0.00    +0.010 C 
ATOM     14  C   LIG    1       -0.013   1.086   0.008  0.00  0.00    +0.000 C 
ATOM     15  C   LIG    1       -0.729   1.579   1.267  0.00  0.00    +0.010 C 
ATOM     16  C   LIG    1       -2.164   1.050   1.278  0.00  0.00    +0.020 C 
ENDBRANCH   4   6
BRANCH   1  25
ATOM     17  O   LIG    1       -5.925  -2.835   2.853  0.00  0.00    -0.470 OA
ATOM     18  C   LIG    1       -5.640  -3.867   2.275  0.00  0.00    +0.560 A 
ATOM     19  N   LIG    1       -5.959  -5.066   2.808  0.00  0.00    -0.660 N 
ATOM     20  H   LIG    1       -6.421  -5.107   3.660  0.00  0.00    +0.440 HD
ATOM     21  C   LIG    1       -5.636  -6.202   2.165  0.00  0.00    +0.700 A 
ATOM     22  N   LIG    1       -4.997  -6.191   0.984  0.00  0.00    -0.520 N 
ATOM     23  C   LIG    1       -4.645  -5.021   0.377  0.00  0.00    +0.410 A 
ATOM     24  O   LIG    1       -5.930  -7.269   2.667  0.00  0.00    -0.510 OA
ATOM     25  C   LIG    1       -4.947  -3.834   0.980  0.00  0.00    -0.200 A 
BRANCH  22  26
ATOM     26  C   LIG    1       -4.672  -7.462   0.333  0.00  0.00    +0.350 C 
BRANCH  26  27
ATOM     27  C   LIG    1       -3.290  -7.931   0.791  0.00  0.00    +0.180 C 
BRANCH  27  28
ATOM     28  O   LIG    1       -3.325  -8.220   2.190  0.00  0.00    -0.560 OA
ATOM     29  H   LIG    1       -2.481  -8.524   2.551  0.00  0.00    +0.380 HD
ENDBRANCH  27  28
ENDBRANCH  26  27
ENDBRANCH  22  26
ENDBRANCH   1  25
TORSDOF 5
