REMARK  Name = ZINCqH0000007QAt.1
REMARK                            x       y       z     vdW  Elec       q    Type
REMARK                         _______ _______ _______ _____ _____    ______ ____
ROOT
ATOM      1  C   LIG    1       -2.362   0.060   2.477  0.00  0.00    -0.660 A 
ATOM      2  C   LIG    1       -3.391  -0.242   3.347  0.00  0.00    +0.110 A 
ATOM      3  C   LIG    1       -3.297   0.122   4.684  0.00  0.00    +0.120 A 
ATOM      4  C   LIG    1       -2.169   0.790   5.141  0.00  0.00    +0.090 A 
ATOM      5  C   LIG    1       -1.143   1.089   4.265  0.00  0.00    +0.020 A 
ATOM      6  C   LIG    1       -1.237   0.720   2.936  0.00  0.00    +0.010 A 
ATOM      7  C   LIG    1       -0.113   1.042   1.985  0.00  0.00    +0.100 C 
ENDROOT
BRANCH   3   8
ATOM      8  N   LIG    1       -4.338  -0.182   5.568  0.00  0.00    -0.670 N 
ATOM      9  H   LIG    1       -5.258  -0.158   5.261  0.00  0.00    +0.410 HD
ATOM     10  C   LIG    1       -4.062  -0.510   6.846  0.00  0.00    +0.520 C 
ATOM     11  O   LIG    1       -2.921  -0.456   7.253  0.00  0.00    -0.520 OA
BRANCH  10  12
ATOM     12  C   LIG    1       -5.171  -0.944   7.769  0.00  0.00    -0.080 C 
ATOM     13  C   LIG    1       -5.845  -2.196   7.203  0.00  0.00    +0.050 C 
ATOM     14  C   LIG    1       -6.203   0.180   7.890  0.00  0.00    +0.050 C 
ATOM     15  C   LIG    1       -4.593  -1.256   9.150  0.00  0.00    +0.060 C 
ENDBRANCH  10  12
ENDBRANCH   3   8
BRANCH   1  16
ATOM     16  S   LIG    1       -2.480  -0.403   0.780  0.00  0.00    +2.700 S 
ATOM     17  O   LIG    1       -3.708  -1.103   0.640  0.00  0.00    -0.950 OA
ATOM     18  O   LIG    1       -2.155   0.756   0.025  0.00  0.00    -0.940 OA
BRANCH  16  19
ATOM     19  N   LIG    1       -1.277  -1.504   0.488  0.00  0.00    -1.050 N 
ATOM     20  H   LIG    1       -0.597  -1.314  -0.177  0.00  0.00    +0.430 HD
BRANCH  19  26
ATOM     21  C   LIG    1       -0.020  -3.270   1.563  0.00  0.00    +0.110 A 
ATOM     22  C   LIG    1        0.009  -4.464   2.263  0.00  0.00    -0.060 A 
ATOM     23  C   LIG    1       -1.174  -5.094   2.605  0.00  0.00    +0.040 A 
ATOM     24  C   LIG    1       -2.387  -4.534   2.251  0.00  0.00    +0.000 A 
ATOM     25  C   LIG    1       -2.425  -3.342   1.552  0.00  0.00    +0.040 A 
ATOM     26  C   LIG    1       -1.242  -2.708   1.200  0.00  0.00    +0.130 A 
BRANCH  21  28
ATOM     27  C   LIG    1        2.357  -3.286   1.626  0.00  0.00    +0.250 C 
ATOM     28  O   LIG    1        1.142  -2.649   1.226  0.00  0.00    -0.310 OA
ENDBRANCH  21  28
ENDBRANCH  19  26
ENDBRANCH  16  19
ENDBRANCH   1  16
TORSDOF 6
