REMARK  Name = ZINCrD000000CV4k.0
REMARK                            x       y       z     vdW  Elec       q    Type
REMARK                         _______ _______ _______ _____ _____    ______ ____
ROOT
ATOM      1  C   LIG    1        3.633   3.348  -0.015  0.00  0.00    -0.160 A 
ATOM      2  C   LIG    1        2.464   4.086   0.000  0.00  0.00    +0.090 A 
ATOM      3  C   LIG    1        1.240   3.444   0.009  0.00  0.00    -0.020 A 
ATOM      4  C   LIG    1        1.185   2.058   0.002  0.00  0.00    +0.140 A 
ATOM      5  C   LIG    1        2.359   1.320  -0.008  0.00  0.00    -0.080 A 
ATOM      6  C   LIG    1        3.580   1.966  -0.021  0.00  0.00    +0.080 A 
ENDROOT
BRANCH   1   7
ATOM      7  C   LIG    1        4.966   4.050  -0.024  0.00  0.00    +0.370 C 
BRANCH   7  19
ATOM      8  O   LIG    1        4.470   6.296   1.649  0.00  0.00    -0.530 OA
ATOM      9  C   LIG    1        5.129   5.365   2.070  0.00  0.00    +0.700 C 
ATOM     10  N   LIG    1        5.653   5.319   3.309  0.00  0.00    -0.720 N 
ATOM     11  H   LIG    1        5.574   5.997   3.998  0.00  0.00    +0.440 HD
ATOM     12  C   LIG    1        6.373   4.040   3.411  0.00  0.00    +0.120 C 
ATOM     13  C   LIG    1        6.161   3.397   2.057  0.00  0.00    +0.540 C 
ATOM     14  O   LIG    1        6.579   2.322   1.682  0.00  0.00    -0.450 OA
ATOM     15  C   LIG    1        5.773   3.176   4.511  0.00  0.00    +0.070 C 
ATOM     16  C   LIG    1        6.811   2.775   5.580  0.00  0.00    +0.150 C 
ATOM     17  S   LIG    1        8.069   4.111   5.439  0.00  0.00    -0.260 S 
ATOM     18  C   LIG    1        7.876   4.313   3.620  0.00  0.00    +0.160 C 
ATOM     19  N   LIG    1        5.411   4.270   1.355  0.00  0.00    -0.570 N 
ENDBRANCH   7  19
ENDBRANCH   1   7
BRANCH   4  20
ATOM     20  O   LIG    1       -0.017   1.425   0.010  0.00  0.00    -0.310 OA
BRANCH  20  21
ATOM     21  C   LIG    1        0.002  -0.004   0.002  0.00  0.00    +0.250 C 
BRANCH  21  22
ATOM     22  C   LIG    1       -1.412  -0.526   0.013  0.00  0.00    -0.110 A 
ATOM     23  C   LIG    1       -2.046  -0.776   1.215  0.00  0.00    +0.080 A 
ATOM     24  C   LIG    1       -3.345  -1.250   1.226  0.00  0.00    -0.020 A 
ATOM     25  C   LIG    1       -4.006  -1.483   0.032  0.00  0.00    +0.110 A 
ATOM     26  C   LIG    1       -3.368  -1.237  -1.171  0.00  0.00    -0.020 A 
ATOM     27  F   LIG    1       -5.273  -1.952   0.042  0.00  0.00    -0.140 F 
ATOM     28  C   LIG    1       -2.071  -0.758  -1.180  0.00  0.00    +0.080 A 
ENDBRANCH  21  22
ENDBRANCH  20  21
ENDBRANCH   4  20
TORSDOF 5
