REMARK  Name = ZINCrH000004oTcd.0
REMARK                            x       y       z     vdW  Elec       q    Type
REMARK                         _______ _______ _______ _____ _____    ______ ____
ROOT
ATOM      1  C   LIG    1       -3.014   4.461  -0.323  0.00  0.00    +0.500 C 
ATOM      2  N   LIG    1       -1.710   4.674  -0.589  0.00  0.00    -0.650 N 
ATOM      3  H   LIG    1       -1.355   5.577  -0.585  0.00  0.00    +0.410 HD
ATOM      4  O   LIG    1       -3.477   3.343  -0.411  0.00  0.00    -0.470 OA
ENDROOT
BRANCH   1  15
ATOM      5  C   LIG    1       -2.059   6.528   1.520  0.00  0.00    +0.080 C 
ATOM      6  C   LIG    1       -3.521   6.079   1.497  0.00  0.00    +0.170 C 
ATOM      7  O   LIG    1       -3.703   4.979   2.396  0.00  0.00    -0.300 OA
ATOM      8  C   LIG    1       -4.863   4.277   2.277  0.00  0.00    +0.050 A 
ATOM      9  C   LIG    1       -5.269   3.451   3.314  0.00  0.00    +0.020 A 
ATOM     10  C   LIG    1       -6.443   2.729   3.206  0.00  0.00    +0.020 A 
ATOM     11  C   LIG    1       -7.215   2.828   2.064  0.00  0.00    +0.020 A 
ATOM     12  C   LIG    1       -6.816   3.650   1.026  0.00  0.00    +0.040 A 
ATOM     13  C   LIG    1       -5.641   4.378   1.129  0.00  0.00    +0.060 A 
ATOM     14  O   LIG    1       -5.265   5.188   0.102  0.00  0.00    -0.270 OA
ATOM     15  C   LIG    1       -3.897   5.612   0.085  0.00  0.00    +0.200 C 
ENDBRANCH   1  15
BRANCH   2  16
ATOM     16  C   LIG    1       -0.871   3.596  -0.869  0.00  0.00    +0.300 A 
ATOM     17  C   LIG    1       -1.233   2.285  -0.914  0.00  0.00    -0.100 A 
ATOM     18  C   LIG    1       -0.094   1.536  -1.224  0.00  0.00    +0.250 A 
ATOM     19  N   LIG    1        0.912   2.360  -1.370  0.00  0.00    -0.280 NA
ATOM     20  N   LIG    1        0.451   3.664  -1.151  0.00  0.00    -0.380 N 
BRANCH  20  21
ATOM     21  C   LIG    1        1.256   4.886  -1.218  0.00  0.00    +0.380 C 
BRANCH  21  22
ATOM     22  C   LIG    1        1.230   5.429  -2.623  0.00  0.00    -0.120 A 
ATOM     23  C   LIG    1        2.188   5.030  -3.537  0.00  0.00    +0.070 A 
ATOM     24  C   LIG    1        2.161   5.524  -4.827  0.00  0.00    +0.030 A 
ATOM     25  C   LIG    1        1.182   6.426  -5.202  0.00  0.00    -0.020 A 
ATOM     26  C   LIG    1        0.226   6.829  -4.286  0.00  0.00    +0.030 A 
ATOM     27 CL   LIG    1        1.152   7.053  -6.821  0.00  0.00    -0.060 Cl
ATOM     28  C   LIG    1        0.250   6.330  -2.998  0.00  0.00    +0.030 A 
ENDBRANCH  21  22
ENDBRANCH  20  21
ENDBRANCH   2  16
TORSDOF 4
