REMARK  Name = ZINCrm000010kyGl.0
REMARK                            x       y       z     vdW  Elec       q    Type
REMARK                         _______ _______ _______ _____ _____    ______ ____
ROOT
ATOM      1  C   LIG    1       -2.816   4.793   2.169  0.00  0.00    +0.140 C 
ATOM      2  C   LIG    1       -2.142   5.560   1.060  0.00  0.00    -0.160 A 
ATOM      3  C   LIG    1       -2.187   6.940   1.028  0.00  0.00    +0.380 A 
ATOM      4  N   LIG    1       -1.584   7.585   0.040  0.00  0.00    -0.540 NA
ATOM      5  C   LIG    1       -0.942   6.925  -0.912  0.00  0.00    +0.490 A 
ATOM      6  N   LIG    1       -0.872   5.602  -0.915  0.00  0.00    -0.550 NA
ATOM      7  C   LIG    1       -1.459   4.891   0.042  0.00  0.00    +0.350 A 
ENDROOT
BRANCH   5   8
ATOM      8  N   LIG    1       -0.325   7.635  -1.927  0.00  0.00    -0.460 N 
ATOM      9  C   LIG    1       -0.818   7.208  -3.244  0.00  0.00    +0.250 C 
ATOM     10  C   LIG    1       -0.069   7.973  -4.338  0.00  0.00    +0.300 C 
ATOM     11  N   LIG    1       -0.283   9.416  -4.160  0.00  0.00    -0.520 N 
ATOM     12  C   LIG    1        0.236   9.832  -2.851  0.00  0.00    +0.190 C 
ATOM     13  H   LIG    1        0.201   9.919  -4.889  0.00  0.00    +0.430 HD
ATOM     14  H   LIG    1       -1.270   9.618  -4.210  0.00  0.00    +0.430 HD
ATOM     15  C   LIG    1       -0.509   9.082  -1.745  0.00  0.00    +0.280 C 
BRANCH  12  16
ATOM     16  C   LIG    1        0.030  11.337  -2.675  0.00  0.00    +0.080 C 
BRANCH  16  17
ATOM     17  C   LIG    1        0.875  12.092  -3.704  0.00  0.00    +0.360 C 
ATOM     18  F   LIG    1        2.232  11.871  -3.444  0.00  0.00    -0.190 F 
ATOM     19  F   LIG    1        0.600  13.461  -3.619  0.00  0.00    -0.180 F 
ENDBRANCH  16  17
ENDBRANCH  12  16
ENDBRANCH   5   8
BRANCH   7  20
ATOM     20  N   LIG    1       -1.388   3.508   0.034  0.00  0.00    -0.480 N 
ATOM     21  C   LIG    1       -0.171   3.039   0.712  0.00  0.00    +0.240 C 
ATOM     22  C   LIG    1       -0.161   1.509   0.734  0.00  0.00    +0.300 C 
ATOM     23  N   LIG    1       -0.202   0.999  -0.643  0.00  0.00    -0.510 N 
ATOM     24  C   LIG    1       -1.435   1.455  -1.299  0.00  0.00    +0.190 C 
ATOM     25  H   LIG    1        0.597   1.343  -1.153  0.00  0.00    +0.430 HD
ATOM     26  H   LIG    1       -0.183  -0.010  -0.629  0.00  0.00    +0.430 HD
ATOM     27  C   LIG    1       -1.456   2.985  -1.338  0.00  0.00    +0.260 C 
BRANCH  24  28
ATOM     28  C   LIG    1       -1.485   0.908  -2.727  0.00  0.00    +0.060 C 
BRANCH  28  29
ATOM     29  C   LIG    1       -1.590  -0.618  -2.685  0.00  0.00    +0.360 C 
ATOM     30  F   LIG    1       -1.522  -1.125  -3.987  0.00  0.00    -0.180 F 
ATOM     31  F   LIG    1       -2.809  -0.986  -2.104  0.00  0.00    -0.190 F 
ENDBRANCH  28  29
ENDBRANCH  24  28
ENDBRANCH   7  20
TORSDOF 6
