REMARK  Name = ZINCpk000000o3C1.0
REMARK                            x       y       z     vdW  Elec       q    Type
REMARK                         _______ _______ _______ _____ _____    ______ ____
ROOT
ATOM      1  C   LIG    1        7.550   0.138  -0.234  0.00  0.00    +0.080 C 
ATOM      2  C   LIG    1        6.222  -0.542   0.110  0.00  0.00    +0.080 C 
ATOM      3  C   LIG    1        5.220  -0.589  -1.052  0.00  0.00    +0.300 C 
ATOM      4  N   LIG    1        4.160  -0.280  -0.082  0.00  0.00    -0.640 N 
ATOM      5  C   LIG    1        2.835  -0.511   0.015  0.00  0.00    +0.520 C 
ATOM      6  O   LIG    1        2.260  -1.121  -0.861  0.00  0.00    -0.520 OA
ATOM      7  C   LIG    1        5.179   0.399   0.733  0.00  0.00    +0.240 C 
ENDROOT
BRANCH   5   8
ATOM      8  C   LIG    1        2.069  -0.012   1.213  0.00  0.00    +0.210 C 
ATOM      9  C   LIG    1        2.068   1.521   1.220  0.00  0.00    +0.010 C 
ATOM     10  C   LIG    1        1.284   2.020   0.001  0.00  0.00    +0.220 C 
ATOM     11  O   LIG    1       -0.017   1.425   0.010  0.00  0.00    -0.380 OA
ATOM     12  C   LIG    1        0.002  -0.004   0.002  0.00  0.00    +0.370 C 
ATOM     13  O   LIG    1        0.718  -0.477   1.146  0.00  0.00    -0.360 OA
BRANCH  12  14
ATOM     14  C   LIG    1       -1.411  -0.526   0.043  0.00  0.00    -0.080 A 
ATOM     15  C   LIG    1       -1.819  -1.337   1.085  0.00  0.00    +0.040 A 
ATOM     16  C   LIG    1       -3.117  -1.811   1.125  0.00  0.00    +0.000 A 
ATOM     17  C   LIG    1       -4.004  -1.483   0.117  0.00  0.00    +0.010 A 
ATOM     18  C   LIG    1       -3.594  -0.677  -0.929  0.00  0.00    +0.010 A 
ATOM     19  C   LIG    1       -2.298  -0.198  -0.966  0.00  0.00    +0.030 A 
ENDBRANCH  12  14
ENDBRANCH   5   8
BRANCH   2  20
ATOM     20  N   LIG    1        6.386  -1.819   0.816  0.00  0.00    -0.500 NA
ATOM     21  C   LIG    1        5.096  -2.313   1.319  0.00  0.00    +0.150 C 
ATOM     22  C   LIG    1        5.303  -3.671   1.994  0.00  0.00    +0.220 C 
ATOM     23  O   LIG    1        6.274  -3.537   3.035  0.00  0.00    -0.380 OA
ATOM     24  C   LIG    1        7.543  -3.059   2.581  0.00  0.00    +0.220 C 
ATOM     25  C   LIG    1        7.359  -1.695   1.912  0.00  0.00    +0.160 C 
ENDBRANCH   2  20
TORSDOF 3
