REMARK  Name = ZINCqH0000008w8o.0
REMARK                            x       y       z     vdW  Elec       q    Type
REMARK                         _______ _______ _______ _____ _____    ______ ____
ROOT
ATOM      1  C   LIG    1       -2.311   1.095   4.007  0.00  0.00    +0.100 C 
ATOM      2  C   LIG    1       -1.149   1.996   3.586  0.00  0.00    +0.010 C 
ENDROOT
BRANCH   2   3
ATOM      3  C   LIG    1       -0.387   1.342   2.462  0.00  0.00    +0.550 C 
ATOM      4  N   LIG    1       -0.789   1.511   1.187  0.00  0.00    -0.550 N 
ATOM      5  C   LIG    1       -2.005   2.218   0.776  0.00  0.00    +0.270 C 
ATOM      6  C   LIG    1       -2.020   2.140  -0.759  0.00  0.00    +0.110 C 
ATOM      7  C   LIG    1       -0.768   1.370  -1.114  0.00  0.00    -0.130 A 
ATOM      8  C   LIG    1       -0.253   0.992  -2.339  0.00  0.00    +0.050 A 
ATOM      9  C   LIG    1        0.930   0.280  -2.405  0.00  0.00    +0.000 A 
ATOM     10  C   LIG    1        1.598  -0.053  -1.242  0.00  0.00    +0.040 A 
ATOM     11  C   LIG    1        1.088   0.321  -0.017  0.00  0.00    +0.010 A 
ATOM     12  C   LIG    1       -0.106   1.040   0.058  0.00  0.00    +0.140 A 
ATOM     13  O   LIG    1        0.589   0.663   2.706  0.00  0.00    -0.500 OA
ENDBRANCH   2   3
BRANCH   2  14
ATOM     14  S   LIG    1       -0.043   2.254   4.995  0.00  0.00    +0.140 S 
BRANCH  14  15
ATOM     15  C   LIG    1       -1.120   3.143   6.070  0.00  0.00    +0.120 A 
ATOM     16  N   LIG    1       -2.362   3.482   5.821  0.00  0.00    -0.290 NA
ATOM     17  N   LIG    1       -2.840   4.118   6.832  0.00  0.00    -0.270 NA
ATOM     18  C   LIG    1       -1.928   4.219   7.754  0.00  0.00    +0.180 A 
ATOM     19  O   LIG    1       -0.818   3.606   7.298  0.00  0.00    -0.200 OA
BRANCH  18  20
ATOM     20  C   LIG    1       -2.085   4.898   9.090  0.00  0.00    +0.250 C 
BRANCH  20  21
ATOM     21  C   LIG    1       -2.579   3.900  10.106  0.00  0.00    -0.100 A 
ATOM     22  C   LIG    1       -3.936   3.726  10.301  0.00  0.00    +0.030 A 
ATOM     23  C   LIG    1       -4.389   2.808  11.229  0.00  0.00    +0.010 A 
ATOM     24  C   LIG    1       -3.485   2.070  11.970  0.00  0.00    +0.020 A 
ATOM     25  C   LIG    1       -2.127   2.248  11.779  0.00  0.00    +0.010 A 
ATOM     26  C   LIG    1       -1.674   3.163  10.847  0.00  0.00    +0.010 A 
ENDBRANCH  20  21
ENDBRANCH  18  20
ENDBRANCH  14  15
ENDBRANCH   2  14
TORSDOF 5
