REMARK  Name = ZINCqH0000008W8o.1
REMARK                            x       y       z     vdW  Elec       q    Type
REMARK                         _______ _______ _______ _____ _____    ______ ____
ROOT
ATOM      1  N   LIG    1       -5.357   1.507   7.540  0.00  0.00    -0.520 NA
ATOM      2  C   LIG    1       -4.637   2.784   7.427  0.00  0.00    +0.190 C 
ATOM      3  C   LIG    1       -4.457   3.136   5.949  0.00  0.00    +0.180 C 
ATOM      4  N   LIG    1       -3.718   2.057   5.277  0.00  0.00    -0.540 NA
ATOM      5  C   LIG    1       -4.438   0.781   5.390  0.00  0.00    +0.180 C 
ATOM      6  C   LIG    1       -4.618   0.429   6.868  0.00  0.00    +0.180 C 
ENDROOT
BRANCH   1   8
ATOM      7  C   LIG    1       -4.288   0.931   9.666  0.00  0.00    +0.030 C 
ATOM      8  C   LIG    1       -5.616   1.172   8.946  0.00  0.00    +0.180 C 
BRANCH   8   9
ATOM      9  C   LIG    1       -6.459  -0.075   9.018  0.00  0.00    +0.520 C 
ATOM     10  N   LIG    1       -6.824  -0.575  10.215  0.00  0.00    -0.670 N 
ATOM     11  H   LIG    1       -6.482  -0.177  11.031  0.00  0.00    +0.410 HD
ATOM     12  O   LIG    1       -6.809  -0.630   7.997  0.00  0.00    -0.490 OA
BRANCH  10  13
ATOM     13  C   LIG    1       -7.696  -1.666  10.282  0.00  0.00    +0.180 A 
ATOM     14  C   LIG    1       -8.695  -1.818   9.329  0.00  0.00    +0.010 A 
ATOM     15  C   LIG    1       -9.552  -2.900   9.393  0.00  0.00    +0.070 A 
ATOM     16  C   LIG    1       -9.424  -3.826  10.411  0.00  0.00    -0.030 A 
ATOM     17  C   LIG    1       -8.433  -3.675  11.367  0.00  0.00    +0.120 A 
ATOM     18  F   LIG    1       -8.310  -4.582  12.361  0.00  0.00    -0.140 F 
ATOM     19  C   LIG    1       -7.569  -2.597  11.304  0.00  0.00    -0.040 A 
ENDBRANCH  10  13
ENDBRANCH   8   9
ENDBRANCH   1   8
BRANCH   4  20
ATOM     20  C   LIG    1       -3.459   2.393   3.871  0.00  0.00    +0.160 C 
BRANCH  20  21
ATOM     21  C   LIG    1       -2.484   1.375   3.275  0.00  0.00    +0.010 C 
BRANCH  21  22
ATOM     22  C   LIG    1       -2.214   1.725   1.810  0.00  0.00    +0.010 C 
BRANCH  22  23
ATOM     23  C   LIG    1       -1.239   0.707   1.215  0.00  0.00    -0.020 C 
ATOM     24  C   LIG    1        0.179   0.897   1.818  0.00  0.00    +0.020 C 
ATOM     25  C   LIG    1        1.093   0.276   0.732  0.00  0.00    -0.010 C 
ATOM     26  C   LIG    1        0.437   0.689  -0.601  0.00  0.00    -0.010 C 
ATOM     27  C   LIG    1       -1.046   0.964  -0.294  0.00  0.00    +0.000 C 
ENDBRANCH  22  23
ENDBRANCH  21  22
ENDBRANCH  20  21
ENDBRANCH   4  20
TORSDOF 7
