REMARK  Name = ZINCvU0000000Erc.0
REMARK                            x       y       z     vdW  Elec       q    Type
REMARK                         _______ _______ _______ _____ _____    ______ ____
ROOT
ATOM      1  O   LIG    1        2.630   7.182  -0.324  0.00  0.00    -0.460 OA
ATOM      2  C   LIG    1        3.125   6.072  -0.272  0.00  0.00    +0.520 C 
ATOM      3  N   LIG    1        4.428   5.805  -0.324  0.00  0.00    -0.720 N 
ATOM      4  H   LIG    1        5.085   6.514  -0.411  0.00  0.00    +0.410 HD
ATOM      5  C   LIG    1        4.829   4.417  -0.238  0.00  0.00    +0.640 C 
ATOM      6  C   LIG    1        3.642   3.491  -0.116  0.00  0.00    -0.160 C 
ATOM      7  C   LIG    1        3.655   2.158  -0.022  0.00  0.00    +0.190 C 
ATOM      8  O   LIG    1        5.591   4.051  -1.397  0.00  0.00    -0.310 OA
ATOM      9  C   LIG    1        6.917   4.332  -1.456  0.00  0.00    +0.130 A 
ATOM     10  C   LIG    1        7.539   4.223  -2.700  0.00  0.00    -0.010 A 
ATOM     11  C   LIG    1        8.889   4.471  -2.833  0.00  0.00    +0.050 A 
ATOM     12  C   LIG    1        9.641   4.830  -1.731  0.00  0.00    -0.010 A 
ATOM     13  C   LIG    1        9.032   4.949  -0.496  0.00  0.00    +0.050 A 
ATOM     14  C   LIG    1        7.678   4.710  -0.359  0.00  0.00    -0.170 A 
ATOM     15  C   LIG    1        7.030   4.891   0.989  0.00  0.00    +0.250 C 
ATOM     16  C   LIG    1        7.759   4.102   2.086  0.00  0.00    +0.090 C 
ATOM     17  C   LIG    1        6.664   3.258   2.705  0.00  0.00    +0.100 C 
ATOM     18  N   LIG    1        5.577   3.389   2.017  0.00  0.00    -0.190 NA
ATOM     19  N   LIG    1        5.717   4.213   0.916  0.00  0.00    -0.550 N 
ATOM     20  S   LIG    1        2.229   4.558  -0.116  0.00  0.00    +0.010 S 
ENDROOT
BRANCH   7  21
ATOM     21  C   LIG    1        2.406   1.426   0.262  0.00  0.00    -0.080 A 
ATOM     22  C   LIG    1        1.342   2.073   0.895  0.00  0.00    +0.040 A 
ATOM     23  C   LIG    1        0.176   1.383   1.156  0.00  0.00    +0.010 A 
ATOM     24  C   LIG    1        0.060   0.053   0.794  0.00  0.00    +0.030 A 
ATOM     25  C   LIG    1        1.111  -0.595   0.167  0.00  0.00    +0.010 A 
ATOM     26  C   LIG    1        2.282   0.083  -0.101  0.00  0.00    +0.040 A 
ENDBRANCH   7  21
BRANCH  17  27
ATOM     27  C   LIG    1        6.815   2.416   3.907  0.00  0.00    -0.020 A 
ATOM     28  C   LIG    1        8.044   2.347   4.566  0.00  0.00    +0.040 A 
ATOM     29  C   LIG    1        8.177   1.562   5.692  0.00  0.00    +0.010 A 
ATOM     30  C   LIG    1        7.098   0.834   6.163  0.00  0.00    +0.020 A 
ATOM     31  C   LIG    1        5.878   0.893   5.511  0.00  0.00    +0.010 A 
ATOM     32  C   LIG    1        5.730   1.678   4.387  0.00  0.00    +0.040 A 
ENDBRANCH  17  27
TORSDOF 2
