REMARK  Name = ZINCqH00000052Ib.1
REMARK                            x       y       z     vdW  Elec       q    Type
REMARK                         _______ _______ _______ _____ _____    ______ ____
ROOT
ATOM      1  N   LIG    1       -0.915   1.699  -5.934  0.00  0.00    -0.690 N 
ATOM      2  H   LIG    1       -0.801   1.193  -6.754  0.00  0.00    +0.410 HD
ATOM      3  C   LIG    1       -1.670   2.815  -5.930  0.00  0.00    +0.560 C 
ATOM      4  O   LIG    1       -1.736   3.501  -4.928  0.00  0.00    -0.480 OA
ENDROOT
BRANCH   3   5
ATOM      5  C   LIG    1       -2.417   3.205  -7.142  0.00  0.00    -0.240 A 
ATOM      6  C   LIG    1       -2.334   2.423  -8.282  0.00  0.00    +0.080 A 
ATOM      7  C   LIG    1       -3.051   2.796  -9.429  0.00  0.00    -0.160 A 
ATOM      8  C   LIG    1       -2.994   2.022 -10.603  0.00  0.00    +0.040 A 
ATOM      9  C   LIG    1       -3.696   2.414 -11.701  0.00  0.00    -0.080 A 
ATOM     10  C   LIG    1       -4.472   3.571 -11.682  0.00  0.00    +0.010 A 
ATOM     11  C   LIG    1       -4.551   4.344 -10.565  0.00  0.00    -0.030 A 
ATOM     12  C   LIG    1       -3.841   3.974  -9.410  0.00  0.00    +0.030 A 
ATOM     13  C   LIG    1       -3.904   4.752  -8.242  0.00  0.00    -0.180 A 
ATOM     14  C   LIG    1       -3.207   4.374  -7.133  0.00  0.00    +0.300 A 
ATOM     15  O   LIG    1       -3.272   5.131  -6.008  0.00  0.00    -0.680 OA
ENDBRANCH   3   5
BRANCH   1  20
ATOM     16  C   LIG    1       -0.298   1.048  -2.365  0.00  0.00    +0.130 A 
ATOM     17  C   LIG    1        0.937   0.419  -2.425  0.00  0.00    -0.120 A 
ATOM     18  C   LIG    1        1.549   0.209  -3.647  0.00  0.00    +0.070 A 
ATOM     19  C   LIG    1        0.938   0.634  -4.810  0.00  0.00    -0.050 A 
ATOM     20  C   LIG    1       -0.296   1.269  -4.756  0.00  0.00    +0.220 A 
ATOM     21  C   LIG    1       -0.915   1.476  -3.531  0.00  0.00    +0.000 A 
BRANCH  16  22
ATOM     22  O   LIG    1       -0.901   1.250  -1.164  0.00  0.00    -0.330 OA
BRANCH  22  23
ATOM     23  C   LIG    1       -0.209   0.783  -0.004  0.00  0.00    +0.220 C 
BRANCH  23  24
ATOM     24  C   LIG    1       -1.036   1.097   1.244  0.00  0.00    +0.290 C 
BRANCH  24  26
ATOM     25  C   LIG    1       -1.990  -1.104   1.289  0.00  0.00    +0.320 C 
ATOM     26  N   LIG    1       -2.289   0.332   1.206  0.00  0.00    -0.390 N 
ATOM     27  C   LIG    1       -3.136   0.722   2.341  0.00  0.00    +0.310 C 
ATOM     28  H   LIG    1       -2.775   0.525   0.343  0.00  0.00    +0.440 HD
ENDBRANCH  24  26
ENDBRANCH  23  24
ENDBRANCH  22  23
ENDBRANCH  16  22
ENDBRANCH   1  20
TORSDOF 6
