REMARK  Name = ZINCrD000000fRlo.0
REMARK                            x       y       z     vdW  Elec       q    Type
REMARK                         _______ _______ _______ _____ _____    ______ ____
ROOT
ATOM      1  C   LIG    1        2.859   1.006  -1.462  0.00  0.00    +0.210 C 
ENDROOT
BRANCH   1   2
ATOM      2  O   LIG    1        1.881   0.206  -2.131  0.00  0.00    -0.540 OA
ATOM      3  H   LIG    1        1.743  -0.663  -1.731  0.00  0.00    +0.380 HD
ENDBRANCH   1   2
BRANCH   1   4
ATOM      4  C   LIG    1        4.207   0.282  -1.479  0.00  0.00    +0.180 C 
BRANCH   4   5
ATOM      5  O   LIG    1        4.669   0.168  -2.827  0.00  0.00    -0.300 OA
BRANCH   5  10
ATOM      6  C   LIG    1        7.595  -1.241  -4.491  0.00  0.00    -0.130 A 
ATOM      7  C   LIG    1        8.302  -1.730  -3.389  0.00  0.00    +0.030 A 
ATOM      8  C   LIG    1        7.786  -1.579  -2.118  0.00  0.00    +0.040 A 
ATOM      9  C   LIG    1        6.574  -0.941  -1.930  0.00  0.00    -0.050 A 
ATOM     10  C   LIG    1        5.862  -0.455  -3.019  0.00  0.00    +0.120 A 
ATOM     11  C   LIG    1        6.368  -0.600  -4.299  0.00  0.00    +0.050 A 
BRANCH   6  13
ATOM     12  C   LIG    1        9.464  -2.091  -6.053  0.00  0.00    +0.080 C 
ATOM     13  C   LIG    1        8.141  -1.399  -5.849  0.00  0.00    +0.390 C 
ATOM     14  O   LIG    1        7.526  -0.974  -6.803  0.00  0.00    -0.450 OA
ENDBRANCH   6  13
ENDBRANCH   5  10
ENDBRANCH   4   5
ENDBRANCH   1   4
BRANCH   1  15
ATOM     15  C   LIG    1        2.423   1.239  -0.015  0.00  0.00    +0.280 C 
BRANCH  15  16
ATOM     16  N   LIG    1        1.132   1.932   0.002  0.00  0.00    -0.540 N 
ATOM     17  C   LIG    1        1.097   3.290   0.009  0.00  0.00    +0.600 A 
ATOM     18  N   LIG    1       -0.005   3.976   0.024  0.00  0.00    -0.510 NA
ATOM     19  C   LIG    1       -1.219   3.371   0.032  0.00  0.00    +0.160 A 
ATOM     20  C   LIG    1       -2.405   4.109   0.048  0.00  0.00    -0.020 A 
ATOM     21  C   LIG    1       -3.617   3.453   0.037  0.00  0.00    +0.100 A 
ATOM     22  C   LIG    1       -3.674   2.064   0.030  0.00  0.00    -0.050 A 
ATOM     23  C   LIG    1       -2.516   1.315   0.021  0.00  0.00    +0.130 A 
ATOM     24 CL   LIG    1       -5.216   1.266   0.033  0.00  0.00    -0.040 Cl
ATOM     25 CL   LIG    1       -2.353   5.844   0.056  0.00  0.00    -0.020 Cl
ATOM     26  C   LIG    1       -1.281   1.960   0.019  0.00  0.00    -0.170 A 
ATOM     27  C   LIG    1       -0.014   1.213   0.009  0.00  0.00    +0.560 A 
ATOM     28  O   LIG    1        0.002  -0.004   0.002  0.00  0.00    -0.500 OA
ENDBRANCH  15  16
ENDBRANCH   1  15
TORSDOF 7
