REMARK  Name = ZINCrg00000fRmmV.0
REMARK                            x       y       z     vdW  Elec       q    Type
REMARK                         _______ _______ _______ _____ _____    ______ ____
ROOT
ATOM      1  C   LIG    1       -2.081   5.769  -0.416  0.00  0.00    +0.520 C 
ATOM      2  O   LIG    1       -0.985   6.289  -0.478  0.00  0.00    -0.500 OA
ENDROOT
BRANCH   1   7
ATOM      3  C   LIG    1       -1.165   2.140  -0.060  0.00  0.00    +0.150 A 
ATOM      4  C   LIG    1       -2.423   1.553   0.005  0.00  0.00    +0.060 A 
ATOM      5  C   LIG    1       -3.561   2.335  -0.058  0.00  0.00    +0.030 A 
ATOM      6  C   LIG    1       -3.456   3.704  -0.196  0.00  0.00    +0.080 A 
ATOM      7  C   LIG    1       -2.197   4.304  -0.268  0.00  0.00    -0.110 A 
ATOM      8  C   LIG    1       -1.048   3.514  -0.199  0.00  0.00    +0.070 A 
BRANCH   3  10
ATOM      9  C   LIG    1       -0.015   0.227   0.764  0.00  0.00    +0.650 C 
ATOM     10  N   LIG    1       -0.016   1.344   0.009  0.00  0.00    -0.650 N 
ATOM     11  H   LIG    1        0.778   1.593  -0.488  0.00  0.00    +0.420 HD
ATOM     12  O   LIG    1       -0.975  -0.037   1.461  0.00  0.00    -0.550 OA
BRANCH   9  13
ATOM     13  O   LIG    1        1.050  -0.598   0.744  0.00  0.00    -0.370 OA
BRANCH  13  15
ATOM     14  C   LIG    1        2.272  -2.590   1.428  0.00  0.00    +0.080 C 
ATOM     15  C   LIG    1        0.981  -1.782   1.581  0.00  0.00    +0.220 C 
ENDBRANCH  13  15
ENDBRANCH   9  13
ENDBRANCH   3  10
ENDBRANCH   1   7
BRANCH   1  16
ATOM     16  O   LIG    1       -3.191   6.529  -0.482  0.00  0.00    -0.330 OA
BRANCH  16  17
ATOM     17  C   LIG    1       -3.002   7.961  -0.627  0.00  0.00    +0.270 C 
BRANCH  17  18
ATOM     18  C   LIG    1       -4.345   8.643  -0.684  0.00  0.00    +0.520 C 
ATOM     19  N   LIG    1       -4.417   9.982  -0.817  0.00  0.00    -0.600 N 
ATOM     20  C   LIG    1       -3.188  10.775  -0.908  0.00  0.00    +0.290 C 
ATOM     21  O   LIG    1       -5.362   7.985  -0.609  0.00  0.00    -0.510 OA
BRANCH  19  22
ATOM     22  C   LIG    1       -5.722  10.644  -0.872  0.00  0.00    +0.280 C 
ATOM     23  C   LIG    1       -5.866  11.395  -2.208  0.00  0.00    +0.070 C 
ATOM     24  C   LIG    1       -7.097  12.326  -2.062  0.00  0.00    -0.310 C 
ATOM     25  S   LIG    1       -6.884  13.009  -0.375  0.00  0.00    +2.390 S 
ATOM     26  O   LIG    1       -8.136  13.003   0.297  0.00  0.00    -0.930 OA
ATOM     27  O   LIG    1       -6.120  14.206  -0.444  0.00  0.00    -0.930 OA
ATOM     28  C   LIG    1       -5.837  11.660   0.281  0.00  0.00    -0.330 C 
ENDBRANCH  19  22
ENDBRANCH  17  18
ENDBRANCH  16  17
ENDBRANCH   1  16
TORSDOF 8
