REMARK  Name = ZINCrD000000Bd95.0
REMARK                            x       y       z     vdW  Elec       q    Type
REMARK                         _______ _______ _______ _____ _____    ______ ____
ROOT
ATOM      1  O   LIG    1        1.832   0.966  -4.455  0.00  0.00    -0.530 OA
ATOM      2  C   LIG    1        2.139   1.709  -3.546  0.00  0.00    +0.520 C 
ATOM      3  N   LIG    1        1.291   1.900  -2.517  0.00  0.00    -0.730 N 
ATOM      4  H   LIG    1        1.536   2.495  -1.790  0.00  0.00    +0.400 HD
ENDROOT
BRANCH   2   5
ATOM      5  C   LIG    1        3.468   2.418  -3.570  0.00  0.00    -0.010 C 
ATOM      6  C   LIG    1        3.240   3.932  -3.563  0.00  0.00    +0.050 C 
ATOM      7  C   LIG    1        4.591   4.647  -3.648  0.00  0.00    +0.200 C 
ATOM      8  N   LIG    1        5.283   4.243  -4.879  0.00  0.00    -0.470 N 
ATOM      9  C   LIG    1        5.555   2.800  -4.886  0.00  0.00    +0.210 C 
ATOM     10  C   LIG    1        4.233   2.030  -4.838  0.00  0.00    +0.060 C 
BRANCH   8  11
ATOM     11  C   LIG    1        6.455   4.972  -5.054  0.00  0.00    +0.320 A 
ATOM     12  C   LIG    1        6.404   6.361  -5.081  0.00  0.00    -0.030 A 
ATOM     13  C   LIG    1        7.577   7.074  -5.252  0.00  0.00    +0.110 A 
ATOM     14  C   LIG    1        8.766   6.370  -5.399  0.00  0.00    -0.120 A 
ATOM     15  C   LIG    1        8.742   4.989  -5.366  0.00  0.00    +0.310 A 
ATOM     16 CL   LIG    1       10.265   7.216  -5.622  0.00  0.00    -0.050 Cl
ATOM     17  N   LIG    1        7.607   4.336  -5.197  0.00  0.00    -0.510 NA
ENDBRANCH   8  11
ENDBRANCH   2   5
BRANCH   3  18
ATOM     18  C   LIG    1       -0.002   1.211  -2.494  0.00  0.00    +0.280 C 
BRANCH  18  19
ATOM     19  C   LIG    1       -0.765   1.599  -1.226  0.00  0.00    -0.050 C 
ATOM     20  C   LIG    1       -0.013   1.086   0.008  0.00  0.00    +0.250 C 
ATOM     21  O   LIG    1       -0.691   1.551   1.175  0.00  0.00    -0.310 OA
ATOM     22  C   LIG    1       -2.036   1.368   1.242  0.00  0.00    +0.130 A 
ATOM     23  C   LIG    1       -2.659   1.475   2.481  0.00  0.00    -0.020 A 
ATOM     24  C   LIG    1       -4.025   1.304   2.589  0.00  0.00    +0.040 A 
ATOM     25  C   LIG    1       -4.777   1.027   1.462  0.00  0.00    -0.020 A 
ATOM     26  C   LIG    1       -4.161   0.919   0.230  0.00  0.00    +0.050 A 
ATOM     27  C   LIG    1       -2.791   1.087   0.117  0.00  0.00    -0.160 A 
ATOM     28  C   LIG    1       -2.155   0.958  -1.244  0.00  0.00    +0.100 C 
ENDBRANCH  18  19
ENDBRANCH   3  18
TORSDOF 4
