REMARK  Name = ZINCrg00000fRZYh.0
REMARK                            x       y       z     vdW  Elec       q    Type
REMARK                         _______ _______ _______ _____ _____    ______ ____
ROOT
ATOM      1  N   LIG    1       -0.862   3.269   1.472  0.00  0.00    -0.510 N 
ATOM      2  H   LIG    1       -0.508   3.908   0.833  0.00  0.00    +0.440 HD
ATOM      3  C   LIG    1       -0.723   1.947   1.250  0.00  0.00    +0.500 C 
ATOM      4  O   LIG    1       -1.166   1.148   2.048  0.00  0.00    -0.530 OA
ENDROOT
BRANCH   1   6
ATOM      5  C   LIG    1       -1.657   5.043   2.846  0.00  0.00    +0.570 C 
ATOM      6  N   LIG    1       -1.518   3.721   2.624  0.00  0.00    -0.520 N 
ATOM      7  H   LIG    1       -1.872   3.082   3.263  0.00  0.00    +0.430 HD
ATOM      8  O   LIG    1       -1.213   5.843   2.046  0.00  0.00    -0.510 OA
BRANCH   5  15
ATOM      9  C   LIG    1       -2.489   6.893   4.297  0.00  0.00    +0.200 A 
ATOM     10  C   LIG    1       -3.143   7.329   5.439  0.00  0.00    -0.060 A 
ATOM     11  C   LIG    1       -3.645   6.413   6.343  0.00  0.00    +0.120 A 
ATOM     12  C   LIG    1       -3.503   5.054   6.115  0.00  0.00    -0.080 A 
ATOM     13  C   LIG    1       -2.859   4.602   4.982  0.00  0.00    +0.100 A 
ATOM     14 CL   LIG    1       -4.138   3.914   7.260  0.00  0.00    -0.060 Cl
ATOM     15  C   LIG    1       -2.348   5.519   4.060  0.00  0.00    -0.160 A 
BRANCH   9  17
ATOM     16  C   LIG    1       -2.174   9.175   3.720  0.00  0.00    +0.250 C 
ATOM     17  O   LIG    1       -1.992   7.792   3.411  0.00  0.00    -0.280 OA
ENDBRANCH   9  17
ENDBRANCH   5  15
ENDBRANCH   1   6
BRANCH   3  18
ATOM     18  C   LIG    1       -0.018   1.461   0.010  0.00  0.00    +0.350 C 
BRANCH  18  19
ATOM     19  N   LIG    1        0.002  -0.004   0.002  0.00  0.00    -0.580 N 
ATOM     20  C   LIG    1        1.004  -0.738   0.551  0.00  0.00    +0.550 C 
ATOM     21  C   LIG    1        0.807  -2.143   0.072  0.00  0.00    +0.000 C 
ATOM     22  C   LIG    1        1.150  -3.285   0.993  0.00  0.00    +0.110 C 
ATOM     23  C   LIG    1        0.528  -4.539   0.415  0.00  0.00    -0.030 C 
ATOM     24  C   LIG    1       -0.421  -4.545  -0.472  0.00  0.00    -0.030 C 
ATOM     25  C   LIG    1       -1.065  -3.299  -1.042  0.00  0.00    +0.110 C 
ATOM     26  C   LIG    1       -0.744  -2.164  -0.093  0.00  0.00    +0.000 C 
ATOM     27  O   LIG    1        1.882  -0.337   1.285  0.00  0.00    -0.460 OA
ATOM     28  C   LIG    1       -0.977  -0.759  -0.561  0.00  0.00    +0.550 C 
ATOM     29  O   LIG    1       -1.862  -0.374  -1.295  0.00  0.00    -0.460 OA
ENDBRANCH  18  19
ENDBRANCH   3  18
TORSDOF 5
