REMARK  Name = ZINCrH000004l9cX.0
REMARK                            x       y       z     vdW  Elec       q    Type
REMARK                         _______ _______ _______ _____ _____    ______ ____
ROOT
ATOM      1  C   LIG    1       -2.818   4.422  -1.357  0.00  0.00    +0.140 A 
ATOM      2  C   LIG    1       -3.053   3.070  -1.575  0.00  0.00    +0.010 A 
ATOM      3  C   LIG    1       -1.998   2.212  -1.825  0.00  0.00    +0.030 A 
ATOM      4  C   LIG    1       -0.706   2.693  -1.866  0.00  0.00    +0.020 A 
ATOM      5  C   LIG    1       -0.459   4.050  -1.643  0.00  0.00    -0.120 A 
ATOM      6  C   LIG    1       -1.523   4.915  -1.391  0.00  0.00    +0.090 A 
ENDROOT
BRANCH   5   7
ATOM      7  C   LIG    1        0.925   4.567  -1.680  0.00  0.00    +0.570 C 
ATOM      8  N   LIG    1        1.933   3.768  -2.082  0.00  0.00    -0.550 N 
ATOM      9  C   LIG    1        1.800   2.344  -2.401  0.00  0.00    +0.290 C 
ATOM     10  C   LIG    1        3.212   1.886  -2.802  0.00  0.00    +0.090 C 
ATOM     11  C   LIG    1        4.064   3.129  -2.674  0.00  0.00    -0.140 A 
ATOM     12  C   LIG    1        5.412   3.330  -2.903  0.00  0.00    +0.050 A 
ATOM     13  C   LIG    1        5.969   4.581  -2.714  0.00  0.00    -0.010 A 
ATOM     14  C   LIG    1        5.174   5.632  -2.295  0.00  0.00    +0.040 A 
ATOM     15  C   LIG    1        3.829   5.436  -2.066  0.00  0.00    +0.010 A 
ATOM     16  C   LIG    1        3.259   4.176  -2.254  0.00  0.00    +0.140 A 
ATOM     17  O   LIG    1        1.154   5.714  -1.349  0.00  0.00    -0.500 OA
ENDBRANCH   5   7
BRANCH   1  19
ATOM     18  C   LIG    1       -3.861   6.550  -1.572  0.00  0.00    +0.510 C 
ATOM     19  N   LIG    1       -3.890   5.286  -1.105  0.00  0.00    -0.680 N 
ATOM     20  H   LIG    1       -4.654   4.976  -0.594  0.00  0.00    +0.410 HD
ATOM     21  O   LIG    1       -2.871   6.965  -2.138  0.00  0.00    -0.490 OA
BRANCH  18  22
ATOM     22  C   LIG    1       -5.057   7.448  -1.391  0.00  0.00    +0.050 C 
BRANCH  22  23
ATOM     23  C   LIG    1       -4.816   8.772  -2.119  0.00  0.00    +0.110 C 
ATOM     24  C   LIG    1       -6.107   9.548  -2.429  0.00  0.00    +0.000 C 
ATOM     25  C   LIG    1       -5.478   9.895  -3.789  0.00  0.00    +0.020 C 
ATOM     26  C   LIG    1       -4.638   8.616  -3.638  0.00  0.00    +0.050 C 
BRANCH  23  28
ATOM     27  C   LIG    1       -4.078   9.912  -0.144  0.00  0.00    +0.190 C 
ATOM     28  O   LIG    1       -3.801   9.568  -1.503  0.00  0.00    -0.340 OA
ENDBRANCH  23  28
ENDBRANCH  22  23
ENDBRANCH  18  22
ENDBRANCH   1  19
TORSDOF 5
