REMARK  Name = ZINCvU00000008My.0
REMARK                            x       y       z     vdW  Elec       q    Type
REMARK                         _______ _______ _______ _____ _____    ______ ____
ROOT
ATOM      1  C   LIG    1       -4.905   1.558   0.033  0.00  0.00    -0.060 A 
ATOM      2  C   LIG    1       -3.623   2.086   0.016  0.00  0.00    +0.070 A 
ATOM      3  C   LIG    1       -2.518   1.215   0.007  0.00  0.00    +0.220 A 
ATOM      4  N   LIG    1       -2.656  -0.097   0.009  0.00  0.00    -0.430 NA
ATOM      5  C   LIG    1       -3.853  -0.687   0.031  0.00  0.00    +0.130 A 
ATOM      6  C   LIG    1       -3.969  -2.089   0.038  0.00  0.00    +0.050 A 
ATOM      7  C   LIG    1       -5.203  -2.664   0.054  0.00  0.00    +0.040 A 
ATOM      8  C   LIG    1       -6.358  -1.887   0.065  0.00  0.00    +0.030 A 
ATOM      9  C   LIG    1       -6.284  -0.524   0.058  0.00  0.00    +0.050 A 
ATOM     10  C   LIG    1       -5.032   0.099   0.041  0.00  0.00    -0.060 A 
ENDROOT
BRANCH   3  11
ATOM     11  C   LIG    1       -1.159   1.788  -0.011  0.00  0.00    -0.160 A 
ATOM     12  C   LIG    1       -0.013   1.076  -0.021  0.00  0.00    +0.090 A 
ATOM     13  C   LIG    1        1.137   1.834  -0.043  0.00  0.00    +0.040 A 
ATOM     14  C   LIG    1        0.942   3.159  -0.045  0.00  0.00    -0.140 A 
ATOM     15 CL   LIG    1        2.201   4.354  -0.071  0.00  0.00    -0.000 Cl
ATOM     16  S   LIG    1       -0.782   3.506  -0.019  0.00  0.00    +0.200 S 
ENDBRANCH   3  11
BRANCH   1  17
ATOM     17  C   LIG    1       -6.096   2.433   0.043  0.00  0.00    +0.520 C 
ATOM     18  O   LIG    1       -7.206   1.949  -0.046  0.00  0.00    -0.490 OA
BRANCH  17  19
ATOM     19  O   LIG    1       -5.950   3.768   0.150  0.00  0.00    -0.320 OA
BRANCH  19  20
ATOM     20  C   LIG    1       -7.163   4.566   0.153  0.00  0.00    +0.270 C 
BRANCH  20  23
ATOM     21  C   LIG    1       -9.182   6.553   0.207  0.00  0.00    +0.290 C 
ATOM     22  N   LIG    1       -7.777   6.957   0.304  0.00  0.00    -0.610 N 
ATOM     23  C   LIG    1       -6.805   6.024   0.280  0.00  0.00    +0.520 C 
ATOM     24  O   LIG    1       -5.642   6.358   0.360  0.00  0.00    -0.510 OA
BRANCH  22  25
ATOM     25  C   LIG    1       -7.430   8.375   0.427  0.00  0.00    +0.350 C 
BRANCH  25  26
ATOM     26  C   LIG    1       -7.243   8.967  -0.946  0.00  0.00    -0.110 A 
ATOM     27  C   LIG    1       -5.995   8.956  -1.540  0.00  0.00    +0.040 A 
ATOM     28  C   LIG    1       -5.825   9.495  -2.802  0.00  0.00    +0.000 A 
ATOM     29  C   LIG    1       -6.902  10.055  -3.465  0.00  0.00    +0.010 A 
ATOM     30  C   LIG    1       -8.149  10.071  -2.868  0.00  0.00    +0.000 A 
ATOM     31  C   LIG    1       -8.320   9.527  -1.609  0.00  0.00    +0.010 A 
ENDBRANCH  25  26
ENDBRANCH  22  25
ENDBRANCH  20  23
ENDBRANCH  19  20
ENDBRANCH  17  19
ENDBRANCH   1  17
TORSDOF 7
