REMARK  Name = ZINCpe00000VUZVo.0
REMARK                            x       y       z     vdW  Elec       q    Type
REMARK                         _______ _______ _______ _____ _____    ______ ____
ROOT
ATOM      1  C   LIG    1        4.204  -0.887  -1.489  0.00  0.00    +0.500 C 
ATOM      2  N   LIG    1        5.189  -1.770  -1.747  0.00  0.00    -0.600 N 
ATOM      3  C   LIG    1        6.098  -2.212  -0.680  0.00  0.00    +0.290 C 
ATOM      4  C   LIG    1        7.540  -1.984  -1.128  0.00  0.00    -0.020 C 
ATOM      5  C   LIG    1        7.769  -2.675  -2.474  0.00  0.00    +0.060 C 
ATOM      6  C   LIG    1        6.833  -2.071  -3.525  0.00  0.00    +0.020 C 
ATOM      7  C   LIG    1        5.380  -2.304  -3.102  0.00  0.00    +0.220 C 
ATOM      8  C   LIG    1        4.442  -1.585  -4.074  0.00  0.00    +0.050 C 
ATOM      9  O   LIG    1        3.523  -0.457  -2.395  0.00  0.00    -0.510 OA
ENDROOT
BRANCH   4  10
ATOM     10  C   LIG    1        8.485  -2.556  -0.102  0.00  0.00    +0.520 C 
ATOM     11  O   LIG    1        9.264  -3.430  -0.417  0.00  0.00    -0.530 OA
ATOM     12  N   LIG    1        8.463  -2.096   1.164  0.00  0.00    -0.860 N 
ATOM     13  H   LIG    1        9.071  -2.464   1.824  0.00  0.00    +0.410 HD
ATOM     14  H   LIG    1        7.840  -1.396   1.415  0.00  0.00    +0.400 HD
ENDBRANCH   4  10
BRANCH   1  15
ATOM     15  C   LIG    1        3.949  -0.435  -0.074  0.00  0.00    +0.330 C 
BRANCH  15  24
ATOM     16  C   LIG    1       -1.851   2.445   0.206  0.00  0.00    +0.110 C 
ATOM     17  C   LIG    1       -0.473   3.026   0.023  0.00  0.00    -0.070 A 
ATOM     18  C   LIG    1       -0.308   4.385  -0.118  0.00  0.00    +0.060 A 
ATOM     19  C   LIG    1        0.957   4.935  -0.282  0.00  0.00    +0.000 A 
ATOM     20  C   LIG    1        2.074   4.129  -0.311  0.00  0.00    +0.090 A 
ATOM     21  C   LIG    1        1.928   2.750  -0.176  0.00  0.00    -0.190 A 
ATOM     22  C   LIG    1        3.083   1.840  -0.198  0.00  0.00    +0.560 A 
ATOM     23  O   LIG    1        4.216   2.260  -0.338  0.00  0.00    -0.510 OA
ATOM     24  N   LIG    1        2.836   0.516  -0.058  0.00  0.00    -0.530 N 
ATOM     25  C   LIG    1        1.565   0.062   0.097  0.00  0.00    +0.580 A 
ATOM     26  N   LIG    1        0.526   0.842   0.121  0.00  0.00    -0.510 NA
ATOM     27  C   LIG    1        0.643   2.187  -0.009  0.00  0.00    +0.150 A 
ENDBRANCH  15  24
ENDBRANCH   1  15
TORSDOF 3
