REMARK  Name = ZINCpe000000ZD3C.0
REMARK                            x       y       z     vdW  Elec       q    Type
REMARK                         _______ _______ _______ _____ _____    ______ ____
ROOT
ATOM      1  C   LIG    1        2.878   4.135  -1.487  0.00  0.00    +0.520 C 
ATOM      2  N   LIG    1        4.061   4.716  -1.767  0.00  0.00    -0.610 N 
ATOM      3  C   LIG    1        4.947   5.183  -0.690  0.00  0.00    +0.300 C 
ATOM      4  C   LIG    1        6.349   4.602  -0.934  0.00  0.00    +0.170 C 
ATOM      5  N   LIG    1        6.788   4.950  -2.292  0.00  0.00    -0.530 NA
ATOM      6  C   LIG    1        5.915   4.342  -3.306  0.00  0.00    +0.170 C 
ATOM      7  C   LIG    1        4.498   4.906  -3.159  0.00  0.00    +0.280 C 
ATOM      8  O   LIG    1        2.493   4.066  -0.339  0.00  0.00    -0.520 OA
ENDROOT
BRANCH   1  14
ATOM      9  O   LIG    1       -1.463   4.609  -0.843  0.00  0.00    -0.530 OA
ATOM     10  C   LIG    1       -0.519   4.245  -1.516  0.00  0.00    +0.570 C 
ATOM     11  N   LIG    1        0.158   5.130  -2.274  0.00  0.00    -0.730 N 
ATOM     12  H   LIG    1       -0.042   6.076  -2.197  0.00  0.00    +0.410 HD
ATOM     13  C   LIG    1        1.188   4.685  -3.210  0.00  0.00    +0.300 C 
ATOM     14  C   LIG    1        2.034   3.570  -2.600  0.00  0.00    +0.030 C 
ATOM     15  C   LIG    1        1.144   2.488  -2.048  0.00  0.00    -0.040 A 
ATOM     16  C   LIG    1        1.548   1.171  -2.061  0.00  0.00    +0.010 A 
ATOM     17  C   LIG    1        0.726   0.190  -1.532  0.00  0.00    +0.040 A 
ATOM     18  C   LIG    1       -0.498   0.523  -0.981  0.00  0.00    +0.010 A 
ATOM     19  C   LIG    1       -0.918   1.839  -0.971  0.00  0.00    +0.080 A 
ATOM     20  C   LIG    1       -0.101   2.828  -1.511  0.00  0.00    -0.120 A 
ENDBRANCH   1  14
BRANCH   5  21
ATOM     21  C   LIG    1        8.190   4.567  -2.507  0.00  0.00    +0.290 C 
BRANCH  21  22
ATOM     22  C   LIG    1        9.016   4.999  -1.323  0.00  0.00    -0.010 A 
ATOM     23  C   LIG    1        9.341   4.239  -0.264  0.00  0.00    +0.140 A 
ATOM     24  O   LIG    1       10.083   5.005   0.560  0.00  0.00    -0.200 OA
ATOM     25  C   LIG    1       10.201   6.215  -0.002  0.00  0.00    +0.420 A 
ATOM     26  N   LIG    1        9.565   6.212  -1.138  0.00  0.00    -0.470 NA
ENDBRANCH  21  22
ENDBRANCH   5  21
TORSDOF 3
