REMARK  Name = ZINCpk00000KfLq1.0
REMARK                            x       y       z     vdW  Elec       q    Type
REMARK                         _______ _______ _______ _____ _____    ______ ____
ROOT
ATOM      1  O   LIG    1       -0.714  -0.347   1.119  0.00  0.00    -0.320 OA
ENDROOT
BRANCH   1   8
ATOM      2  C   LIG    1       -2.103  -2.277   1.163  0.00  0.00    -0.070 A 
ATOM      3  C   LIG    1       -2.234  -3.650   1.251  0.00  0.00    +0.030 A 
ATOM      4  C   LIG    1       -1.111  -4.445   1.399  0.00  0.00    +0.100 A 
ATOM      5  C   LIG    1        0.146  -3.866   1.454  0.00  0.00    +0.030 A 
ATOM      6  C   LIG    1        0.280  -2.495   1.360  0.00  0.00    -0.080 A 
ATOM      7  F   LIG    1       -1.240  -5.787   1.490  0.00  0.00    -0.130 F 
ATOM      8  C   LIG    1       -0.845  -1.697   1.212  0.00  0.00    +0.080 A 
BRANCH   2   9
ATOM      9  C   LIG    1       -3.327  -1.412   1.008  0.00  0.00    +0.260 C 
BRANCH   9  10
ATOM     10  O   LIG    1       -4.481  -2.241   0.859  0.00  0.00    -0.570 OA
ATOM     11  H   LIG    1       -5.308  -1.750   0.755  0.00  0.00    +0.390 HD
ENDBRANCH   9  10
ENDBRANCH   2   9
BRANCH   6  12
ATOM     12  C   LIG    1        1.648  -1.865   1.419  0.00  0.00    +0.250 C 
BRANCH  12  13
ATOM     13  O   LIG    1        2.636  -2.886   1.574  0.00  0.00    -0.570 OA
ATOM     14  H   LIG    1        3.543  -2.553   1.620  0.00  0.00    +0.390 HD
ENDBRANCH  12  13
ENDBRANCH   6  12
ENDBRANCH   1   8
BRANCH   1  15
ATOM     15  C   LIG    1       -0.548   0.201  -0.190  0.00  0.00    +0.320 C 
BRANCH  15  16
ATOM     16  C   LIG    1       -0.522   1.705  -0.106  0.00  0.00    +0.180 A 
ATOM     17  N   LIG    1       -1.553   2.511  -0.181  0.00  0.00    -0.280 NA
ATOM     18  N   LIG    1       -1.122   3.720  -0.065  0.00  0.00    -0.070 NA
ATOM     19  N   LIG    1        0.157   3.706   0.081  0.00  0.00    -0.080 NA
ATOM     20  N   LIG    1        0.564   2.482   0.067  0.00  0.00    -0.290 N 
BRANCH  20  21
ATOM     21  C   LIG    1        1.948   2.023   0.209  0.00  0.00    +0.400 C 
BRANCH  21  22
ATOM     22  C   LIG    1        2.626   2.050  -1.137  0.00  0.00    -0.130 A 
ATOM     23  C   LIG    1        2.691   0.900  -1.901  0.00  0.00    +0.020 A 
ATOM     24  C   LIG    1        3.309   0.926  -3.137  0.00  0.00    +0.010 A 
ATOM     25  C   LIG    1        3.871   2.100  -3.605  0.00  0.00    +0.030 A 
ATOM     26  C   LIG    1        3.811   3.248  -2.838  0.00  0.00    +0.010 A 
ATOM     27  C   LIG    1        3.188   3.224  -1.604  0.00  0.00    +0.040 A 
ENDBRANCH  21  22
ENDBRANCH  20  21
ENDBRANCH  15  16
ENDBRANCH   1  15
TORSDOF 9
