REMARK  Name = ZINCkj00000GeTFv.1
REMARK                            x       y       z     vdW  Elec       q    Type
REMARK                         _______ _______ _______ _____ _____    ______ ____
ROOT
ATOM      1  C   LIG    1        1.286   1.562  -0.002  0.00  0.00    +0.220 C 
ENDROOT
BRANCH   1   2
ATOM      2  O   LIG    1       -0.011   0.963   0.007  0.00  0.00    -0.540 OA
ATOM      3  H   LIG    1        0.002  -0.004   0.002  0.00  0.00    +0.390 HD
ENDBRANCH   1   2
BRANCH   1   4
ATOM      4  C   LIG    1        2.040   1.127  -1.261  0.00  0.00    +0.250 C 
BRANCH   4   5
ATOM      5  N   LIG    1        1.357   1.660  -2.448  0.00  0.00    -0.400 N 
ATOM      6  C   LIG    1        0.259   0.801  -2.927  0.00  0.00    +0.300 C 
ATOM      7  C   LIG    1        0.691   1.145  -4.361  0.00  0.00    +0.300 C 
ATOM      8  C   LIG    1        2.063   1.369  -3.710  0.00  0.00    +0.290 C 
ATOM      9  H   LIG    1        1.095   2.629  -2.349  0.00  0.00    +0.450 HD
BRANCH   7  10
ATOM     10  N   LIG    1        0.646   0.016  -5.293  0.00  0.00    -0.390 N 
ATOM     11  C   LIG    1        0.441  -1.277  -4.966  0.00  0.00    +0.220 A 
ATOM     12  C   LIG    1        0.469  -2.001  -6.108  0.00  0.00    -0.080 A 
ATOM     13  C   LIG    1        0.709  -1.123  -7.169  0.00  0.00    +0.270 A 
ATOM     14  N   LIG    1        0.816   0.087  -6.682  0.00  0.00    -0.280 NA
ENDBRANCH   7  10
ENDBRANCH   4   5
ENDBRANCH   1   4
BRANCH   1  15
ATOM     15  C   LIG    1        2.064   1.114   1.238  0.00  0.00    +0.170 C 
BRANCH  15  16
ATOM     16  O   LIG    1        1.422   1.619   2.410  0.00  0.00    -0.370 OA
BRANCH  16  17
ATOM     17  C   LIG    1        2.072   1.256   3.630  0.00  0.00    +0.280 C 
BRANCH  17  18
ATOM     18  C   LIG    1        1.315   1.839   4.795  0.00  0.00    -0.210 A 
ATOM     19  C   LIG    1        0.319   1.235   5.446  0.00  0.00    +0.040 A 
ATOM     20  C   LIG    1       -0.227   1.966   6.487  0.00  0.00    +0.010 A 
ATOM     21  C   LIG    1        0.325   3.165   6.681  0.00  0.00    -0.030 A 
ATOM     22  S   LIG    1        1.613   3.418   5.511  0.00  0.00    +0.120 S 
ENDBRANCH  17  18
ENDBRANCH  16  17
ENDBRANCH  15  16
ENDBRANCH   1  15
TORSDOF 8
