REMARK  Name = ZINCpe00000gM7V7.0
REMARK                            x       y       z     vdW  Elec       q    Type
REMARK                         _______ _______ _______ _____ _____    ______ ____
ROOT
ATOM      1  C   LIG    1       -2.694   1.291  -2.597  0.00  0.00    +0.520 C 
ATOM      2  N   LIG    1       -3.898   0.790  -2.938  0.00  0.00    -0.620 N 
ATOM      3  C   LIG    1       -4.614  -0.118  -2.032  0.00  0.00    +0.270 C 
ATOM      4  C   LIG    1       -4.979  -1.393  -2.791  0.00  0.00    +0.000 C 
ATOM      5  C   LIG    1       -5.756  -1.025  -4.057  0.00  0.00    +0.150 C 
ATOM      6  C   LIG    1       -4.880  -0.155  -4.962  0.00  0.00    +0.030 C 
ATOM      7  C   LIG    1       -4.517   1.137  -4.224  0.00  0.00    +0.290 C 
ATOM      8  O   LIG    1       -2.111   2.036  -3.356  0.00  0.00    -0.520 OA
ENDROOT
BRANCH   1   9
ATOM      9  C   LIG    1       -2.073   0.926  -1.274  0.00  0.00    +0.210 C 
BRANCH   9  11
ATOM     10  C   LIG    1       -0.936   3.053  -1.060  0.00  0.00    +0.220 C 
ATOM     11  N   LIG    1       -0.772   1.595  -1.141  0.00  0.00    -0.510 NA
BRANCH  11  12
ATOM     12  C   LIG    1       -0.032   1.083   0.019  0.00  0.00    +0.130 C 
ATOM     13  C   LIG    1        1.329   1.802   0.157  0.00  0.00    +0.230 C 
ATOM     14  O   LIG    1        2.244   0.777   0.601  0.00  0.00    -0.370 OA
ATOM     15  C   LIG    1        1.891  -0.402  -0.156  0.00  0.00    +0.190 C 
ATOM     16  C   LIG    1        0.347  -0.400  -0.192  0.00  0.00    +0.150 C 
BRANCH  16  17
ATOM     17  O   LIG    1       -0.179  -1.206   0.864  0.00  0.00    -0.560 OA
ATOM     18  H   LIG    1        0.029  -2.147   0.782  0.00  0.00    +0.380 HD
ENDBRANCH  16  17
ENDBRANCH  11  12
ENDBRANCH   9  11
ENDBRANCH   1   9
BRANCH   5  19
ATOM     19  O   LIG    1       -6.124  -2.217  -4.754  0.00  0.00    -0.370 OA
BRANCH  19  20
ATOM     20  C   LIG    1       -7.390  -2.752  -4.363  0.00  0.00    +0.220 C 
BRANCH  20  21
ATOM     21  C   LIG    1       -7.675  -4.001  -5.157  0.00  0.00    -0.090 A 
ATOM     22  C   LIG    1       -8.348  -3.916  -6.362  0.00  0.00    +0.020 A 
ATOM     23  C   LIG    1       -8.604  -5.061  -7.092  0.00  0.00    +0.000 A 
ATOM     24  C   LIG    1       -8.197  -6.292  -6.613  0.00  0.00    +0.010 A 
ATOM     25  C   LIG    1       -7.529  -6.378  -5.406  0.00  0.00    +0.000 A 
ATOM     26  C   LIG    1       -7.268  -5.232  -4.678  0.00  0.00    +0.020 A 
ENDBRANCH  20  21
ENDBRANCH  19  20
ENDBRANCH   5  19
TORSDOF 7
