REMARK  Name = ZINCrg00000SjSn7.0
REMARK                            x       y       z     vdW  Elec       q    Type
REMARK                         _______ _______ _______ _____ _____    ______ ____
ROOT
ATOM      1  C   LIG    1        1.423   1.615  -0.003  0.00  0.00    +0.010 C 
ENDROOT
BRANCH   1   5
ATOM      2  C   LIG    1       -2.888   1.297  -0.220  0.00  0.00    +0.240 C 
ATOM      3  C   LIG    1       -2.066   0.778  -1.402  0.00  0.00    +0.010 C 
ATOM      4  C   LIG    1       -0.665   1.392  -1.357  0.00  0.00    +0.030 C 
ATOM      5  C   LIG    1        0.022   1.001  -0.047  0.00  0.00    -0.010 C 
ATOM      6  C   LIG    1       -0.800   1.521   1.134  0.00  0.00    +0.030 C 
ATOM      7  C   LIG    1       -2.201   0.907   1.090  0.00  0.00    +0.010 C 
BRANCH   2   9
ATOM      8  C   LIG    1       -5.263   1.348   0.320  0.00  0.00    +0.530 C 
ATOM      9  N   LIG    1       -4.229   0.710  -0.263  0.00  0.00    -0.690 N 
ATOM     10  H   LIG    1       -4.372  -0.139  -0.710  0.00  0.00    +0.410 HD
ATOM     11  O   LIG    1       -5.083   2.410   0.879  0.00  0.00    -0.490 OA
BRANCH   8  12
ATOM     12  C   LIG    1       -6.631   0.748   0.276  0.00  0.00    +0.460 C 
ATOM     13  O   LIG    1       -6.811  -0.313  -0.283  0.00  0.00    -0.480 OA
BRANCH  12  15
ATOM     14  C   LIG    1       -8.964   0.745   0.776  0.00  0.00    +0.280 C 
ATOM     15  O   LIG    1       -7.664   1.385   0.858  0.00  0.00    -0.330 OA
ENDBRANCH  12  15
ENDBRANCH   8  12
ENDBRANCH   2   9
ENDBRANCH   1   5
BRANCH   1  16
ATOM     16  C   LIG    1        2.163   1.109   1.237  0.00  0.00    -0.010 C 
ATOM     17  C   LIG    1        3.506   1.830   1.359  0.00  0.00    +0.010 C 
ATOM     18  C   LIG    1        4.246   1.323   2.599  0.00  0.00    +0.020 C 
ATOM     19  C   LIG    1        4.486  -0.182   2.470  0.00  0.00    +0.250 C 
ATOM     20  C   LIG    1        3.143  -0.904   2.347  0.00  0.00    +0.030 C 
ATOM     21  C   LIG    1        2.403  -0.397   1.107  0.00  0.00    +0.010 C 
BRANCH  19  22
ATOM     22  N   LIG    1        5.293  -0.447   1.276  0.00  0.00    -0.690 N 
ATOM     23  H   LIG    1        4.861  -0.679   0.440  0.00  0.00    +0.410 HD
ATOM     24  C   LIG    1        6.638  -0.369   1.341  0.00  0.00    +0.530 C 
ATOM     25  O   LIG    1        7.179  -0.080   2.388  0.00  0.00    -0.490 OA
BRANCH  24  26
ATOM     26  C   LIG    1        7.461  -0.640   0.124  0.00  0.00    +0.460 C 
ATOM     27  O   LIG    1        6.920  -0.929  -0.922  0.00  0.00    -0.480 OA
BRANCH  26  28
ATOM     28  O   LIG    1        8.803  -0.562   0.189  0.00  0.00    -0.330 OA
ATOM     29  C   LIG    1        9.539  -0.838  -1.032  0.00  0.00    +0.280 C 
ENDBRANCH  26  28
ENDBRANCH  24  26
ENDBRANCH  19  22
ENDBRANCH   1  16
TORSDOF 8
