REMARK  Name = ZINCrD00000F5Ls9.0
REMARK                            x       y       z     vdW  Elec       q    Type
REMARK                         _______ _______ _______ _____ _____    ______ ____
ROOT
ATOM      1  C   LIG    1        2.381   1.409  -0.013  0.00  0.00    +0.230 A 
ATOM      2  C   LIG    1        1.178   2.074   0.184  0.00  0.00    +0.030 A 
ATOM      3  C   LIG    1       -0.008   1.366   0.191  0.00  0.00    +0.110 A 
ATOM      4  C   LIG    1        0.002  -0.004   0.002  0.00  0.00    -0.100 A 
ATOM      5  C   LIG    1        1.198  -0.669  -0.195  0.00  0.00    +0.160 A 
ATOM      6  C   LIG    1        2.388   0.032  -0.203  0.00  0.00    -0.050 A 
ENDROOT
BRANCH   4   7
ATOM      7  C   LIG    1       -1.294  -0.773   0.010  0.00  0.00    +0.430 C 
ATOM      8  N   LIG    1       -1.272  -1.815   1.062  0.00  0.00    -0.740 N 
ATOM      9  H   LIG    1       -0.911  -1.704   1.956  0.00  0.00    +0.420 HD
ATOM     10  C   LIG    1       -1.840  -2.954   0.575  0.00  0.00    +0.540 C 
ATOM     11  C   LIG    1       -2.353  -2.628  -0.796  0.00  0.00    +0.120 C 
ATOM     12  C   LIG    1       -2.234  -3.733  -1.835  0.00  0.00    +0.070 C 
ATOM     13  C   LIG    1       -2.789  -3.160  -3.153  0.00  0.00    +0.010 C 
ATOM     14  C   LIG    1       -2.051  -1.881  -3.543  0.00  0.00    +0.020 C 
ATOM     15  C   LIG    1       -2.045  -0.868  -2.386  0.00  0.00    +0.190 C 
ATOM     16  O   LIG    1       -1.917  -4.024   1.141  0.00  0.00    -0.500 OA
ATOM     17  N   LIG    1       -1.450  -1.527  -1.236  0.00  0.00    -0.520 NA
ENDBRANCH   4   7
BRANCH   6  18
ATOM     18  N   LIG    1        3.667  -0.680  -0.414  0.00  0.00    +0.030 N 
ATOM     19  O   LIG    1        4.716  -0.061  -0.421  0.00  0.00    -0.130 OA
ATOM     20  O   LIG    1        3.672  -1.887  -0.581  0.00  0.00    -0.170 OA
ENDBRANCH   6  18
BRANCH   1  22
ATOM     21  C   LIG    1        4.101   2.668  -1.278  0.00  0.00    +0.300 C 
ATOM     22  N   LIG    1        3.582   2.122  -0.021  0.00  0.00    -0.590 N 
BRANCH  22  23
ATOM     23  C   LIG    1        4.288   2.315   1.169  0.00  0.00    +0.220 A 
ATOM     24  C   LIG    1        3.795   1.803   2.362  0.00  0.00    -0.080 A 
ATOM     25  C   LIG    1        4.498   1.990   3.536  0.00  0.00    +0.050 A 
ATOM     26  C   LIG    1        5.687   2.697   3.526  0.00  0.00    -0.050 A 
ATOM     27  C   LIG    1        6.178   3.213   2.341  0.00  0.00    +0.050 A 
ATOM     28  C   LIG    1        5.483   3.024   1.162  0.00  0.00    -0.050 A 
ENDBRANCH  22  23
ENDBRANCH   1  22
TORSDOF 4
