REMARK  Name = ZINCrg00000BzT3S.0
REMARK                            x       y       z     vdW  Elec       q    Type
REMARK                         _______ _______ _______ _____ _____    ______ ____
ROOT
ATOM      1  O   LIG    1        0.663  -1.801   1.176  0.00  0.00    -0.520 OA
ATOM      2  C   LIG    1        0.305  -1.232   0.164  0.00  0.00    +0.570 C 
ATOM      3  N   LIG    1        1.132  -0.361  -0.448  0.00  0.00    -0.600 N 
ATOM      4  C   LIG    1        0.743   0.276  -1.714  0.00  0.00    +0.270 C 
ATOM      5  C   LIG    1        0.835   1.797  -1.546  0.00  0.00    +0.290 C 
ATOM      6  N   LIG    1        2.142   2.127  -0.959  0.00  0.00    -0.590 N 
ATOM      7  C   LIG    1        2.530   1.490   0.307  0.00  0.00    +0.230 C 
ATOM      8  C   LIG    1        2.969   2.997  -1.571  0.00  0.00    +0.610 C 
ATOM      9  O   LIG    1        4.091   3.176  -1.139  0.00  0.00    -0.490 OA
ATOM     10  C   LIG    1        2.438  -0.032   0.139  0.00  0.00    +0.300 C 
ENDROOT
BRANCH   2  11
ATOM     11  C   LIG    1       -1.039  -1.493  -0.396  0.00  0.00    -0.060 A 
ATOM     12  C   LIG    1       -1.205  -1.850  -1.727  0.00  0.00    +0.000 A 
ATOM     13  C   LIG    1       -2.485  -2.095  -2.220  0.00  0.00    +0.300 A 
ATOM     14  N   LIG    1       -3.549  -1.988  -1.464  0.00  0.00    -0.460 NA
ATOM     15  C   LIG    1       -3.466  -1.644  -0.176  0.00  0.00    +0.130 A 
ATOM     16  C   LIG    1       -4.622  -1.535   0.619  0.00  0.00    +0.050 A 
ATOM     17  C   LIG    1       -4.508  -1.183   1.929  0.00  0.00    +0.030 A 
ATOM     18  C   LIG    1       -3.264  -0.928   2.500  0.00  0.00    +0.020 A 
ATOM     19  C   LIG    1       -2.123  -1.024   1.760  0.00  0.00    +0.030 A 
ATOM     20  C   LIG    1       -2.202  -1.383   0.408  0.00  0.00    -0.070 A 
ENDBRANCH   2  11
BRANCH   8  21
ATOM     21  C   LIG    1        2.513   3.732  -2.766  0.00  0.00    -0.020 A 
ATOM     22  C   LIG    1        3.327   4.533  -3.540  0.00  0.00    -0.030 A 
ATOM     23  S   LIG    1        2.282   5.121  -4.774  0.00  0.00    +0.490 S 
ATOM     24  N   LIG    1        0.997   4.386  -4.270  0.00  0.00    -0.290 NA
ATOM     25  N   LIG    1        1.267   3.708  -3.226  0.00  0.00    -0.220 NA
ENDBRANCH   8  21
BRANCH   7  26
ATOM     26  C   LIG    1        3.967   1.881   0.659  0.00  0.00    +0.200 C 
BRANCH  26  27
ATOM     27  O   LIG    1        4.026   3.284   0.927  0.00  0.00    -0.550 OA
ATOM     28  H   LIG    1        4.909   3.603   1.158  0.00  0.00    +0.380 HD
ENDBRANCH  26  27
ENDBRANCH   7  26
TORSDOF 4
