REMARK  Name = ZINCrH000004vIMI.0
REMARK                            x       y       z     vdW  Elec       q    Type
REMARK                         _______ _______ _______ _____ _____    ______ ____
ROOT
ATOM      1  O   LIG    1       -3.588  -4.117   0.075  0.00  0.00    -0.550 OA
ATOM      2  C   LIG    1       -2.778  -3.215   0.029  0.00  0.00    +0.520 C 
ATOM      3  C   LIG    1       -2.499  -2.578  -1.302  0.00  0.00    +0.080 C 
ATOM      4  C   LIG    1       -1.184  -1.798  -1.243  0.00  0.00    +0.040 C 
ATOM      5  C   LIG    1       -1.200  -0.912   0.009  0.00  0.00    +0.100 C 
ATOM      6  C   LIG    1       -1.159  -1.809   1.247  0.00  0.00    +0.280 C 
ATOM      7  N   LIG    1       -2.183  -2.843   1.163  0.00  0.00    -0.600 N 
ENDROOT
BRANCH   5   8
ATOM      8  C   LIG    1        0.002  -0.004   0.002  0.00  0.00    +0.180 A 
ATOM      9  N   LIG    1        1.247  -0.376  -0.012  0.00  0.00    -0.370 NA
ATOM     10  O   LIG    1        1.975   0.594  -0.014  0.00  0.00    +0.090 OA
ATOM     11  C   LIG    1        1.242   1.711  -0.001  0.00  0.00    +0.190 A 
ATOM     12  N   LIG    1       -0.016   1.341   0.009  0.00  0.00    -0.480 NA
BRANCH  11  13
ATOM     13  C   LIG    1        1.761   3.126   0.001  0.00  0.00    +0.120 C 
ATOM     14  C   LIG    1        2.627   3.351   1.245  0.00  0.00    +0.030 C 
ATOM     15  C   LIG    1        3.294   4.731   1.141  0.00  0.00    +0.200 C 
ATOM     16  C   LIG    1        2.200   5.764   0.782  0.00  0.00    +0.000 C 
ATOM     17  C   LIG    1        2.188   5.771  -0.763  0.00  0.00    +0.000 C 
ATOM     18  C   LIG    1        3.275   4.741  -1.149  0.00  0.00    +0.200 C 
ATOM     19  O   LIG    1        4.165   4.709  -0.012  0.00  0.00    -0.360 OA
ATOM     20  C   LIG    1        2.606   3.362  -1.255  0.00  0.00    +0.030 C 
ENDBRANCH  11  13
ENDBRANCH   5   8
BRANCH   7  21
ATOM     21  C   LIG    1       -2.584  -3.515   2.402  0.00  0.00    +0.280 C 
BRANCH  21  22
ATOM     22  C   LIG    1       -3.746  -2.753   3.042  0.00  0.00    -0.020 C 
ATOM     23  C   LIG    1       -3.270  -1.364   3.471  0.00  0.00    +0.000 C 
ATOM     24  C   LIG    1       -4.432  -0.602   4.112  0.00  0.00    +0.000 C 
ATOM     25  C   LIG    1       -4.932  -1.371   5.337  0.00  0.00    +0.000 C 
ATOM     26  C   LIG    1       -5.408  -2.760   4.908  0.00  0.00    +0.000 C 
ATOM     27  C   LIG    1       -4.246  -3.522   4.267  0.00  0.00    +0.020 C 
ENDBRANCH  21  22
ENDBRANCH   7  21
TORSDOF 4
