REMARK  Name = ZINCpk00001AZiJT.0
REMARK                            x       y       z     vdW  Elec       q    Type
REMARK                         _______ _______ _______ _____ _____    ______ ____
ROOT
ATOM      1  N   LIG    1        0.394   1.612  -0.488  0.00  0.00    -0.660 N 
ENDROOT
BRANCH   1   2
ATOM      2  C   LIG    1        0.501   0.351   0.042  0.00  0.00    +0.460 A 
ATOM      3  C   LIG    1        0.570  -0.739  -0.780  0.00  0.00    -0.130 A 
ATOM      4  C   LIG    1        0.679  -2.017  -0.209  0.00  0.00    +0.550 A 
ATOM      5  N   LIG    1        0.713  -2.146   1.131  0.00  0.00    -0.560 N 
ATOM      6  C   LIG    1        0.643  -1.063   1.926  0.00  0.00    +0.700 A 
ATOM      7  O   LIG    1        0.675  -1.202   3.133  0.00  0.00    -0.540 OA
ATOM      8  C   LIG    1        0.827  -3.479   1.730  0.00  0.00    +0.340 C 
ATOM      9  O   LIG    1        0.743  -3.003  -0.923  0.00  0.00    -0.520 OA
ATOM     10  N   LIG    1        0.544   0.174   1.403  0.00  0.00    -0.540 N 
ATOM     11  C   LIG    1        0.476   1.336   2.292  0.00  0.00    +0.340 C 
ENDBRANCH   1   2
BRANCH   1  12
ATOM     12  C   LIG    1        1.587   2.450  -0.629  0.00  0.00    +0.380 C 
BRANCH  12  19
ATOM     13  C   LIG    1        0.859   3.773  -3.415  0.00  0.00    +0.160 C 
ATOM     14  C   LIG    1        1.933   2.743  -3.179  0.00  0.00    +0.090 A 
ATOM     15  N   LIG    1        2.726   2.239  -4.089  0.00  0.00    -0.290 NA
ATOM     16  N   LIG    1        3.578   1.318  -3.466  0.00  0.00    -0.470 N 
ATOM     17  H   LIG    1        4.269   0.794  -3.902  0.00  0.00    +0.440 HD
ATOM     18  C   LIG    1        3.271   1.291  -2.152  0.00  0.00    +0.250 A 
ATOM     19  C   LIG    1        2.253   2.159  -1.949  0.00  0.00    -0.260 A 
ENDBRANCH  12  19
ENDBRANCH   1  12
BRANCH   1  20
ATOM     20  C   LIG    1       -0.912   2.117  -0.919  0.00  0.00    +0.310 C 
BRANCH  20  21
ATOM     21  C   LIG    1       -1.545   2.926   0.214  0.00  0.00    -0.040 C 
ATOM     22  C   LIG    1       -0.632   4.098   0.582  0.00  0.00    +0.060 C 
ATOM     23  C   LIG    1       -1.351   5.045   1.498  0.00  0.00    -0.060 C 
ATOM     24  C   LIG    1       -2.635   5.066   1.656  0.00  0.00    -0.050 C 
ATOM     25  C   LIG    1       -3.584   4.139   0.955  0.00  0.00    +0.050 C 
ATOM     26  C   LIG    1       -2.898   3.485  -0.245  0.00  0.00    +0.030 C 
ENDBRANCH  20  21
ENDBRANCH   1  20
TORSDOF 5
