REMARK  Name = ZINCpk00001AZiJT.1
REMARK                            x       y       z     vdW  Elec       q    Type
REMARK                         _______ _______ _______ _____ _____    ______ ____
ROOT
ATOM      1  N   LIG    1        0.147   1.733  -0.133  0.00  0.00    -0.640 N 
ENDROOT
BRANCH   1   2
ATOM      2  C   LIG    1        1.324   2.366  -0.445  0.00  0.00    +0.460 A 
ATOM      3  C   LIG    1        2.049   2.992   0.531  0.00  0.00    -0.160 A 
ATOM      4  C   LIG    1        3.249   3.631   0.183  0.00  0.00    +0.550 A 
ATOM      5  N   LIG    1        3.664   3.616  -1.099  0.00  0.00    -0.560 N 
ATOM      6  C   LIG    1        2.938   2.996  -2.046  0.00  0.00    +0.700 A 
ATOM      7  O   LIG    1        3.330   2.995  -3.197  0.00  0.00    -0.540 OA
ATOM      8  C   LIG    1        4.917   4.283  -1.464  0.00  0.00    +0.340 C 
ATOM      9  O   LIG    1        3.913   4.196   1.036  0.00  0.00    -0.520 OA
ATOM     10  N   LIG    1        1.787   2.371  -1.738  0.00  0.00    -0.540 N 
ATOM     11  C   LIG    1        1.020   1.698  -2.789  0.00  0.00    +0.330 C 
ENDBRANCH   1   2
BRANCH   1  12
ATOM     12  C   LIG    1        0.157   0.555   0.738  0.00  0.00    +0.380 C 
BRANCH  12  15
ATOM     13  C   LIG    1        2.640  -0.668  -0.720  0.00  0.00    +0.140 C 
ATOM     14  C   LIG    1        1.239  -1.222  -0.736  0.00  0.00    +0.110 A 
ATOM     15  C   LIG    1        0.165  -0.694  -0.106  0.00  0.00    -0.270 A 
ATOM     16  C   LIG    1       -0.939  -1.508  -0.380  0.00  0.00    +0.250 A 
ATOM     17  N   LIG    1       -0.541  -2.493  -1.144  0.00  0.00    -0.290 NA
ATOM     18  N   LIG    1        0.831  -2.336  -1.380  0.00  0.00    -0.470 N 
ATOM     19  H   LIG    1        1.389  -2.923  -1.914  0.00  0.00    +0.440 HD
ENDBRANCH  12  15
ENDBRANCH   1  12
BRANCH   1  20
ATOM     20  C   LIG    1       -1.118   2.231  -0.677  0.00  0.00    +0.280 C 
BRANCH  20  21
ATOM     21  C   LIG    1       -1.785   3.153   0.346  0.00  0.00    -0.020 C 
ATOM     22  C   LIG    1       -0.924   4.402   0.551  0.00  0.00    +0.050 C 
ATOM     23  C   LIG    1       -1.683   5.428   1.340  0.00  0.00    -0.050 C 
ATOM     24  C   LIG    1       -2.966   5.414   1.505  0.00  0.00    -0.060 C 
ATOM     25  C   LIG    1       -3.875   4.362   0.938  0.00  0.00    +0.050 C 
ATOM     26  C   LIG    1       -3.162   3.588  -0.172  0.00  0.00    +0.020 C 
ENDBRANCH  20  21
ENDBRANCH   1  20
TORSDOF 5
