REMARK  Name = ZINCpe000000ToV5.0
REMARK                            x       y       z     vdW  Elec       q    Type
REMARK                         _______ _______ _______ _____ _____    ______ ____
ROOT
ATOM      1  C   LIG    1       -0.018   1.467   0.010  0.00  0.00    +0.580 C 
ATOM      2  N   LIG    1        1.140   2.157   0.003  0.00  0.00    -0.720 N 
ATOM      3  H   LIG    1        1.986   1.684  -0.008  0.00  0.00    +0.400 HD
ATOM      4  O   LIG    1       -1.079   2.061   0.018  0.00  0.00    -0.490 OA
ENDROOT
BRANCH   1   9
ATOM      5  C   LIG    1       -0.564  -2.142  -0.004  0.00  0.00    +0.100 A 
ATOM      6  N   LIG    1        0.741  -2.041  -0.016  0.00  0.00    -0.240 NA
ATOM      7  N   LIG    1        1.106  -0.809  -0.012  0.00  0.00    -0.350 N 
ATOM      8  H   LIG    1        2.024  -0.498  -0.019  0.00  0.00    +0.460 HD
ATOM      9  C   LIG    1        0.002  -0.004   0.002  0.00  0.00    +0.030 A 
ATOM     10  C   LIG    1       -1.093  -0.850   0.013  0.00  0.00    -0.080 A 
BRANCH  10  11
ATOM     11  N   LIG    1       -2.523  -0.466   0.036  0.00  0.00    +0.050 N 
ATOM     12  O   LIG    1       -3.096  -0.314   1.100  0.00  0.00    -0.120 OA
ATOM     13  O   LIG    1       -3.127  -0.303  -1.009  0.00  0.00    -0.120 OA
ENDBRANCH  10  11
BRANCH   5  14
ATOM     14  C   LIG    1       -1.354  -3.425  -0.004  0.00  0.00    +0.140 C 
BRANCH  14  16
ATOM     15  C   LIG    1       -2.410  -5.170   1.439  0.00  0.00    +0.030 C 
ATOM     16  C   LIG    1       -1.608  -3.868   1.438  0.00  0.00    +0.020 C 
ENDBRANCH  14  16
ENDBRANCH   5  14
ENDBRANCH   1   9
BRANCH   2  17
ATOM     17  C   LIG    1        1.120   3.622   0.011  0.00  0.00    +0.340 C 
BRANCH  17  18
ATOM     18  C   LIG    1        2.534   4.144   0.000  0.00  0.00    -0.140 A 
ATOM     19  C   LIG    1        3.192   4.382   1.192  0.00  0.00    +0.100 A 
ATOM     20  C   LIG    1        4.490   4.856   1.182  0.00  0.00    +0.000 A 
ATOM     21  C   LIG    1        5.127   5.101  -0.019  0.00  0.00    +0.150 A 
ATOM     22  C   LIG    1        4.468   4.868  -1.212  0.00  0.00    -0.680 A 
ATOM     23  C   LIG    1        3.171   4.389  -1.202  0.00  0.00    +0.150 A 
BRANCH  22  24
ATOM     24  S   LIG    1        5.280   5.180  -2.744  0.00  0.00    +2.700 S 
ATOM     25  O   LIG    1        4.632   4.369  -3.714  0.00  0.00    -0.960 OA
ATOM     26  O   LIG    1        6.675   5.112  -2.480  0.00  0.00    -0.960 OA
BRANCH  24  27
ATOM     27  N   LIG    1        4.958   6.751  -3.158  0.00  0.00    -1.250 NA
ATOM     28  H   LIG    1        5.320   7.120  -3.978  0.00  0.00    +0.420 HD
ATOM     29  H   LIG    1        4.408   7.302  -2.579  0.00  0.00    +0.420 HD
ENDBRANCH  24  27
ENDBRANCH  22  24
ENDBRANCH  17  18
ENDBRANCH   2  17
TORSDOF 8
