REMARK  Name = ZINCqH0000033GWQ.0
REMARK                            x       y       z     vdW  Elec       q    Type
REMARK                         _______ _______ _______ _____ _____    ______ ____
ROOT
ATOM      1  N   LIG    1        4.471  -1.807   3.391  0.00  0.00    -0.670 N 
ATOM      2  H   LIG    1        5.354  -1.405   3.427  0.00  0.00    +0.410 HD
ATOM      3  C   LIG    1        3.590  -1.415   2.451  0.00  0.00    +0.710 C 
ATOM      4  N   LIG    1        3.899  -0.402   1.617  0.00  0.00    -0.620 N 
ATOM      5  C   LIG    1        5.195   0.272   1.733  0.00  0.00    +0.280 C 
ATOM      6  O   LIG    1        2.514  -1.975   2.354  0.00  0.00    -0.570 OA
ENDROOT
BRANCH   1  16
ATOM      7  C   LIG    1        4.599  -2.733   5.622  0.00  0.00    +0.080 A 
ATOM      8  C   LIG    1        4.234  -3.710   6.536  0.00  0.00    -0.010 A 
ATOM      9  C   LIG    1        3.405  -4.741   6.149  0.00  0.00    -0.150 A 
ATOM     10  C   LIG    1        2.924  -4.821   4.849  0.00  0.00    +0.090 A 
ATOM     11  O   LIG    1        2.138  -5.921   4.680  0.00  0.00    -0.300 OA
ATOM     12  C   LIG    1        1.702  -6.393   5.966  0.00  0.00    +0.170 C 
ATOM     13  C   LIG    1        1.581  -7.918   5.971  0.00  0.00    +0.070 C 
ATOM     14  C   LIG    1        3.285  -3.836   3.933  0.00  0.00    +0.060 A 
ATOM     15  C   LIG    1        2.839  -5.927   6.906  0.00  0.00    +0.080 C 
ATOM     16  C   LIG    1        4.114  -2.796   4.318  0.00  0.00    +0.170 A 
BRANCH   7  17
ATOM     17  O   LIG    1        5.421  -1.717   5.999  0.00  0.00    -0.320 OA
BRANCH  17  19
ATOM     18  C   LIG    1        6.784  -0.509   7.588  0.00  0.00    +0.070 C 
ATOM     19  C   LIG    1        5.878  -1.719   7.353  0.00  0.00    +0.180 C 
ENDBRANCH  17  19
ENDBRANCH   7  17
ENDBRANCH   1  16
BRANCH   4  20
ATOM     20  C   LIG    1        2.941   0.024   0.595  0.00  0.00    +0.360 C 
BRANCH  20  21
ATOM     21  C   LIG    1        2.047   1.098   1.161  0.00  0.00    -0.140 A 
ATOM     22  C   LIG    1        0.779   0.778   1.605  0.00  0.00    +0.050 A 
ATOM     23  C   LIG    1       -0.042   1.762   2.125  0.00  0.00    +0.000 A 
ATOM     24  C   LIG    1        0.405   3.068   2.201  0.00  0.00    +0.030 A 
ATOM     25  C   LIG    1        1.673   3.393   1.758  0.00  0.00    -0.020 A 
ATOM     26  C   LIG    1        2.497   2.408   1.236  0.00  0.00    +0.120 A 
BRANCH  26  27
ATOM     27  O   LIG    1        3.744   2.725   0.798  0.00  0.00    -0.500 OA
ATOM     28  H   LIG    1        3.782   2.974  -0.136  0.00  0.00    +0.390 HD
ENDBRANCH  26  27
ENDBRANCH  20  21
ENDBRANCH   4  20
TORSDOF 6
