REMARK  Name = ZINCpe000000XMgX.0
REMARK                            x       y       z     vdW  Elec       q    Type
REMARK                         _______ _______ _______ _____ _____    ______ ____
ROOT
ATOM      1  C   LIG    1        2.995   3.895  -1.355  0.00  0.00    +0.520 C 
ATOM      2  N   LIG    1        4.085   4.645  -1.611  0.00  0.00    -0.620 N 
ATOM      3  C   LIG    1        4.925   5.142  -0.512  0.00  0.00    +0.270 C 
ATOM      4  C   LIG    1        6.372   4.685  -0.763  0.00  0.00    +0.270 C 
ATOM      5  N   LIG    1        6.738   5.025  -2.145  0.00  0.00    -0.600 N 
ATOM      6  C   LIG    1        5.895   4.533  -3.243  0.00  0.00    +0.290 C 
ATOM      7  C   LIG    1        7.828   5.776  -2.401  0.00  0.00    +0.590 C 
ATOM      8  O   LIG    1        8.172   5.976  -3.549  0.00  0.00    -0.520 OA
ATOM      9  C   LIG    1        4.451   4.985  -2.993  0.00  0.00    +0.280 C 
ATOM     10  O   LIG    1        2.306   3.494  -2.269  0.00  0.00    -0.520 OA
ENDROOT
BRANCH   7  11
ATOM     11  C   LIG    1        8.603   6.357  -1.285  0.00  0.00    -0.030 A 
ATOM     12  N   LIG    1        9.419   5.590  -0.568  0.00  0.00    -0.370 NA
ATOM     13  C   LIG    1       10.110   6.111   0.426  0.00  0.00    +0.160 A 
ATOM     14  C   LIG    1        9.992   7.460   0.730  0.00  0.00    +0.310 A 
ATOM     15  N   LIG    1        9.186   8.234   0.026  0.00  0.00    -0.500 NA
ATOM     16  C   LIG    1        8.487   7.723  -0.981  0.00  0.00    +0.400 A 
BRANCH  16  17
ATOM     17  N   LIG    1        7.646   8.532  -1.724  0.00  0.00    -0.830 N 
ATOM     18  H   LIG    1        7.622   9.487  -1.560  0.00  0.00    +0.410 HD
ATOM     19  H   LIG    1        7.080   8.143  -2.409  0.00  0.00    +0.410 HD
ENDBRANCH  16  17
ENDBRANCH   7  11
BRANCH   1  20
ATOM     20  C   LIG    1        2.632   3.554   0.068  0.00  0.00    +0.100 C 
BRANCH  20  25
ATOM     21  C   LIG    1       -2.163   0.329   0.103  0.00  0.00    +0.090 C 
ATOM     22  C   LIG    1       -0.912   1.169   0.097  0.00  0.00    -0.080 A 
ATOM     23  C   LIG    1        0.328   0.563   0.028  0.00  0.00    +0.000 A 
ATOM     24  C   LIG    1        1.475   1.335   0.017  0.00  0.00    +0.020 A 
ATOM     25  C   LIG    1        1.381   2.713   0.079  0.00  0.00    -0.080 A 
ATOM     26  C   LIG    1        0.141   3.319   0.153  0.00  0.00    +0.020 A 
ATOM     27  C   LIG    1       -1.006   2.547   0.163  0.00  0.00    +0.000 A 
ENDBRANCH  20  25
ENDBRANCH   1  20
TORSDOF 4
