REMARK  Name = ZINCpe000000YatO.0
REMARK                            x       y       z     vdW  Elec       q    Type
REMARK                         _______ _______ _______ _____ _____    ______ ____
ROOT
ATOM      1  C   LIG    1       -0.742   1.585  -1.213  0.00  0.00    +0.520 C 
ATOM      2  N   LIG    1       -0.288   1.272  -2.443  0.00  0.00    -0.620 N 
ATOM      3  C   LIG    1        0.919   0.450  -2.616  0.00  0.00    +0.300 C 
ATOM      4  C   LIG    1        0.584  -0.702  -3.577  0.00  0.00    +0.200 C 
ATOM      5  N   LIG    1        0.025  -0.150  -4.819  0.00  0.00    -0.470 N 
ATOM      6  C   LIG    1       -1.242   0.551  -4.568  0.00  0.00    +0.210 C 
ATOM      7  C   LIG    1       -0.985   1.749  -3.648  0.00  0.00    +0.290 C 
ATOM      8  O   LIG    1       -1.736   2.268  -1.088  0.00  0.00    -0.510 OA
ENDROOT
BRANCH   5   9
ATOM      9  C   LIG    1       -0.137  -1.144  -5.777  0.00  0.00    +0.260 A 
ATOM     10  C   LIG    1        0.948  -1.929  -6.160  0.00  0.00    +0.210 A 
ATOM     11  N   LIG    1        0.789  -2.872  -7.069  0.00  0.00    -0.420 NA
ATOM     12  C   LIG    1       -0.398  -3.072  -7.617  0.00  0.00    +0.190 A 
ATOM     13  C   LIG    1       -1.477  -2.296  -7.239  0.00  0.00    +0.250 A 
ATOM     14  N   LIG    1       -1.328  -1.352  -6.325  0.00  0.00    -0.480 NA
ENDBRANCH   5   9
BRANCH   1  15
ATOM     15  C   LIG    1       -0.013   1.086   0.008  0.00  0.00    +0.220 C 
BRANCH  15  16
ATOM     16  N   LIG    1       -0.700   1.560   1.217  0.00  0.00    -0.520 NA
ATOM     17  C   LIG    1       -0.615   3.022   1.332  0.00  0.00    +0.200 C 
BRANCH  16  18
ATOM     18  C   LIG    1       -0.165   0.904   2.418  0.00  0.00    +0.280 C 
BRANCH  18  25
ATOM     19  C   LIG    1        0.106   3.395   4.479  0.00  0.00    +0.160 C 
ATOM     20  C   LIG    1       -0.934   2.305   4.501  0.00  0.00    +0.030 A 
ATOM     21  N   LIG    1       -1.910   2.176   5.353  0.00  0.00    -0.370 NA
ATOM     22  O   LIG    1       -2.580   1.197   5.117  0.00  0.00    +0.100 OA
ATOM     23  C   LIG    1       -2.125   0.535   4.044  0.00  0.00    -0.010 A 
ATOM     24  C   LIG    1       -2.699  -0.725   3.450  0.00  0.00    +0.190 C 
ATOM     25  C   LIG    1       -1.046   1.223   3.598  0.00  0.00    -0.200 A 
ENDBRANCH  18  25
ENDBRANCH  16  18
ENDBRANCH  15  16
ENDBRANCH   1  15
TORSDOF 5
