REMARK  Name = ZINCkj00000a7UEV.1
REMARK                            x       y       z     vdW  Elec       q    Type
REMARK                         _______ _______ _______ _____ _____    ______ ____
ROOT
ATOM      1  N   LIG    1        0.002  -0.004   0.002  0.00  0.00    -0.920 NA
ATOM      2  C   LIG    1        0.920  -0.627   0.853  0.00  0.00    +0.270 C 
ATOM      3  C   LIG    1        0.900  -2.002   1.042  0.00  0.00    +0.030 C 
ATOM      4  C   LIG    1        1.835  -2.569   1.889  0.00  0.00    +0.390 C 
ATOM      5  N   LIG    1        2.732  -1.826   2.508  0.00  0.00    -0.460 NA
ATOM      6  C   LIG    1        2.783  -0.514   2.357  0.00  0.00    +0.390 C 
ATOM      7  H   LIG    1        3.375  -2.256   3.092  0.00  0.00    +0.460 HD
ATOM      8  C   LIG    1        1.880   0.129   1.530  0.00  0.00    +0.030 C 
ATOM      9  N   LIG    1        1.917   1.527   1.377  0.00  0.00    -0.430 NA
ATOM     10  C   LIG    1        0.806   2.086   2.195  0.00  0.00    +0.240 C 
ATOM     11  C   LIG    1       -0.459   2.006   1.318  0.00  0.00    +0.020 C 
ATOM     12  C   LIG    1        1.543   1.852  -0.028  0.00  0.00    +0.270 C 
ATOM     13  C   LIG    1        0.033   1.475  -0.049  0.00  0.00    +0.250 C 
ENDROOT
BRANCH   1  15
ATOM     14  O   LIG    1       -1.586   0.010  -1.887  0.00  0.00    -0.900 OA
ATOM     15  S   LIG    1       -1.070  -0.880  -0.907  0.00  0.00    +2.700 S 
ATOM     16  O   LIG    1       -0.417  -2.100  -1.231  0.00  0.00    -0.910 OA
BRANCH  15  17
ATOM     17  C   LIG    1       -2.421  -1.302   0.143  0.00  0.00    -0.520 A 
ATOM     18  C   LIG    1       -3.500  -0.527   0.279  0.00  0.00    +0.050 A 
ATOM     19  S   LIG    1       -4.596  -1.315   1.411  0.00  0.00    +0.240 S 
ATOM     20  C   LIG    1       -3.493  -2.609   1.590  0.00  0.00    +0.230 A 
ATOM     21  N   LIG    1       -2.451  -2.411   0.854  0.00  0.00    -0.410 NA
ENDBRANCH  15  17
ENDBRANCH   1  15
TORSDOF 2
