REMARK  Name = ZINCrH000004muU8.0
REMARK                            x       y       z     vdW  Elec       q    Type
REMARK                         _______ _______ _______ _____ _____    ______ ____
ROOT
ATOM      1  N   LIG    1       -1.201  -0.723   0.009  0.00  0.00    -0.660 N 
ATOM      2  H   LIG    1       -2.012  -0.314  -0.329  0.00  0.00    +0.420 HD
ATOM      3  C   LIG    1       -1.232  -1.980   0.496  0.00  0.00    +0.520 C 
ATOM      4  O   LIG    1       -0.242  -2.455   1.010  0.00  0.00    -0.520 OA
ENDROOT
BRANCH   1  10
ATOM      5  C   LIG    1       -0.010   1.385  -0.004  0.00  0.00    +0.090 A 
ATOM      6  C   LIG    1        1.184   2.087  -0.022  0.00  0.00    -0.060 A 
ATOM      7  C   LIG    1        2.387   1.404  -0.043  0.00  0.00    +0.030 A 
ATOM      8  C   LIG    1        2.402   0.022  -0.048  0.00  0.00    -0.080 A 
ATOM      9  C   LIG    1        1.214  -0.685  -0.030  0.00  0.00    +0.060 A 
ATOM     10  C   LIG    1        0.004  -0.008  -0.008  0.00  0.00    +0.120 A 
BRANCH   8  11
ATOM     11  C   LIG    1        3.716  -0.715  -0.071  0.00  0.00    -0.020 C 
ATOM     12  C   LIG    1        3.828  -1.597   1.174  0.00  0.00    +0.040 C 
ATOM     13  C   LIG    1        4.867   0.293  -0.088  0.00  0.00    +0.040 C 
ATOM     14  C   LIG    1        3.787  -1.591  -1.324  0.00  0.00    +0.040 C 
ENDBRANCH   8  11
BRANCH   5  16
ATOM     15  C   LIG    1       -1.131   3.482   0.015  0.00  0.00    +0.250 C 
ATOM     16  O   LIG    1       -1.193   2.055   0.011  0.00  0.00    -0.320 OA
ENDBRANCH   5  16
ENDBRANCH   1  10
BRANCH   3  17
ATOM     17  C   LIG    1       -2.497  -2.793   0.401  0.00  0.00    +0.060 C 
BRANCH  17  18
ATOM     18  C   LIG    1       -2.264  -4.172   1.022  0.00  0.00    +0.330 C 
BRANCH  18  19
ATOM     19  N   LIG    1       -3.494  -4.963   0.930  0.00  0.00    -0.540 N 
ATOM     20  C   LIG    1       -4.403  -4.917   1.938  0.00  0.00    +0.600 A 
ATOM     21  N   LIG    1       -5.510  -5.597   1.894  0.00  0.00    -0.500 NA
ATOM     22  C   LIG    1       -5.811  -6.398   0.849  0.00  0.00    +0.070 A 
ATOM     23  C   LIG    1       -4.922  -6.497  -0.217  0.00  0.00    -0.230 A 
ATOM     24  C   LIG    1       -5.403  -7.396  -1.247  0.00  0.00    +0.080 A 
ATOM     25  C   LIG    1       -6.575  -7.950  -0.997  0.00  0.00    -0.050 A 
ATOM     26  S   LIG    1       -7.212  -7.416   0.547  0.00  0.00    +0.200 S 
ATOM     27  C   LIG    1       -3.714  -5.735  -0.152  0.00  0.00    +0.560 A 
ATOM     28  O   LIG    1       -2.899  -5.783  -1.057  0.00  0.00    -0.520 OA
ENDBRANCH  18  19
ENDBRANCH  17  18
ENDBRANCH   3  17
TORSDOF 6
