REMARK  Name = ZINCvU0000000By5.0
REMARK                            x       y       z     vdW  Elec       q    Type
REMARK                         _______ _______ _______ _____ _____    ______ ____
ROOT
ATOM      1  N   LIG    1       -0.011   0.966   0.007  0.00  0.00    -0.700 N 
ATOM      2  H   LIG    1        0.002  -0.004   0.002  0.00  0.00    +0.410 HD
ENDROOT
BRANCH   1   3
ATOM      3  C   LIG    1       -1.214   1.639   0.017  0.00  0.00    +0.480 A 
ATOM      4  N   LIG    1       -1.252   2.963   0.030  0.00  0.00    -0.590 NA
ATOM      5  C   LIG    1       -2.408   3.624   0.033  0.00  0.00    +0.420 A 
ATOM      6  N   LIG    1       -3.579   3.015   0.035  0.00  0.00    -0.550 NA
ATOM      7  C   LIG    1       -3.648   1.677   0.028  0.00  0.00    +0.190 A 
ATOM      8  C   LIG    1       -4.875   0.999   0.030  0.00  0.00    +0.030 A 
ATOM      9  C   LIG    1       -4.890  -0.365   0.022  0.00  0.00    +0.060 A 
ATOM     10  C   LIG    1       -3.705  -1.095   0.013  0.00  0.00    +0.000 A 
ATOM     11  C   LIG    1       -2.494  -0.466   0.010  0.00  0.00    +0.060 A 
ATOM     12  C   LIG    1       -2.443   0.931   0.019  0.00  0.00    -0.200 A 
BRANCH   5  13
ATOM     13  C   LIG    1       -2.378   5.107   0.040  0.00  0.00    -0.100 A 
ATOM     14  C   LIG    1       -3.567   5.841   0.050  0.00  0.00    +0.120 A 
ATOM     15  C   LIG    1       -3.485   7.223   0.057  0.00  0.00    -0.040 A 
ATOM     16  C   LIG    1       -2.241   7.827   0.054  0.00  0.00    +0.270 A 
ATOM     17  N   LIG    1       -1.135   7.107   0.046  0.00  0.00    -0.490 NA
ATOM     18  C   LIG    1       -1.163   5.790   0.044  0.00  0.00    +0.320 A 
ENDBRANCH   5  13
ENDBRANCH   1   3
BRANCH   1  19
ATOM     19  C   LIG    1        1.248   1.716  -0.001  0.00  0.00    +0.280 C 
BRANCH  19  20
ATOM     20  C   LIG    1        2.424   0.737  -0.017  0.00  0.00    +0.070 C 
BRANCH  20  24
ATOM     21  C   LIG    1        6.098   2.925  -0.047  0.00  0.00    +0.100 A 
ATOM     22  C   LIG    1        5.488   2.575  -1.240  0.00  0.00    -0.030 A 
ATOM     23  C   LIG    1        4.302   1.863  -1.227  0.00  0.00    +0.020 A 
ATOM     24  C   LIG    1        3.719   1.508  -0.025  0.00  0.00    -0.080 A 
ATOM     25  C   LIG    1        4.323   1.855   1.169  0.00  0.00    -0.040 A 
ATOM     26  C   LIG    1        5.513   2.563   1.163  0.00  0.00    +0.110 A 
BRANCH  21  27
ATOM     27  O   LIG    1        7.267   3.620  -0.058  0.00  0.00    -0.300 OA
BRANCH  27  29
ATOM     28  C   LIG    1        9.116   4.731  -1.148  0.00  0.00    +0.070 C 
ATOM     29  C   LIG    1        7.810   3.957  -1.336  0.00  0.00    +0.170 C 
ENDBRANCH  27  29
ENDBRANCH  21  27
BRANCH  26  30
ATOM     30  O   LIG    1        6.108   2.905   2.337  0.00  0.00    -0.300 OA
BRANCH  30  31
ATOM     31  C   LIG    1        5.450   2.502   3.540  0.00  0.00    +0.170 C 
ATOM     32  C   LIG    1        6.263   2.972   4.748  0.00  0.00    +0.070 C 
ENDBRANCH  30  31
ENDBRANCH  26  30
ENDBRANCH  20  24
ENDBRANCH  19  20
ENDBRANCH   1  19
TORSDOF 9
