REMARK  Name = ZINCtV000002FZLn.0
REMARK                            x       y       z     vdW  Elec       q    Type
REMARK                         _______ _______ _______ _____ _____    ______ ____
ROOT
ATOM      1  C   LIG    1        4.410   2.005   0.118  0.00  0.00    -0.070 A 
ATOM      2  C   LIG    1        4.987   1.552  -1.060  0.00  0.00    +0.020 A 
ATOM      3  C   LIG    1        5.030   0.174  -1.320  0.00  0.00    +0.190 A 
ATOM      4  N   LIG    1        4.540  -0.716  -0.482  0.00  0.00    -0.440 NA
ATOM      5  C   LIG    1        3.969  -0.370   0.672  0.00  0.00    +0.130 A 
ATOM      6  C   LIG    1        3.454  -1.343   1.548  0.00  0.00    +0.050 A 
ATOM      7  C   LIG    1        2.876  -0.959   2.719  0.00  0.00    +0.030 A 
ATOM      8  C   LIG    1        2.785   0.386   3.069  0.00  0.00    +0.020 A 
ATOM      9  C   LIG    1        3.273   1.357   2.245  0.00  0.00    +0.060 A 
ATOM     10  C   LIG    1        3.873   0.998   1.034  0.00  0.00    -0.060 A 
ENDROOT
BRANCH   3  11
ATOM     11  C   LIG    1        5.650  -0.297  -2.582  0.00  0.00    -0.040 A 
ATOM     12  C   LIG    1        6.172   0.623  -3.490  0.00  0.00    +0.050 A 
ATOM     13  C   LIG    1        6.751   0.179  -4.661  0.00  0.00    +0.050 A 
ATOM     14  C   LIG    1        6.806  -1.176  -4.939  0.00  0.00    -0.080 A 
ATOM     15  C   LIG    1        6.284  -2.093  -4.043  0.00  0.00    +0.050 A 
ATOM     16 BR   LIG    1        7.596  -1.776  -6.550  0.00  0.00    -0.040 Br
ATOM     17  C   LIG    1        5.707  -1.660  -2.867  0.00  0.00    +0.080 A 
ENDBRANCH   3  11
BRANCH   1  20
ATOM     18  N   LIG    1        4.944   4.345  -0.370  0.00  0.00    -0.670 N 
ATOM     19  H   LIG    1        5.381   4.049  -1.184  0.00  0.00    +0.410 HD
ATOM     20  C   LIG    1        4.341   3.448   0.436  0.00  0.00    +0.570 C 
ATOM     21  O   LIG    1        3.741   3.825   1.423  0.00  0.00    -0.500 OA
BRANCH  18  26
ATOM     22  C   LIG    1        4.925   9.849   1.000  0.00  0.00    +0.090 C 
ATOM     23  C   LIG    1        4.930   8.387   0.636  0.00  0.00    -0.070 A 
ATOM     24  C   LIG    1        6.123   7.688   0.605  0.00  0.00    +0.010 A 
ATOM     25  C   LIG    1        6.131   6.347   0.272  0.00  0.00    -0.080 A 
ATOM     26  C   LIG    1        4.939   5.702  -0.033  0.00  0.00    +0.120 A 
ATOM     27  C   LIG    1        3.744   6.408  -0.007  0.00  0.00    -0.060 A 
ATOM     28  C   LIG    1        2.449   5.713  -0.342  0.00  0.00    +0.100 C 
ATOM     29  C   LIG    1        7.431   5.586   0.240  0.00  0.00    +0.080 C 
ATOM     30  C   LIG    1        3.742   7.747   0.333  0.00  0.00    +0.010 A 
ENDBRANCH  18  26
ENDBRANCH   1  20
TORSDOF 3
