REMARK  Name = ZINCpe00000GA8BI.0
REMARK                            x       y       z     vdW  Elec       q    Type
REMARK                         _______ _______ _______ _____ _____    ______ ____
ROOT
ATOM      1  C   LIG    1        4.768   4.220  -0.656  0.00  0.00    +0.110 C 
ENDROOT
BRANCH   1   2
ATOM      2  C   LIG    1        3.506   3.748   0.019  0.00  0.00    +0.480 C 
ATOM      3  O   LIG    1        3.506   3.513   1.204  0.00  0.00    -0.490 OA
BRANCH   2   4
ATOM      4  O   LIG    1        2.381   3.589  -0.697  0.00  0.00    -0.330 OA
BRANCH   4   9
ATOM      5  O   LIG    1       -2.216   0.939   0.008  0.00  0.00    -0.490 OA
ATOM      6  C   LIG    1       -1.196   1.594   0.017  0.00  0.00    +0.520 C 
ATOM      7  C   LIG    1       -1.284   3.097   0.043  0.00  0.00    +0.110 C 
ATOM      8  C   LIG    1       -0.054   3.683  -0.659  0.00  0.00    +0.090 C 
ATOM      9  C   LIG    1        1.204   3.131   0.019  0.00  0.00    +0.200 C 
ATOM     10  C   LIG    1        1.157   1.626  -0.000  0.00  0.00    +0.510 C 
ATOM     11  O   LIG    1        2.194   0.999  -0.024  0.00  0.00    -0.480 OA
ATOM     12  N   LIG    1       -0.011   0.966   0.007  0.00  0.00    -0.670 N 
ATOM     13  H   LIG    1        0.002  -0.004   0.002  0.00  0.00    +0.420 HD
ENDBRANCH   4   9
ENDBRANCH   2   4
ENDBRANCH   1   2
BRANCH   1  14
ATOM     14  C   LIG    1        5.893   4.316   0.376  0.00  0.00    +0.330 C 
BRANCH  14  15
ATOM     15  N   LIG    1        7.120   4.776  -0.280  0.00  0.00    -0.550 N 
ATOM     16  C   LIG    1        7.383   6.106  -0.359  0.00  0.00    +0.590 A 
ATOM     17  N   LIG    1        8.447   6.591  -0.924  0.00  0.00    -0.520 NA
ATOM     18  C   LIG    1        9.385   5.786  -1.484  0.00  0.00    +0.170 A 
ATOM     19  C   LIG    1       10.529   6.307  -2.091  0.00  0.00    +0.050 A 
ATOM     20  C   LIG    1       11.455   5.453  -2.647  0.00  0.00    +0.100 A 
ATOM     21  C   LIG    1       11.266   4.077  -2.612  0.00  0.00    -0.110 A 
ATOM     22  C   LIG    1       10.144   3.539  -2.017  0.00  0.00    +0.140 A 
ATOM     23 BR   LIG    1       12.557   2.933  -3.385  0.00  0.00    -0.030 Br
ATOM     24  C   LIG    1        9.195   4.386  -1.449  0.00  0.00    -0.190 A 
ATOM     25  C   LIG    1        7.983   3.870  -0.797  0.00  0.00    +0.550 A 
ATOM     26  O   LIG    1        7.761   2.675  -0.729  0.00  0.00    -0.490 OA
ENDBRANCH  14  15
ENDBRANCH   1  14
TORSDOF 5
