REMARK  Name = ZINCrH000004vF9Y.0
REMARK                            x       y       z     vdW  Elec       q    Type
REMARK                         _______ _______ _______ _____ _____    ______ ____
ROOT
ATOM      1  O   LIG    1        4.334  -0.292   3.023  0.00  0.00    -0.530 OA
ATOM      2  C   LIG    1        5.099   0.027   2.132  0.00  0.00    +0.610 C 
ATOM      3  N   LIG    1        4.772   1.025   1.288  0.00  0.00    -0.610 N 
ATOM      4  C   LIG    1        5.723   1.484   0.266  0.00  0.00    +0.260 C 
ATOM      5  C   LIG    1        5.035   1.440  -1.102  0.00  0.00    +0.010 C 
ATOM      6  C   LIG    1        3.738   2.249  -1.043  0.00  0.00    +0.030 C 
ATOM      7  C   LIG    1        2.795   1.630  -0.009  0.00  0.00    +0.030 C 
ATOM      8  C   LIG    1        3.457   1.676   1.372  0.00  0.00    +0.290 C 
ENDROOT
BRANCH   2   9
ATOM      9  C   LIG    1        6.376  -0.675   1.977  0.00  0.00    -0.290 A 
ATOM     10  C   LIG    1        6.566  -2.070   1.926  0.00  0.00    +0.310 A 
ATOM     11  N   LIG    1        5.718  -3.097   1.998  0.00  0.00    -0.460 NA
ATOM     12  C   LIG    1        6.153  -4.336   1.923  0.00  0.00    +0.380 A 
ATOM     13  C   LIG    1        7.520  -4.593   1.768  0.00  0.00    -0.050 A 
ATOM     14  C   LIG    1        8.388  -3.552   1.694  0.00  0.00    +0.360 A 
ATOM     15  N   LIG    1        7.907  -2.279   1.774  0.00  0.00    -0.310 N 
ATOM     16  N   LIG    1        8.539  -1.031   1.731  0.00  0.00    -0.310 NA
ATOM     17  C   LIG    1        7.646  -0.084   1.843  0.00  0.00    +0.340 A 
ENDBRANCH   2   9
BRANCH   7  18
ATOM     18  C   LIG    1        1.505   2.408   0.025  0.00  0.00    -0.080 A 
ATOM     19  C   LIG    1        1.518   3.753   0.344  0.00  0.00    +0.050 A 
ATOM     20  C   LIG    1        0.334   4.467   0.375  0.00  0.00    +0.020 A 
ATOM     21  C   LIG    1       -0.862   3.836   0.087  0.00  0.00    +0.070 A 
ATOM     22  C   LIG    1       -0.874   2.492  -0.237  0.00  0.00    -0.180 A 
ATOM     23  C   LIG    1        0.309   1.777  -0.263  0.00  0.00    +0.080 A 
BRANCH  22  24
ATOM     24  C   LIG    1       -2.176   1.805  -0.556  0.00  0.00    +0.510 C 
ATOM     25  F   LIG    1       -1.944   0.761  -1.458  0.00  0.00    -0.180 F 
ATOM     26  F   LIG    1       -3.061   2.726  -1.128  0.00  0.00    -0.180 F 
ATOM     27  F   LIG    1       -2.734   1.292   0.619  0.00  0.00    -0.180 F 
ENDBRANCH  22  24
ENDBRANCH   7  18
TORSDOF 3
