REMARK  Name = ZINCrD00000F5LHz.0
REMARK                            x       y       z     vdW  Elec       q    Type
REMARK                         _______ _______ _______ _____ _____    ______ ____
ROOT
ATOM      1  N   LIG    1        2.226   1.298  -1.023  0.00  0.00    -0.670 N 
ATOM      2  H   LIG    1        1.739   1.179  -1.854  0.00  0.00    +0.410 HD
ATOM      3  C   LIG    1        1.676   0.903   0.142  0.00  0.00    +0.510 C 
ATOM      4  O   LIG    1        2.320   0.962   1.168  0.00  0.00    -0.490 OA
ENDROOT
BRANCH   3   5
ATOM      5  C   LIG    1        0.260   0.386   0.171  0.00  0.00    +0.070 C 
ATOM      6  C   LIG    1       -0.689   1.473  -0.336  0.00  0.00    +0.100 C 
ATOM      7  C   LIG    1       -0.799   2.574   0.684  0.00  0.00    +0.520 C 
ATOM      8  N   LIG    1       -0.765   2.298   2.001  0.00  0.00    -0.660 N 
ATOM      9  H   LIG    1       -0.850   3.017   2.646  0.00  0.00    +0.410 HD
ATOM     10  C   LIG    1       -0.608   0.982   2.445  0.00  0.00    +0.170 A 
ATOM     11  C   LIG    1       -0.950   0.639   3.746  0.00  0.00    -0.020 A 
ATOM     12  C   LIG    1       -0.791  -0.664   4.179  0.00  0.00    +0.050 A 
ATOM     13  C   LIG    1       -0.294  -1.625   3.318  0.00  0.00    -0.010 A 
ATOM     14  C   LIG    1        0.046  -1.286   2.021  0.00  0.00    +0.060 A 
ATOM     15  O   LIG    1       -0.919   3.723   0.315  0.00  0.00    -0.520 OA
ATOM     16  C   LIG    1       -0.110   0.014   1.583  0.00  0.00    -0.110 A 
ENDBRANCH   3   5
BRANCH   1  20
ATOM     17  C   LIG    1        6.015   3.031  -1.057  0.00  0.00    -0.100 A 
ATOM     18  C   LIG    1        5.597   2.236  -2.131  0.00  0.00    +0.080 A 
ATOM     19  C   LIG    1        4.345   1.665  -2.115  0.00  0.00    -0.020 A 
ATOM     20  C   LIG    1        3.494   1.878  -1.034  0.00  0.00    +0.170 A 
ATOM     21  C   LIG    1        3.903   2.673   0.032  0.00  0.00    +0.020 A 
ATOM     22  C   LIG    1        5.156   3.242   0.028  0.00  0.00    +0.060 A 
BRANCH  17  24
ATOM     23  C   LIG    1        7.752   4.410  -0.032  0.00  0.00    -0.080 C 
ATOM     24  C   LIG    1        7.351   3.643  -1.069  0.00  0.00    +0.160 C 
BRANCH  23  25
ATOM     25  C   LIG    1        9.041   5.001  -0.044  0.00  0.00    +0.500 C 
ATOM     26  O   LIG    1        9.786   4.816  -0.988  0.00  0.00    -0.520 OA
BRANCH  25  27
ATOM     27  O   LIG    1        9.442   5.767   0.992  0.00  0.00    -0.350 OA
BRANCH  27  29
ATOM     28  C   LIG    1       11.027   7.161   2.168  0.00  0.00    +0.070 C 
ATOM     29  C   LIG    1       10.753   6.330   0.913  0.00  0.00    +0.200 C 
ENDBRANCH  27  29
ENDBRANCH  25  27
ENDBRANCH  23  25
ENDBRANCH  17  24
ENDBRANCH   1  20
TORSDOF 6
