REMARK  Name = ZINCnE00000hdb00.0
REMARK                            x       y       z     vdW  Elec       q    Type
REMARK                         _______ _______ _______ _____ _____    ______ ____
ROOT
ATOM      1  N   LIG    1       -0.076   1.482  -0.202  0.00  0.00    -0.480 N 
ATOM      2  C   LIG    1        1.046   2.267  -0.194  0.00  0.00    +0.380 A 
ATOM      3  N   LIG    1        0.719   3.505   0.087  0.00  0.00    -0.500 NA
ATOM      4  C   LIG    1       -0.621   3.591   0.275  0.00  0.00    +0.070 A 
ATOM      5  C   LIG    1       -1.480   4.649   0.589  0.00  0.00    +0.070 A 
ATOM      6  C   LIG    1       -2.831   4.418   0.716  0.00  0.00    +0.020 A 
ATOM      7  C   LIG    1       -3.349   3.144   0.535  0.00  0.00    +0.040 A 
ATOM      8  C   LIG    1       -2.515   2.088   0.226  0.00  0.00    -0.020 A 
ATOM      9 CL   LIG    1       -3.173   0.497   0.002  0.00  0.00    -0.080 Cl
ATOM     10  C   LIG    1       -1.151   2.302   0.087  0.00  0.00    +0.050 A 
ENDROOT
BRANCH   2  11
ATOM     11  C   LIG    1        2.418   1.790  -0.462  0.00  0.00    -0.130 A 
ATOM     12  C   LIG    1        2.733   0.439  -0.302  0.00  0.00    +0.060 A 
ATOM     13  C   LIG    1        4.013   0.004  -0.561  0.00  0.00    -0.010 A 
ATOM     14  C   LIG    1        4.999   0.903  -0.968  0.00  0.00    +0.190 A 
ATOM     15  N   LIG    1        6.347   0.632  -1.265  0.00  0.00    -0.990 NA
ATOM     16  S   LIG    1        6.973   2.118  -1.682  0.00  0.00    +2.640 S 
ATOM     17  O   LIG    1        5.751   3.022  -1.527  0.00  0.00    -0.670 OA
ATOM     18  O   LIG    1        7.290   2.068  -3.066  0.00  0.00    -1.010 OA
ATOM     19  O   LIG    1        7.899   2.485  -0.669  0.00  0.00    -1.010 OA
ATOM     20  C   LIG    1        4.700   2.250  -1.125  0.00  0.00    -0.060 A 
ATOM     21  C   LIG    1        3.401   2.688  -0.869  0.00  0.00    +0.140 A 
ENDBRANCH   2  11
BRANCH   1  23
ATOM     22  C   LIG    1       -0.099  -0.727   0.848  0.00  0.00    +0.030 C 
ATOM     23  C   LIG    1       -0.129   0.043  -0.473  0.00  0.00    +0.290 C 
ENDBRANCH   1  23
TORSDOF 2
