REMARK  Name = ZINCrg000000qRZv.0
REMARK                            x       y       z     vdW  Elec       q    Type
REMARK                         _______ _______ _______ _____ _____    ______ ____
ROOT
ATOM      1  C   LIG    1       -0.067   5.619   0.037  0.00  0.00    +0.220 C 
ENDROOT
BRANCH   1   5
ATOM      2  C   LIG    1        0.282   1.363   0.205  0.00  0.00    +0.140 A 
ATOM      3  C   LIG    1       -0.945   1.949  -0.067  0.00  0.00    -0.080 A 
ATOM      4  C   LIG    1       -1.057   3.325  -0.115  0.00  0.00    +0.050 A 
ATOM      5  C   LIG    1        0.056   4.118   0.096  0.00  0.00    -0.150 A 
ATOM      6  C   LIG    1        1.282   3.536   0.362  0.00  0.00    +0.070 A 
ATOM      7  C   LIG    1        1.398   2.160   0.416  0.00  0.00    -0.020 A 
BRANCH   2   9
ATOM      8  C   LIG    1       -0.796  -0.749   0.030  0.00  0.00    +0.250 C 
ATOM      9  O   LIG    1        0.394   0.009   0.258  0.00  0.00    -0.320 OA
ENDBRANCH   2   9
ENDBRANCH   1   5
BRANCH   1  10
ATOM     10  N   LIG    1       -1.197   6.050   0.871  0.00  0.00    -0.520 NA
ATOM     11  C   LIG    1       -1.349   5.178   2.045  0.00  0.00    +0.160 C 
ATOM     12  C   LIG    1       -2.496   5.697   2.915  0.00  0.00    +0.220 C 
ATOM     13  O   LIG    1       -3.690   5.763   2.131  0.00  0.00    -0.380 OA
ATOM     14  C   LIG    1       -3.578   6.604   0.980  0.00  0.00    +0.220 C 
ATOM     15  C   LIG    1       -2.442   6.094   0.090  0.00  0.00    +0.140 C 
ENDBRANCH   1  10
BRANCH   1  16
ATOM     16  C   LIG    1       -0.306   6.054  -1.410  0.00  0.00    +0.270 C 
BRANCH  16  17
ATOM     17  N   LIG    1       -0.410   7.515  -1.469  0.00  0.00    -0.720 N 
ATOM     18  H   LIG    1       -0.402   8.035  -0.650  0.00  0.00    +0.410 HD
ATOM     19  C   LIG    1       -0.516   8.135  -2.661  0.00  0.00    +0.500 C 
ATOM     20  O   LIG    1       -0.525   7.484  -3.684  0.00  0.00    -0.520 OA
BRANCH  19  21
ATOM     21  C   LIG    1       -0.623   9.637  -2.722  0.00  0.00    +0.320 C 
BRANCH  21  22
ATOM     22  N   LIG    1       -0.726  10.062  -4.120  0.00  0.00    -0.480 N 
ATOM     23  C   LIG    1       -1.949  10.176  -4.698  0.00  0.00    +0.300 A 
ATOM     24  C   LIG    1       -2.071  10.568  -5.988  0.00  0.00    -0.080 A 
ATOM     25  C   LIG    1       -0.925  10.861  -6.741  0.00  0.00    +0.120 A 
ATOM     26  C   LIG    1        0.303  10.746  -6.158  0.00  0.00    -0.090 A 
ATOM     27  C   LIG    1        0.393  10.342  -4.815  0.00  0.00    +0.520 A 
ATOM     28  O   LIG    1        1.485  10.240  -4.280  0.00  0.00    -0.550 OA
ENDBRANCH  21  22
ENDBRANCH  19  21
ENDBRANCH  16  17
ENDBRANCH   1  16
TORSDOF 7
