REMARK  Name = ZINCqH0000051a44.0
REMARK                            x       y       z     vdW  Elec       q    Type
REMARK                         _______ _______ _______ _____ _____    ______ ____
ROOT
ATOM      1  C   LIG    1       -0.722  -0.290   1.292  0.00  0.00    +0.470 C 
ATOM      2  O   LIG    1       -1.794  -0.848   1.273  0.00  0.00    -0.490 OA
ENDROOT
BRANCH   1   3
ATOM      3  O   LIG    1       -0.177   0.076   2.463  0.00  0.00    -0.320 OA
BRANCH   3   4
ATOM      4  C   LIG    1       -0.931  -0.231   3.666  0.00  0.00    +0.250 C 
BRANCH   4   6
ATOM      5  O   LIG    1        0.905   0.798   4.734  0.00  0.00    -0.510 OA
ATOM      6  C   LIG    1       -0.168   0.250   4.873  0.00  0.00    +0.520 C 
ATOM      7  N   LIG    1       -0.679   0.072   6.108  0.00  0.00    -0.720 N 
ATOM      8  H   LIG    1       -1.537  -0.366   6.219  0.00  0.00    +0.410 HD
BRANCH   7   9
ATOM      9  C   LIG    1        0.063   0.540   7.281  0.00  0.00    +0.370 C 
BRANCH   9  10
ATOM     10  C   LIG    1       -0.720   0.221   8.529  0.00  0.00    -0.210 A 
ATOM     11  C   LIG    1       -0.617  -0.906   9.234  0.00  0.00    +0.030 A 
ATOM     12  C   LIG    1       -1.438  -0.975  10.347  0.00  0.00    +0.000 A 
ATOM     13  C   LIG    1       -2.206   0.097  10.546  0.00  0.00    -0.030 A 
ATOM     14  S   LIG    1       -1.902   1.283   9.284  0.00  0.00    +0.120 S 
ENDBRANCH   9  10
ENDBRANCH   7   9
ENDBRANCH   4   6
ENDBRANCH   3   4
ENDBRANCH   1   3
BRANCH   1  15
ATOM     15  C   LIG    1        0.002  -0.004   0.002  0.00  0.00    +0.140 C 
BRANCH  15  16
ATOM     16  C   LIG    1       -0.817  -0.511  -1.157  0.00  0.00    -0.080 A 
ATOM     17  C   LIG    1       -2.134  -0.116  -1.298  0.00  0.00    +0.040 A 
ATOM     18  C   LIG    1       -2.884  -0.577  -2.364  0.00  0.00    +0.000 A 
ATOM     19  C   LIG    1       -2.320  -1.442  -3.282  0.00  0.00    +0.010 A 
ATOM     20  C   LIG    1       -1.005  -1.842  -3.138  0.00  0.00    +0.010 A 
ATOM     21  C   LIG    1       -0.253  -1.376  -2.076  0.00  0.00    +0.020 A 
ENDBRANCH  15  16
BRANCH  15  22
ATOM     22  C   LIG    1        0.208   1.482  -0.140  0.00  0.00    -0.080 A 
ATOM     23  C   LIG    1       -0.864   2.344  -0.003  0.00  0.00    +0.010 A 
ATOM     24  C   LIG    1       -0.674   3.708  -0.129  0.00  0.00    +0.010 A 
ATOM     25  C   LIG    1        0.585   4.208  -0.403  0.00  0.00    +0.010 A 
ATOM     26  C   LIG    1        1.655   3.346  -0.545  0.00  0.00    +0.020 A 
ATOM     27  C   LIG    1        1.467   1.982  -0.414  0.00  0.00    +0.030 A 
ENDBRANCH  15  22
ENDBRANCH   1  15
TORSDOF 8
