REMARK  Name = ZINCrD00000hQ4Pf.0
REMARK                            x       y       z     vdW  Elec       q    Type
REMARK                         _______ _______ _______ _____ _____    ______ ____
ROOT
ATOM      1  C   LIG    1       -0.024   1.510  -0.012  0.00  0.00    +0.230 C 
ATOM      2  C   LIG    1        1.331   2.223  -0.065  0.00  0.00    +0.180 C 
ATOM      3  N   LIG    1        2.206   1.682   0.984  0.00  0.00    -0.500 N 
ATOM      4  C   LIG    1        2.486   0.257   0.763  0.00  0.00    +0.180 C 
ATOM      5  C   LIG    1        1.177  -0.536   0.849  0.00  0.00    +0.310 C 
ATOM      6  N   LIG    1        0.207   0.059  -0.082  0.00  0.00    -0.590 N 
ATOM      7  C   LIG    1       -0.451  -0.704  -0.977  0.00  0.00    +0.590 C 
ATOM      8  O   LIG    1       -1.161  -0.182  -1.815  0.00  0.00    -0.520 OA
ENDROOT
BRANCH   3   9
ATOM      9  C   LIG    1        3.391   2.416   1.075  0.00  0.00    +0.090 A 
ATOM     10  C   LIG    1        3.640   3.199   2.195  0.00  0.00    +0.040 A 
ATOM     11  C   LIG    1        4.815   3.920   2.284  0.00  0.00    +0.020 A 
ATOM     12  C   LIG    1        5.737   3.872   1.255  0.00  0.00    +0.000 A 
ATOM     13  C   LIG    1        5.490   3.097   0.137  0.00  0.00    +0.010 A 
ATOM     14  C   LIG    1        4.320   2.370   0.043  0.00  0.00    -0.030 A 
ENDBRANCH   3   9
BRANCH   7  15
ATOM     15  C   LIG    1       -0.311  -2.170  -0.938  0.00  0.00    +0.010 A 
ATOM     16  C   LIG    1       -0.829  -2.982  -1.903  0.00  0.00    +0.000 A 
ATOM     17  S   LIG    1       -0.467  -4.608  -1.516  0.00  0.00    +0.230 S 
ATOM     18  C   LIG    1        0.373  -4.093  -0.057  0.00  0.00    +0.070 A 
ATOM     19  N   LIG    1        0.332  -2.800   0.034  0.00  0.00    -0.390 NA
BRANCH  18  20
ATOM     20  C   LIG    1        1.030  -4.997   0.912  0.00  0.00    +0.140 A 
ATOM     21  C   LIG    1        1.010  -6.378   0.708  0.00  0.00    +0.240 A 
ATOM     22  N   LIG    1        1.603  -7.178   1.573  0.00  0.00    -0.430 NA
ATOM     23  C   LIG    1        2.205  -6.675   2.637  0.00  0.00    +0.240 A 
ATOM     24  C   LIG    1        2.223  -5.306   2.847  0.00  0.00    +0.240 A 
ATOM     25  N   LIG    1        1.638  -4.496   1.985  0.00  0.00    -0.400 NA
ENDBRANCH  18  20
ENDBRANCH   7  15
BRANCH   1  27
ATOM     26  C   LIG    1       -1.171   3.450  -1.091  0.00  0.00    +0.000 C 
ATOM     27  C   LIG    1       -0.883   1.951  -1.199  0.00  0.00    +0.050 C 
ENDBRANCH   1  27
TORSDOF 4
