REMARK  Name = ZINCqH0000038Al0.0
REMARK                            x       y       z     vdW  Elec       q    Type
REMARK                         _______ _______ _______ _____ _____    ______ ____
ROOT
ATOM      1  C   LIG    1       -0.213   6.263  -1.395  0.00  0.00    +0.510 C 
ATOM      2  N   LIG    1       -0.082   7.585  -1.626  0.00  0.00    -0.680 N 
ATOM      3  H   LIG    1       -0.042   8.206  -0.882  0.00  0.00    +0.410 HD
ATOM      4  O   LIG    1       -0.356   5.497  -2.324  0.00  0.00    -0.500 OA
ENDROOT
BRANCH   2   5
ATOM      5  C   LIG    1       -0.003   8.061  -2.941  0.00  0.00    +0.130 A 
ATOM      6  C   LIG    1        0.619   7.298  -3.921  0.00  0.00    +0.040 A 
ATOM      7  C   LIG    1        0.692   7.765  -5.218  0.00  0.00    +0.040 A 
ATOM      8  C   LIG    1        0.153   9.003  -5.541  0.00  0.00    +0.150 A 
ATOM      9  C   LIG    1       -0.464   9.769  -4.561  0.00  0.00    +0.000 A 
ATOM     10  C   LIG    1       -0.542   9.300  -3.265  0.00  0.00    +0.000 A 
BRANCH   8  11
ATOM     11  N   LIG    1        0.232   9.480  -6.856  0.00  0.00    -0.690 N 
ATOM     12  H   LIG    1        0.357  10.428  -7.021  0.00  0.00    +0.410 HD
ATOM     13  C   LIG    1        0.134   8.622  -7.891  0.00  0.00    +0.700 C 
ATOM     14  O   LIG    1        0.060   7.426  -7.684  0.00  0.00    -0.570 OA
ATOM     15  N   LIG    1        0.117   9.090  -9.155  0.00  0.00    -0.860 N 
ATOM     16  H   LIG    1        0.046   8.473  -9.899  0.00  0.00    +0.420 HD
ATOM     17  H   LIG    1        0.175  10.044  -9.319  0.00  0.00    +0.400 HD
ENDBRANCH   8  11
ENDBRANCH   2   5
BRANCH   1  18
ATOM     18  C   LIG    1       -0.182   5.739   0.017  0.00  0.00    +0.120 C 
BRANCH  18  22
ATOM     19  C   LIG    1       -0.654   1.490  -0.030  0.00  0.00    -0.020 A 
ATOM     20  C   LIG    1       -1.773   2.317   0.048  0.00  0.00    +0.020 A 
ATOM     21  C   LIG    1       -1.615   3.688   0.068  0.00  0.00    +0.020 A 
ATOM     22  C   LIG    1       -0.349   4.241   0.001  0.00  0.00    -0.060 A 
ATOM     23  C   LIG    1        0.765   3.425  -0.081  0.00  0.00    +0.010 A 
ATOM     24  C   LIG    1        0.619   2.053  -0.097  0.00  0.00    +0.050 A 
BRANCH  19  28
ATOM     25  C   LIG    1        0.962  -3.181  -0.215  0.00  0.00    +0.180 C 
ATOM     26  C   LIG    1       -0.065  -2.082  -0.132  0.00  0.00    +0.050 A 
ATOM     27  N   LIG    1        0.206  -0.823  -0.131  0.00  0.00    -0.470 NA
ATOM     28  C   LIG    1       -0.818   0.016  -0.047  0.00  0.00    +0.110 A 
ATOM     29  C   LIG    1       -2.021  -0.590   0.015  0.00  0.00    -0.080 A 
ATOM     30  S   LIG    1       -1.754  -2.330  -0.034  0.00  0.00    +0.130 S 
ENDBRANCH  19  28
ENDBRANCH  18  22
ENDBRANCH   1  18
TORSDOF 5
