REMARK  Name = ZINCuL0000000wXU.1
REMARK                            x       y       z     vdW  Elec       q    Type
REMARK                         _______ _______ _______ _____ _____    ______ ____
ROOT
ATOM      1  C   LIG    1        3.577   2.400  -0.020  0.00  0.00    -0.560 A 
ATOM      2  C   LIG    1        3.557   3.783  -0.012  0.00  0.00    +0.000 A 
ATOM      3  C   LIG    1        2.351   4.459   0.003  0.00  0.00    +0.000 A 
ATOM      4  C   LIG    1        1.163   3.756   0.005  0.00  0.00    -0.120 A 
ATOM      5  C   LIG    1        1.180   2.366   0.004  0.00  0.00    +0.260 A 
ATOM      6  C   LIG    1       -0.151   4.494   0.016  0.00  0.00    +0.080 C 
ATOM      7  C   LIG    1        2.393   1.690  -0.012  0.00  0.00    -0.050 A 
ENDROOT
BRANCH   1   8
ATOM      8  S   LIG    1        5.117   1.543  -0.039  0.00  0.00    +2.610 S 
ATOM      9  O   LIG    1        4.865   0.253   0.501  0.00  0.00    -1.030 OA
ATOM     10  O   LIG    1        6.080   2.437   0.501  0.00  0.00    -1.040 OA
BRANCH   8  11
ATOM     11  N   LIG    1        5.530   1.312  -1.626  0.00  0.00    -1.090 NA
BRANCH  11  17
ATOM     12  C   LIG    1        8.617  -0.408  -5.041  0.00  0.00    +0.070 C 
ATOM     13  C   LIG    1        8.239  -0.197  -3.597  0.00  0.00    -0.060 A 
ATOM     14  C   LIG    1        9.069  -0.657  -2.592  0.00  0.00    -0.150 A 
ATOM     15  C   LIG    1        8.726  -0.465  -1.266  0.00  0.00    +0.030 A 
ATOM     16  C   LIG    1        7.555   0.192  -0.942  0.00  0.00    -0.180 A 
ATOM     17  C   LIG    1        6.717   0.651  -1.950  0.00  0.00    +0.290 A 
ATOM     18  C   LIG    1        7.064   0.457  -3.280  0.00  0.00    -0.080 A 
ENDBRANCH  11  17
ENDBRANCH   8  11
ENDBRANCH   1   8
BRANCH   5  19
ATOM     19  N   LIG    1       -0.020   1.652   0.011  0.00  0.00    -1.080 NA
BRANCH  19  20
ATOM     20  S   LIG    1        0.002  -0.004   0.002  0.00  0.00    +2.590 S 
ATOM     21  O   LIG    1        0.564  -0.405   1.244  0.00  0.00    -1.010 OA
ATOM     22  O   LIG    1        0.540  -0.391  -1.255  0.00  0.00    -1.010 OA
BRANCH  20  23
ATOM     23  C   LIG    1       -1.674  -0.548   0.015  0.00  0.00    -0.630 A 
ATOM     24  C   LIG    1       -2.186  -1.232  -1.071  0.00  0.00    +0.130 A 
ATOM     25  C   LIG    1       -3.502  -1.665  -1.058  0.00  0.00    +0.060 A 
ATOM     26  C   LIG    1       -4.306  -1.402   0.038  0.00  0.00    +0.050 A 
ATOM     27  C   LIG    1       -3.795  -0.714   1.121  0.00  0.00    -0.010 A 
ATOM     28  F   LIG    1       -4.001  -2.339  -2.117  0.00  0.00    -0.140 F 
ATOM     29  C   LIG    1       -2.478  -0.286   1.111  0.00  0.00    +0.190 A 
ATOM     30  F   LIG    1       -1.978   0.387   2.170  0.00  0.00    -0.110 F 
ENDBRANCH  20  23
ENDBRANCH  19  20
ENDBRANCH   5  19
TORSDOF 6
