REMARK  Name = ZINCqH0000005QPE.0
REMARK                            x       y       z     vdW  Elec       q    Type
REMARK                         _______ _______ _______ _____ _____    ______ ____
ROOT
ATOM      1  C   LIG    1        0.002  -0.004   0.002  0.00  0.00    +0.560 C 
ATOM      2  O   LIG    1        1.063  -0.598  -0.011  0.00  0.00    -0.470 OA
ENDROOT
BRANCH   1   3
ATOM      3  C   LIG    1       -1.259  -0.755   0.010  0.00  0.00    -0.020 A 
ATOM      4  C   LIG    1       -1.363  -2.110  -0.002  0.00  0.00    -0.060 A 
ATOM      5  C   LIG    1       -2.794  -2.408   0.015  0.00  0.00    -0.110 A 
ATOM      6  C   LIG    1       -3.542  -3.587   0.016  0.00  0.00    +0.050 A 
ATOM      7  C   LIG    1       -4.921  -3.519   0.030  0.00  0.00    +0.110 A 
ATOM      8  C   LIG    1       -5.561  -2.283   0.042  0.00  0.00    -0.010 A 
ATOM      9  C   LIG    1       -4.832  -1.114   0.041  0.00  0.00    +0.070 A 
ATOM     10  C   LIG    1       -3.443  -1.159   0.028  0.00  0.00    +0.050 A 
ATOM     11  C   LIG    1       -0.231  -3.105  -0.025  0.00  0.00    +0.150 C 
ATOM     12  O   LIG    1       -2.491  -0.205   0.024  0.00  0.00    -0.170 OA
BRANCH   7  13
ATOM     13  O   LIG    1       -5.656  -4.663   0.031  0.00  0.00    -0.310 OA
ATOM     14  C   LIG    1       -7.078  -4.521   0.045  0.00  0.00    +0.240 C 
ENDBRANCH   7  13
ENDBRANCH   1   3
BRANCH   1  15
ATOM     15  O   LIG    1       -0.016   1.344   0.009  0.00  0.00    -0.340 OA
BRANCH  15  16
ATOM     16  C   LIG    1        1.268   2.021   0.001  0.00  0.00    +0.360 C 
BRANCH  16  20
ATOM     17  C   LIG    1        0.744   5.651   0.628  0.00  0.00    -0.240 A 
ATOM     18  C   LIG    1        0.745   5.566  -0.734  0.00  0.00    +0.120 A 
ATOM     19  O   LIG    1        0.934   4.289  -1.078  0.00  0.00    -0.160 OA
ATOM     20  C   LIG    1        1.051   3.512   0.011  0.00  0.00    -0.030 A 
ATOM     21  C   LIG    1        0.570   6.719  -1.689  0.00  0.00    +0.210 C 
ATOM     22  C   LIG    1        0.949   4.276   1.109  0.00  0.00    +0.050 A 
BRANCH  17  23
ATOM     23  C   LIG    1        0.575   6.864   1.445  0.00  0.00    +0.540 C 
ATOM     24  O   LIG    1        0.413   7.941   0.907  0.00  0.00    -0.510 OA
BRANCH  23  26
ATOM     25  C   LIG    1        0.424   8.015   3.531  0.00  0.00    +0.280 C 
ATOM     26  O   LIG    1        0.598   6.779   2.790  0.00  0.00    -0.350 OA
ENDBRANCH  23  26
ENDBRANCH  17  23
ENDBRANCH  16  20
ENDBRANCH  15  16
ENDBRANCH   1  15
TORSDOF 7
