REMARK  Name = ZINCvU0000000IsN.0
REMARK                            x       y       z     vdW  Elec       q    Type
REMARK                         _______ _______ _______ _____ _____    ______ ____
ROOT
ATOM      1  S   LIG    1        0.896   8.051  -0.158  0.00  0.00    +0.050 S 
ENDROOT
BRANCH   1   2
ATOM      2  C   LIG    1        1.044   6.298  -0.058  0.00  0.00    +0.070 A 
ATOM      3  C   LIG    1        2.041   5.707   0.754  0.00  0.00    -0.060 A 
ATOM      4  C   LIG    1        2.946   6.460   1.508  0.00  0.00    +0.050 A 
ATOM      5  C   LIG    1        3.881   5.819   2.268  0.00  0.00    +0.050 A 
ATOM      6  C   LIG    1        3.946   4.429   2.303  0.00  0.00    +0.050 A 
ATOM      7  C   LIG    1        3.077   3.666   1.579  0.00  0.00    +0.050 A 
ATOM      8  C   LIG    1        2.107   4.291   0.790  0.00  0.00    -0.050 A 
ATOM      9  C   LIG    1        1.171   3.567   0.011  0.00  0.00    +0.150 A 
ATOM     10  N   LIG    1        0.289   4.235  -0.713  0.00  0.00    -0.240 NA
ATOM     11  N   LIG    1        0.226   5.514  -0.741  0.00  0.00    -0.270 NA
BRANCH   9  12
ATOM     12  C   LIG    1        1.184   2.087   0.002  0.00  0.00    -0.050 A 
ATOM     13  C   LIG    1        1.322   1.380   1.197  0.00  0.00    +0.030 A 
ATOM     14  C   LIG    1        1.334   0.001   1.182  0.00  0.00    +0.010 A 
ATOM     15  C   LIG    1        1.209  -0.682  -0.014  0.00  0.00    +0.030 A 
ATOM     16  C   LIG    1        1.071   0.012  -1.203  0.00  0.00    +0.010 A 
ATOM     17  C   LIG    1        1.058   1.392  -1.201  0.00  0.00    +0.050 A 
ENDBRANCH   9  12
ENDBRANCH   1   2
BRANCH   1  18
ATOM     18  C   LIG    1       -0.499   8.183  -1.304  0.00  0.00    +0.010 C 
ATOM     19  C   LIG    1       -0.093   7.625  -2.669  0.00  0.00    +0.090 C 
BRANCH  18  22
ATOM     20  N   LIG    1       -2.151   9.953  -1.812  0.00  0.00    -0.720 N 
ATOM     21  H   LIG    1       -2.803   9.253  -1.978  0.00  0.00    +0.400 HD
ATOM     22  C   LIG    1       -0.894   9.630  -1.450  0.00  0.00    +0.540 C 
ATOM     23  O   LIG    1       -0.080  10.505  -1.241  0.00  0.00    -0.520 OA
BRANCH  20  25
ATOM     24  C   LIG    1       -2.942  11.917  -0.588  0.00  0.00    +0.040 C 
ATOM     25  C   LIG    1       -2.535  11.359  -1.953  0.00  0.00    +0.290 C 
BRANCH  25  26
ATOM     26  C   LIG    1       -3.697  11.470  -2.907  0.00  0.00    -0.110 A 
ATOM     27  C   LIG    1       -4.712  10.532  -2.871  0.00  0.00    +0.040 A 
ATOM     28  C   LIG    1       -5.780  10.635  -3.742  0.00  0.00    -0.010 A 
ATOM     29  C   LIG    1       -5.828  11.671  -4.658  0.00  0.00    +0.100 A 
ATOM     30  C   LIG    1       -4.808  12.607  -4.697  0.00  0.00    -0.010 A 
ATOM     31  F   LIG    1       -6.869  11.770  -5.513  0.00  0.00    -0.140 F 
ATOM     32  C   LIG    1       -3.743  12.505  -3.822  0.00  0.00    +0.060 A 
ENDBRANCH  25  26
ENDBRANCH  20  25
ENDBRANCH  18  22
ENDBRANCH   1  18
TORSDOF 6
