REMARK  Name = ZINCah0000002jKU.0
REMARK                            x       y       z     vdW  Elec       q    Type
REMARK                         _______ _______ _______ _____ _____    ______ ____
ROOT
ATOM      1  C   LIG    1       -0.018   1.503   0.010  0.00  0.00    +0.150 C 
ATOM      2  C   LIG    1        0.002  -0.004   0.002  0.00  0.00    +0.010 A 
ATOM      3  C   LIG    1        0.023  -0.812   1.092  0.00  0.00    +0.070 A 
ATOM      4  C   LIG    1        0.037  -2.140   0.643  0.00  0.00    +0.230 A 
ATOM      5  N   LIG    1        0.025  -2.133  -0.665  0.00  0.00    -0.260 NA
ATOM      6  N   LIG    1       -0.003  -0.802  -1.099  0.00  0.00    -0.430 N 
ENDROOT
BRANCH   3   7
ATOM      7  N   LIG    1        0.029  -0.391   2.436  0.00  0.00    -0.870 N 
ATOM      8  H   LIG    1        0.045  -1.047   3.150  0.00  0.00    +0.400 HD
ATOM      9  H   LIG    1        0.018   0.556   2.647  0.00  0.00    +0.400 HD
ENDBRANCH   3   7
BRANCH   6  10
ATOM     10  C   LIG    1       -0.030  -0.349  -2.492  0.00  0.00    +0.670 C 
ATOM     11  F   LIG    1        1.098   0.439  -2.748  0.00  0.00    -0.180 F 
ATOM     12  F   LIG    1       -1.187   0.406  -2.715  0.00  0.00    -0.180 F 
ENDBRANCH   6  10
TORSDOF 2
