REMARK  Name = ZINCrD000000Dfr8.0
REMARK                            x       y       z     vdW  Elec       q    Type
REMARK                         _______ _______ _______ _____ _____    ______ ____
ROOT
ATOM      1  C   LIG    1        1.241   6.850   1.440  0.00  0.00    +0.380 C 
ENDROOT
BRANCH   1   2
ATOM      2  C   LIG    1        2.421   7.737   1.135  0.00  0.00    -0.160 A 
ATOM      3  C   LIG    1        3.588   7.609   1.865  0.00  0.00    +0.080 A 
ATOM      4  C   LIG    1        4.672   8.417   1.583  0.00  0.00    -0.080 A 
ATOM      5  C   LIG    1        4.585   9.366   0.575  0.00  0.00    +0.150 A 
ATOM      6  C   LIG    1        3.411   9.497  -0.152  0.00  0.00    -0.010 A 
ATOM      7  C   LIG    1        2.332   8.682   0.130  0.00  0.00    +0.100 A 
BRANCH   5   8
ATOM      8  O   LIG    1        5.649  10.166   0.299  0.00  0.00    -0.310 OA
BRANCH   8   9
ATOM      9  C   LIG    1        6.825   9.976   1.088  0.00  0.00    +0.260 C 
BRANCH   9  10
ATOM     10  C   LIG    1        7.891  10.944   0.643  0.00  0.00    -0.050 A 
ATOM     11  C   LIG    1        8.795  10.597  -0.350  0.00  0.00    -0.010 A 
ATOM     12  C   LIG    1        9.755  11.512  -0.736  0.00  0.00    +0.260 A 
ATOM     13  N   LIG    1        9.825  12.699  -0.165  0.00  0.00    -0.480 NA
ATOM     14  C   LIG    1        8.985  13.061   0.786  0.00  0.00    +0.260 A 
ATOM     15  C   LIG    1        7.995  12.200   1.220  0.00  0.00    -0.010 A 
ENDBRANCH   9  10
ENDBRANCH   8   9
ENDBRANCH   5   8
ENDBRANCH   1   2
BRANCH   1  18
ATOM     16  C   LIG    1        1.396   3.562   0.008  0.00  0.00    -0.000 A 
ATOM     17  C   LIG    1        1.296   4.365   1.093  0.00  0.00    +0.120 A 
ATOM     18  N   LIG    1        1.321   5.635   0.626  0.00  0.00    -0.290 N 
ATOM     19  N   LIG    1        1.421   5.591  -0.656  0.00  0.00    -0.080 NA
ATOM     20  N   LIG    1        1.468   4.370  -1.056  0.00  0.00    -0.250 NA
BRANCH  16  26
ATOM     21  C   LIG    1       -0.019   1.526   0.010  0.00  0.00    +0.170 C 
ATOM     22  C   LIG    1        0.002  -0.004   0.002  0.00  0.00    -0.010 C 
ATOM     23  C   LIG    1        0.742  -0.511   1.242  0.00  0.00    +0.010 C 
ATOM     24  C   LIG    1        2.178   0.019   1.231  0.00  0.00    +0.020 C 
ATOM     25  C   LIG    1        2.157   1.548   1.239  0.00  0.00    +0.030 C 
ATOM     26  C   LIG    1        1.417   2.055  -0.000  0.00  0.00    +0.100 C 
BRANCH  21  27
ATOM     27  O   LIG    1       -0.710   1.999  -1.147  0.00  0.00    -0.560 OA
ATOM     28  H   LIG    1       -1.628   1.702  -1.206  0.00  0.00    +0.380 HD
ENDBRANCH  21  27
ENDBRANCH  16  26
ENDBRANCH   1  18
TORSDOF 7
