REMARK  Name = ZINCpk00000KfKRN.0
REMARK                            x       y       z     vdW  Elec       q    Type
REMARK                         _______ _______ _______ _____ _____    ______ ____
ROOT
ATOM      1  N   LIG    1        2.138   1.472   1.171  0.00  0.00    -0.520 NA
ATOM      2  C   LIG    1        1.419   1.992  -0.001  0.00  0.00    +0.190 C 
ATOM      3  C   LIG    1       -0.018   1.465   0.010  0.00  0.00    +0.190 C 
ATOM      4  N   LIG    1        0.002  -0.004   0.002  0.00  0.00    -0.530 NA
ATOM      5  C   LIG    1        0.721  -0.525   1.173  0.00  0.00    +0.190 C 
ATOM      6  C   LIG    1        2.158   0.003   1.162  0.00  0.00    +0.200 C 
ENDROOT
BRANCH   1   7
ATOM      7  C   LIG    1        3.501   2.017   1.237  0.00  0.00    +0.250 C 
ATOM      8  C   LIG    1        4.139   1.631   2.573  0.00  0.00    +0.090 C 
BRANCH   7  13
ATOM      9  C   LIG    1        4.444   6.782  -0.088  0.00  0.00    +0.240 C 
ATOM     10  C   LIG    1        3.851   5.554   0.553  0.00  0.00    +0.160 A 
ATOM     11  N   LIG    1        2.864   5.529   1.404  0.00  0.00    -0.290 NA
ATOM     12  N   LIG    1        2.623   4.311   1.742  0.00  0.00    -0.260 NA
ATOM     13  C   LIG    1        3.448   3.518   1.119  0.00  0.00    +0.160 A 
ATOM     14  O   LIG    1        4.246   4.285   0.358  0.00  0.00    -0.230 OA
ENDBRANCH   7  13
ENDBRANCH   1   7
BRANCH   4  15
ATOM     15  C   LIG    1       -1.361  -0.549  -0.064  0.00  0.00    +0.160 C 
BRANCH  15  16
ATOM     16  C   LIG    1       -1.296  -2.055  -0.321  0.00  0.00    +0.230 C 
BRANCH  16  17
ATOM     17  O   LIG    1       -0.625  -2.299  -1.559  0.00  0.00    -0.540 OA
ATOM     18  H   LIG    1       -1.056  -1.897  -2.326  0.00  0.00    +0.370 HD
ENDBRANCH  16  17
BRANCH  16  19
ATOM     19  C   LIG    1       -2.715  -2.623  -0.390  0.00  0.00    +0.170 C 
BRANCH  19  20
ATOM     20  O   LIG    1       -2.654  -4.045  -0.514  0.00  0.00    -0.300 OA
BRANCH  20  21
ATOM     21  C   LIG    1       -3.837  -4.709  -0.588  0.00  0.00    +0.130 A 
ATOM     22  C   LIG    1       -5.033  -4.007  -0.537  0.00  0.00    -0.080 A 
ATOM     23  C   LIG    1       -6.234  -4.684  -0.618  0.00  0.00    +0.040 A 
ATOM     24  C   LIG    1       -6.246  -6.061  -0.739  0.00  0.00    -0.040 A 
ATOM     25  C   LIG    1       -5.056  -6.764  -0.784  0.00  0.00    +0.050 A 
ATOM     26  C   LIG    1       -3.852  -6.091  -0.709  0.00  0.00    -0.020 A 
ENDBRANCH  20  21
ENDBRANCH  19  20
ENDBRANCH  16  19
ENDBRANCH  15  16
ENDBRANCH   4  15
TORSDOF 8
