REMARK  Name = ZINCpe00000MJLoN.0
REMARK                            x       y       z     vdW  Elec       q    Type
REMARK                         _______ _______ _______ _____ _____    ______ ____
ROOT
ATOM      1  C   LIG    1        3.156   4.229   3.350  0.00  0.00    +0.560 C 
ATOM      2  N   LIG    1        2.897   4.054   2.039  0.00  0.00    -0.700 N 
ATOM      3  H   LIG    1        3.625   3.906   1.416  0.00  0.00    +0.410 HD
ATOM      4  O   LIG    1        2.242   4.414   4.131  0.00  0.00    -0.510 OA
ENDROOT
BRANCH   1  16
ATOM      5  C   LIG    1        3.678   4.860   6.029  0.00  0.00    +0.320 C 
ATOM      6  N   LIG    1        4.800   4.506   5.156  0.00  0.00    -0.510 N 
ATOM      7  C   LIG    1        6.047   4.496   5.668  0.00  0.00    +0.550 A 
ATOM      8  C   LIG    1        7.180   4.144   4.801  0.00  0.00    -0.140 A 
ATOM      9  C   LIG    1        8.488   4.117   5.278  0.00  0.00    +0.090 A 
ATOM     10  C   LIG    1        9.518   3.779   4.426  0.00  0.00    +0.000 A 
ATOM     11  C   LIG    1        9.265   3.466   3.097  0.00  0.00    +0.050 A 
ATOM     12  C   LIG    1        7.979   3.485   2.602  0.00  0.00    +0.030 A 
ATOM     13  C   LIG    1        6.921   3.824   3.448  0.00  0.00    -0.010 A 
ATOM     14  C   LIG    1        5.537   3.855   2.975  0.00  0.00    +0.010 A 
ATOM     15  O   LIG    1        6.232   4.777   6.838  0.00  0.00    -0.520 OA
ATOM     16  C   LIG    1        4.547   4.196   3.837  0.00  0.00    +0.100 A 
ENDBRANCH   1  16
BRANCH   2  17
ATOM     17  C   LIG    1        1.514   4.086   1.555  0.00  0.00    +0.250 C 
ATOM     18  C   LIG    1        1.169   5.357   0.757  0.00  0.00    +0.030 C 
ATOM     19  C   LIG    1        0.374   4.449  -0.195  0.00  0.00    +0.180 C 
ATOM     20  C   LIG    1        1.301   3.305   0.248  0.00  0.00    +0.270 C 
BRANCH  20  21
ATOM     21  N   LIG    1        0.608   2.027   0.435  0.00  0.00    -0.370 N 
ATOM     22  C   LIG    1       -0.727   1.853   0.518  0.00  0.00    +0.220 A 
ATOM     23  C   LIG    1       -0.961   0.530   0.683  0.00  0.00    -0.120 A 
ATOM     24  C   LIG    1        0.274  -0.125   0.711  0.00  0.00    +0.240 A 
ATOM     25  N   LIG    1        1.216   0.771   0.559  0.00  0.00    -0.290 NA
ENDBRANCH  20  21
BRANCH  19  26
ATOM     26  O   LIG    1        0.515   4.799  -1.574  0.00  0.00    -0.550 OA
ATOM     27  H   LIG    1       -0.065   5.518  -1.858  0.00  0.00    +0.390 HD
ENDBRANCH  19  26
ENDBRANCH   2  17
TORSDOF 4
