REMARK  Name = ZINCrH000004vH7m.0
REMARK                            x       y       z     vdW  Elec       q    Type
REMARK                         _______ _______ _______ _____ _____    ______ ____
ROOT
ATOM      1  C   LIG    1       -2.566  -0.161   1.220  0.00  0.00    +0.400 A 
ATOM      2  N   LIG    1       -1.620   0.113   2.086  0.00  0.00    -0.510 NA
ATOM      3  C   LIG    1       -1.483  -0.598   3.226  0.00  0.00    +0.100 A 
ATOM      4  C   LIG    1       -2.350  -1.647   3.489  0.00  0.00    -0.230 A 
ATOM      5  C   LIG    1       -2.062  -2.316   4.761  0.00  0.00    -0.050 A 
ATOM      6  C   LIG    1       -1.035  -1.799   5.419  0.00  0.00    -0.230 A 
ATOM      7  C   LIG    1       -0.804  -2.551   6.726  0.00  0.00    +0.120 C 
ATOM      8  C   LIG    1       -2.118  -3.317   6.979  0.00  0.00    +0.040 C 
ATOM      9  C   LIG    1       -2.656  -3.487   5.544  0.00  0.00    +0.100 C 
ATOM     10  C   LIG    1       -3.371  -1.937   2.535  0.00  0.00    +0.570 A 
ATOM     11  O   LIG    1       -4.156  -2.850   2.722  0.00  0.00    -0.520 OA
ATOM     12  S   LIG    1       -0.328  -0.445   4.539  0.00  0.00    +0.210 S 
ATOM     13  N   LIG    1       -3.449  -1.181   1.421  0.00  0.00    -0.510 N 
ENDROOT
BRANCH   1  14
ATOM     14  S   LIG    1       -2.695   0.810  -0.245  0.00  0.00    +0.070 S 
BRANCH  14  21
ATOM     15  O   LIG    1        0.002  -0.004   0.002  0.00  0.00    -0.420 OA
ATOM     16  C   LIG    1       -0.014   1.203   0.009  0.00  0.00    +0.370 C 
ATOM     17  C   LIG    1        1.274   1.997   0.001  0.00  0.00    +0.030 C 
ATOM     18  C   LIG    1        1.202   3.030  -1.128  0.00  0.00    +0.030 C 
ATOM     19  C   LIG    1       -0.060   3.879  -0.961  0.00  0.00    +0.030 C 
ATOM     20  C   LIG    1       -1.301   2.996  -1.105  0.00  0.00    +0.070 C 
ATOM     21  C   LIG    1       -1.323   1.961   0.019  0.00  0.00    -0.010 C 
ENDBRANCH  14  21
ENDBRANCH   1  14
BRANCH  13  22
ATOM     22  C   LIG    1       -4.487  -1.456   0.424  0.00  0.00    +0.310 C 
BRANCH  22  23
ATOM     23  C   LIG    1       -3.955  -2.459  -0.602  0.00  0.00    +0.140 C 
ATOM     24  C   LIG    1       -5.039  -2.756  -1.656  0.00  0.00    +0.010 C 
ATOM     25  C   LIG    1       -4.382  -2.354  -2.999  0.00  0.00    +0.010 C 
ATOM     26  C   LIG    1       -2.873  -2.398  -2.648  0.00  0.00    +0.200 C 
ATOM     27  O   LIG    1       -2.827  -1.898  -1.294  0.00  0.00    -0.350 OA
ENDBRANCH  22  23
ENDBRANCH  13  22
TORSDOF 4
