REMARK  Name = ZINCkj000005l0u4.0
REMARK                            x       y       z     vdW  Elec       q    Type
REMARK                         _______ _______ _______ _____ _____    ______ ____
ROOT
ATOM      1  C   LIG    1        2.280   1.533  -1.110  0.00  0.00    -0.030 C 
ATOM      2  C   LIG    1        3.658   2.177  -1.285  0.00  0.00    +0.060 C 
ATOM      3  C   LIG    1        4.295   1.664  -2.578  0.00  0.00    +0.260 C 
ATOM      4  N   LIG    1        3.442   2.013  -3.720  0.00  0.00    -0.380 N 
ATOM      5  C   LIG    1        2.143   1.341  -3.596  0.00  0.00    +0.250 C 
ATOM      6  H   LIG    1        3.302   3.012  -3.741  0.00  0.00    +0.430 HD
ATOM      7  C   LIG    1        1.423   1.842  -2.342  0.00  0.00    +0.070 C 
ENDROOT
BRANCH   1   8
ATOM      8  C   LIG    1        1.604   2.102   0.139  0.00  0.00    +0.320 C 
BRANCH   8  14
ATOM      9  C   LIG    1        3.390   4.102   1.690  0.00  0.00    +0.310 C 
ATOM     10  N   LIG    1        3.220   2.684   2.014  0.00  0.00    -0.450 N 
ATOM     11  C   LIG    1        3.816   2.009   3.045  0.00  0.00    +0.140 A 
ATOM     12  C   LIG    1        3.387   0.734   2.976  0.00  0.00    +0.160 A 
ATOM     13  N   LIG    1        2.548   0.635   1.933  0.00  0.00    -0.480 NA
ATOM     14  C   LIG    1        2.447   1.797   1.350  0.00  0.00    +0.150 A 
ENDBRANCH   8  14
BRANCH   8  15
ATOM     15  O   LIG    1        0.314   1.507   0.295  0.00  0.00    -0.540 OA
ATOM     16  H   LIG    1        0.334   0.545   0.394  0.00  0.00    +0.390 HD
ENDBRANCH   8  15
ENDBRANCH   1   8
BRANCH   4  17
ATOM     17  C   LIG    1        4.096   1.586  -4.964  0.00  0.00    +0.280 C 
BRANCH  17  18
ATOM     18  C   LIG    1        3.290   2.090  -6.163  0.00  0.00    +0.210 C 
BRANCH  18  19
ATOM     19  O   LIG    1        3.295   3.519  -6.173  0.00  0.00    -0.370 OA
BRANCH  19  20
ATOM     20  C   LIG    1        2.566   4.096  -7.258  0.00  0.00    +0.130 C 
ATOM     21  C   LIG    1        3.154   5.343  -7.920  0.00  0.00    +0.030 C 
ATOM     22  C   LIG    1        1.916   5.461  -7.027  0.00  0.00    +0.030 C 
ENDBRANCH  19  20
ENDBRANCH  18  19
ENDBRANCH  17  18
ENDBRANCH   4  17
TORSDOF 7
