REMARK  Name = ZINCqH00000075Bu.0
REMARK                            x       y       z     vdW  Elec       q    Type
REMARK                         _______ _______ _______ _____ _____    ______ ____
ROOT
ATOM      1  C   LIG    1        3.476   1.925   1.124  0.00  0.00    +0.090 A 
ATOM      2  C   LIG    1        3.586   3.304   1.074  0.00  0.00    -0.050 A 
ATOM      3  C   LIG    1        2.592   4.053   0.472  0.00  0.00    +0.030 A 
ATOM      4  C   LIG    1        1.489   3.429  -0.079  0.00  0.00    -0.100 A 
ATOM      5  C   LIG    1        1.369   2.049  -0.034  0.00  0.00    -0.080 A 
ATOM      6  C   LIG    1        0.151   1.405  -0.642  0.00  0.00    +0.090 C 
ATOM      7  C   LIG    1        0.421  -0.068  -0.950  0.00  0.00    +0.020 C 
ATOM      8  C   LIG    1        0.984  -0.742   0.308  0.00  0.00    +0.290 C 
ATOM      9  N   LIG    1        2.269  -0.103   0.622  0.00  0.00    -0.540 N 
ATOM     10  C   LIG    1        3.341  -0.848   0.958  0.00  0.00    +0.550 C 
ATOM     11  O   LIG    1        4.462  -0.404   0.806  0.00  0.00    -0.410 OA
ATOM     12  C   LIG    1        0.411   4.254  -0.732  0.00  0.00    +0.100 C 
ATOM     13  C   LIG    1        2.363   1.295   0.566  0.00  0.00    +0.130 A 
ENDROOT
BRANCH  10  14
ATOM     14  C   LIG    1        3.153  -2.208   1.514  0.00  0.00    +0.100 A 
ATOM     15  C   LIG    1        4.247  -2.981   1.725  0.00  0.00    -0.050 A 
ATOM     16  C   LIG    1        4.049  -4.336   2.266  0.00  0.00    +0.420 A 
ATOM     17  C   LIG    1        2.661  -4.842   2.250  0.00  0.00    -0.220 A 
ATOM     18  C   LIG    1        2.373  -6.186   2.479  0.00  0.00    +0.110 A 
ATOM     19  C   LIG    1        1.064  -6.615   2.440  0.00  0.00    -0.010 A 
ATOM     20  C   LIG    1        0.042  -5.716   2.174  0.00  0.00    +0.090 A 
ATOM     21  C   LIG    1        0.314  -4.383   1.950  0.00  0.00    +0.010 A 
ATOM     22  C   LIG    1        1.627  -3.926   1.989  0.00  0.00    +0.140 A 
ATOM     23  O   LIG    1        4.974  -5.002   2.696  0.00  0.00    -0.440 OA
ATOM     24  O   LIG    1        1.908  -2.626   1.781  0.00  0.00    -0.220 OA
ENDBRANCH  10  14
BRANCH   1  26
ATOM     25  C   LIG    1        5.562   1.896   2.265  0.00  0.00    +0.210 C 
ATOM     26  O   LIG    1        4.451   1.185   1.715  0.00  0.00    -0.260 OA
ENDBRANCH   1  26
TORSDOF 2
