REMARK  Name = ZINCpe000000TKDy.0
REMARK                            x       y       z     vdW  Elec       q    Type
REMARK                         _______ _______ _______ _____ _____    ______ ____
ROOT
ATOM      1  C   LIG    1        2.987   0.601  -1.571  0.00  0.00    +0.300 C 
ENDROOT
BRANCH   1   2
ATOM      2  N   LIG    1        1.818  -0.152  -2.033  0.00  0.00    -0.560 N 
ATOM      3  C   LIG    1        1.097   0.297  -3.080  0.00  0.00    +0.520 C 
ATOM      4  O   LIG    1        1.468   1.274  -3.697  0.00  0.00    -0.490 OA
BRANCH   2   5
ATOM      5  C   LIG    1        1.432  -1.393  -1.357  0.00  0.00    +0.200 C 
ATOM      6  C   LIG    1        0.912  -1.284   0.078  0.00  0.00    +0.010 C 
ATOM      7  C   LIG    1        2.303  -1.863  -0.191  0.00  0.00    +0.050 C 
ENDBRANCH   2   5
BRANCH   3   8
ATOM      8  C   LIG    1       -0.169  -0.413  -3.484  0.00  0.00    +0.380 C 
BRANCH   8   9
ATOM      9  N   LIG    1       -0.699   0.193  -4.707  0.00  0.00    -0.310 N 
ATOM     10  C   LIG    1       -0.983  -0.445  -5.858  0.00  0.00    +0.400 A 
ATOM     11  N   LIG    1       -1.435   0.461  -6.690  0.00  0.00    -0.300 NA
ATOM     12  N   LIG    1       -1.422   1.599  -6.085  0.00  0.00    -0.080 NA
ATOM     13  N   LIG    1       -0.978   1.440  -4.886  0.00  0.00    -0.060 NA
ENDBRANCH   8   9
ENDBRANCH   3   8
ENDBRANCH   1   2
BRANCH   1  14
ATOM     14  C   LIG    1        4.187  -0.310  -1.532  0.00  0.00    +0.450 C 
ATOM     15  O   LIG    1        4.077  -1.468  -1.857  0.00  0.00    -0.490 OA
BRANCH  14  16
ATOM     16  O   LIG    1        5.378   0.167  -1.137  0.00  0.00    -0.350 OA
BRANCH  16  18
ATOM     17  C   LIG    1        7.754  -0.048  -0.649  0.00  0.00    +0.070 C 
ATOM     18  C   LIG    1        6.490  -0.767  -1.124  0.00  0.00    +0.200 C 
ENDBRANCH  16  18
ENDBRANCH  14  16
ENDBRANCH   1  14
BRANCH   1  19
ATOM     19  C   LIG    1        2.718   1.150  -0.169  0.00  0.00    +0.100 C 
BRANCH  19  20
ATOM     20  C   LIG    1        1.651   2.212  -0.241  0.00  0.00    -0.090 A 
ATOM     21  C   LIG    1        0.318   1.850  -0.286  0.00  0.00    +0.000 A 
ATOM     22  C   LIG    1       -0.661   2.824  -0.359  0.00  0.00    +0.010 A 
ATOM     23  C   LIG    1       -0.307   4.160  -0.376  0.00  0.00    +0.010 A 
ATOM     24  C   LIG    1        1.027   4.522  -0.331  0.00  0.00    +0.010 A 
ATOM     25  C   LIG    1        2.006   3.548  -0.263  0.00  0.00    +0.010 A 
ENDBRANCH  19  20
ENDBRANCH   1  19
TORSDOF 9
