REMARK  Name = ZINCkj00000hdsiz.0
REMARK                            x       y       z     vdW  Elec       q    Type
REMARK                         _______ _______ _______ _____ _____    ______ ____
ROOT
ATOM      1  C   LIG    1       -2.817   1.583  -2.387  0.00  0.00    +0.310 C 
ENDROOT
BRANCH   1   2
ATOM      2  C   LIG    1       -2.118   1.114  -1.109  0.00  0.00    +0.170 C 
ATOM      3  C   LIG    1       -0.671   1.612  -1.108  0.00  0.00    +0.070 C 
ATOM      4  C   LIG    1        0.024   1.140   0.173  0.00  0.00    +0.040 C 
ATOM      5  C   LIG    1       -0.763   1.644   1.386  0.00  0.00    +0.060 C 
ATOM      6  C   LIG    1       -2.208   1.145   1.291  0.00  0.00    +0.260 C 
ATOM      7  N   LIG    1       -2.825   1.651   0.059  0.00  0.00    -0.380 N 
ATOM      8  H   LIG    1       -3.792   1.363   0.027  0.00  0.00    +0.410 HD
BRANCH   7   9
ATOM      9  C   LIG    1       -2.752   3.118   0.043  0.00  0.00    +0.270 C 
BRANCH   9  10
ATOM     10  C   LIG    1       -3.628   3.684   1.162  0.00  0.00    +0.220 C 
BRANCH  10  11
ATOM     11  O   LIG    1       -3.050   3.362   2.429  0.00  0.00    -0.570 OA
ATOM     12  H   LIG    1       -3.554   3.691   3.186  0.00  0.00    +0.410 HD
ENDBRANCH  10  11
ENDBRANCH   9  10
ENDBRANCH   7   9
ENDBRANCH   1   2
BRANCH   1  15
ATOM     13  O   LIG    1       -4.614   2.113  -4.324  0.00  0.00    -0.500 OA
ATOM     14  C   LIG    1       -5.050   1.522  -3.359  0.00  0.00    +0.530 C 
ATOM     15  N   LIG    1       -4.232   1.209  -2.335  0.00  0.00    -0.750 N 
ATOM     16  H   LIG    1       -4.581   0.737  -1.563  0.00  0.00    +0.390 HD
BRANCH  14  17
ATOM     17  C   LIG    1       -6.506   1.138  -3.305  0.00  0.00    +0.010 C 
ATOM     18  C   LIG    1       -7.226   1.897  -2.163  0.00  0.00    +0.060 C 
ATOM     19  C   LIG    1       -8.706   1.879  -2.619  0.00  0.00    +0.050 C 
ATOM     20  C   LIG    1       -8.633   2.072  -4.147  0.00  0.00    +0.280 C 
ATOM     21  F   LIG    1       -9.616   1.300  -4.775  0.00  0.00    -0.190 F 
ATOM     22  F   LIG    1       -8.806   3.422  -4.469  0.00  0.00    -0.190 F 
ATOM     23  C   LIG    1       -7.235   1.601  -4.584  0.00  0.00    +0.070 C 
ENDBRANCH  14  17
ENDBRANCH   1  15
TORSDOF 6
