REMARK  Name = ZINCkj00000hdsiz.1
REMARK                            x       y       z     vdW  Elec       q    Type
REMARK                         _______ _______ _______ _____ _____    ______ ____
ROOT
ATOM      1  C   LIG    1        0.012   1.257  -0.038  0.00  0.00    +0.300 C 
ENDROOT
BRANCH   1   2
ATOM      2  C   LIG    1       -0.787   1.640  -1.285  0.00  0.00    +0.170 C 
ATOM      3  C   LIG    1       -0.066   1.122  -2.531  0.00  0.00    +0.070 C 
ATOM      4  C   LIG    1       -0.869   1.507  -3.777  0.00  0.00    +0.050 C 
ATOM      5  C   LIG    1       -2.288   0.945  -3.651  0.00  0.00    +0.060 C 
ATOM      6  C   LIG    1       -2.927   1.470  -2.364  0.00  0.00    +0.250 C 
ATOM      7  N   LIG    1       -2.127   1.046  -1.208  0.00  0.00    -0.380 N 
ATOM      8  H   LIG    1       -2.049   0.040  -1.207  0.00  0.00    +0.420 HD
BRANCH   7   9
ATOM      9  C   LIG    1       -2.786   1.486   0.029  0.00  0.00    +0.280 C 
BRANCH   9  10
ATOM     10  C   LIG    1       -4.122   0.756   0.183  0.00  0.00    +0.220 C 
BRANCH  10  11
ATOM     11  O   LIG    1       -3.884  -0.642   0.357  0.00  0.00    -0.580 OA
ATOM     12  H   LIG    1       -4.688  -1.169   0.462  0.00  0.00    +0.410 HD
ENDBRANCH  10  11
ENDBRANCH   9  10
ENDBRANCH   7   9
ENDBRANCH   1   2
BRANCH   1  15
ATOM     13  O   LIG    1        1.071  -0.065   2.059  0.00  0.00    -0.510 OA
ATOM     14  C   LIG    1        0.569  -0.764   1.204  0.00  0.00    +0.530 C 
ATOM     15  N   LIG    1        0.011  -0.200   0.114  0.00  0.00    -0.750 N 
ATOM     16  H   LIG    1       -0.390  -0.759  -0.569  0.00  0.00    +0.400 HD
BRANCH  14  17
ATOM     17  C   LIG    1        0.568  -2.263   1.361  0.00  0.00    +0.010 C 
ATOM     18  C   LIG    1        1.435  -2.923   0.260  0.00  0.00    +0.070 C 
ATOM     19  C   LIG    1        1.816  -4.283   0.895  0.00  0.00    +0.050 C 
ATOM     20  C   LIG    1        2.052  -3.953   2.383  0.00  0.00    +0.280 C 
ATOM     21  F   LIG    1        1.586  -5.000   3.186  0.00  0.00    -0.190 F 
ATOM     22  F   LIG    1        3.414  -3.739   2.617  0.00  0.00    -0.190 F 
ATOM     23  C   LIG    1        1.258  -2.668   2.679  0.00  0.00    +0.060 C 
ENDBRANCH  14  17
ENDBRANCH   1  15
TORSDOF 6
