REMARK  Name = ZINCrg000000sYnu.0
REMARK                            x       y       z     vdW  Elec       q    Type
REMARK                         _______ _______ _______ _____ _____    ______ ____
ROOT
ATOM      1  N   LIG    1       -5.696   4.525  -1.530  0.00  0.00    -1.000 NA
ATOM      2  C   LIG    1       -5.280   5.743  -2.238  0.00  0.00    +0.300 C 
ATOM      3  C   LIG    1       -4.572   5.334  -3.538  0.00  0.00    +0.030 C 
ATOM      4  C   LIG    1       -5.493   4.419  -4.349  0.00  0.00    +0.000 C 
ATOM      5  C   LIG    1       -5.792   3.151  -3.544  0.00  0.00    +0.050 C 
ATOM      6  C   LIG    1       -6.510   3.533  -2.246  0.00  0.00    +0.300 C 
ENDROOT
BRANCH   4   7
ATOM      7  C   LIG    1       -4.817   4.044  -5.643  0.00  0.00    +0.520 C 
ATOM      8  N   LIG    1       -4.458   5.004  -6.518  0.00  0.00    -0.730 N 
ATOM      9  H   LIG    1       -4.634   5.936  -6.315  0.00  0.00    +0.400 HD
ATOM     10  O   LIG    1       -4.596   2.879  -5.896  0.00  0.00    -0.530 OA
BRANCH   8  11
ATOM     11  C   LIG    1       -3.801   4.640  -7.775  0.00  0.00    +0.390 C 
BRANCH  11  12
ATOM     12  C   LIG    1       -3.506   5.888  -8.568  0.00  0.00    -0.040 A 
ATOM     13  C   LIG    1       -2.379   6.617  -8.495  0.00  0.00    -0.030 A 
ATOM     14  C   LIG    1       -2.527   7.691  -9.403  0.00  0.00    -0.070 A 
ATOM     15  C   LIG    1       -3.736   7.554  -9.976  0.00  0.00    +0.180 A 
ATOM     16  O   LIG    1       -4.322   6.456  -9.470  0.00  0.00    -0.170 OA
ENDBRANCH  11  12
ENDBRANCH   8  11
ENDBRANCH   4   7
BRANCH   1  17
ATOM     17  S   LIG    1       -5.261   4.277   0.049  0.00  0.00    +2.690 S 
ATOM     18  O   LIG    1       -4.999   5.561   0.599  0.00  0.00    -0.950 OA
ATOM     19  O   LIG    1       -6.219   3.380   0.593  0.00  0.00    -0.950 OA
BRANCH  17  23
ATOM     20  C   LIG    1       -1.306   2.065   0.019  0.00  0.00    -0.080 A 
ATOM     21  C   LIG    1       -2.507   1.354   0.015  0.00  0.00    +0.030 A 
ATOM     22  C   LIG    1       -3.708   2.034   0.030  0.00  0.00    +0.120 A 
ATOM     23  C   LIG    1       -3.723   3.417   0.038  0.00  0.00    -0.660 A 
ATOM     24  C   LIG    1       -2.536   4.128   0.036  0.00  0.00    +0.120 A 
ATOM     25  C   LIG    1       -1.329   3.461   0.027  0.00  0.00    +0.070 A 
BRANCH  20  29
ATOM     26  N   LIG    1        0.002  -0.004   0.002  0.00  0.00    -0.850 N 
ATOM     27  H   LIG    1       -0.831  -0.500   0.007  0.00  0.00    +0.400 HD
ATOM     28  H   LIG    1        0.849  -0.478  -0.009  0.00  0.00    +0.410 HD
ATOM     29  C   LIG    1       -0.016   1.344   0.009  0.00  0.00    +0.560 C 
ATOM     30  O   LIG    1        1.028   1.966   0.003  0.00  0.00    -0.530 OA
ENDBRANCH  20  29
ENDBRANCH  17  23
ENDBRANCH   1  17
TORSDOF 6
