REMARK  Name = ZINCrD000000fYgR.0
REMARK                            x       y       z     vdW  Elec       q    Type
REMARK                         _______ _______ _______ _____ _____    ______ ____
ROOT
ATOM      1  N   LIG    1       -6.079   4.433   5.535  0.00  0.00    -0.730 N 
ATOM      2  H   LIG    1       -6.431   4.209   4.660  0.00  0.00    +0.410 HD
ENDROOT
BRANCH   1   6
ATOM      3  C   LIG    1       -8.580   6.068   8.431  0.00  0.00    -0.200 A 
ATOM      4  C   LIG    1       -9.087   5.745   7.169  0.00  0.00    +0.130 A 
ATOM      5  C   LIG    1       -8.258   5.204   6.213  0.00  0.00    -0.070 A 
ATOM      6  C   LIG    1       -6.914   4.979   6.503  0.00  0.00    +0.240 A 
ATOM      7  C   LIG    1       -6.408   5.295   7.760  0.00  0.00    -0.080 A 
ATOM      8  C   LIG    1       -7.231   5.841   8.718  0.00  0.00    +0.090 A 
BRANCH   3  11
ATOM      9  N   LIG    1       -8.977   6.958  10.674  0.00  0.00    -0.720 N 
ATOM     10  H   LIG    1       -8.041   6.801  10.874  0.00  0.00    +0.400 HD
ATOM     11  C   LIG    1       -9.467   6.647   9.457  0.00  0.00    +0.570 C 
ATOM     12  O   LIG    1      -10.641   6.844   9.206  0.00  0.00    -0.540 OA
BRANCH   9  14
ATOM     13  C   LIG    1      -10.997   6.557  11.993  0.00  0.00    +0.030 C 
ATOM     14  C   LIG    1       -9.858   7.534  11.693  0.00  0.00    +0.170 C 
ATOM     15  C   LIG    1      -10.439   8.853  11.180  0.00  0.00    +0.030 C 
ATOM     16  C   LIG    1       -9.058   7.791  12.972  0.00  0.00    +0.030 C 
ENDBRANCH   9  14
ENDBRANCH   3  11
ENDBRANCH   1   6
BRANCH   1  17
ATOM     17  C   LIG    1       -4.665   4.196   5.838  0.00  0.00    +0.300 C 
BRANCH  17  18
ATOM     18  C   LIG    1       -3.985   3.603   4.631  0.00  0.00    +0.510 C 
ATOM     19  N   LIG    1       -2.673   3.299   4.677  0.00  0.00    -0.670 N 
ATOM     20  H   LIG    1       -2.183   3.390   5.510  0.00  0.00    +0.420 HD
ATOM     21  O   LIG    1       -4.619   3.398   3.617  0.00  0.00    -0.510 OA
BRANCH  19  22
ATOM     22  C   LIG    1       -2.017   2.852   3.525  0.00  0.00    +0.150 A 
ATOM     23  C   LIG    1       -2.398   3.329   2.278  0.00  0.00    +0.020 A 
ATOM     24  C   LIG    1       -1.749   2.886   1.142  0.00  0.00    +0.050 A 
ATOM     25  C   LIG    1       -0.720   1.968   1.246  0.00  0.00    -0.110 A 
ATOM     26  C   LIG    1       -0.341   1.488   2.486  0.00  0.00    +0.050 A 
ATOM     27  C   LIG    1       -0.983   1.931   3.626  0.00  0.00    -0.010 A 
BRANCH  25  28
ATOM     28  C   LIG    1       -0.014   1.487   0.005  0.00  0.00    +0.260 C 
BRANCH  28  29
ATOM     29  C   LIG    1        1.130   2.368  -0.282  0.00  0.00    +0.200 C 
ATOM     30  N   LIG    1        2.012   3.048  -0.504  0.00  0.00    -0.430 NA
ENDBRANCH  28  29
ENDBRANCH  25  28
ENDBRANCH  19  22
ENDBRANCH  17  18
ENDBRANCH   1  17
TORSDOF 8
