REMARK  Name = ZINCtV000002LjGz.0
REMARK                            x       y       z     vdW  Elec       q    Type
REMARK                         _______ _______ _______ _____ _____    ______ ____
ROOT
ATOM      1  C   LIG    1        2.924  -4.613   3.888  0.00  0.00    -0.030 A 
ATOM      2  C   LIG    1        3.320  -5.649   4.624  0.00  0.00    +0.010 A 
ATOM      3  S   LIG    1        3.818  -6.994   3.616  0.00  0.00    +0.200 S 
ATOM      4  C   LIG    1        3.474  -6.108   2.138  0.00  0.00    +0.100 A 
ATOM      5  N   LIG    1        3.597  -6.460   0.851  0.00  0.00    -0.490 NA
ATOM      6  C   LIG    1        3.277  -5.629  -0.113  0.00  0.00    +0.540 A 
ATOM      7  N   LIG    1        2.821  -4.414   0.129  0.00  0.00    -0.530 NA
ATOM      8  C   LIG    1        2.665  -3.975   1.371  0.00  0.00    +0.200 A 
ATOM      9  C   LIG    1        3.002  -4.832   2.449  0.00  0.00    -0.150 A 
ENDROOT
BRANCH   1  14
ATOM     10  F   LIG    1        1.128   0.197   6.132  0.00  0.00    -0.140 F 
ATOM     11  C   LIG    1        1.561  -0.963   5.591  0.00  0.00    +0.110 A 
ATOM     12  C   LIG    1        1.035  -2.168   6.028  0.00  0.00    -0.010 A 
ATOM     13  C   LIG    1        1.474  -3.355   5.478  0.00  0.00    +0.070 A 
ATOM     14  C   LIG    1        2.449  -3.340   4.481  0.00  0.00    -0.050 A 
ATOM     15  C   LIG    1        2.979  -2.126   4.049  0.00  0.00    +0.080 A 
ATOM     16  C   LIG    1        2.530  -0.944   4.601  0.00  0.00    +0.000 A 
ENDBRANCH   1  14
BRANCH   8  17
ATOM     17  S   LIG    1        2.057  -2.350   1.676  0.00  0.00    +0.050 S 
BRANCH  17  18
ATOM     18  C   LIG    1        1.828  -1.776  -0.025  0.00  0.00    +0.220 C 
BRANCH  18  19
ATOM     19  C   LIG    1        1.298  -0.365  -0.012  0.00  0.00    +0.180 A 
ATOM     20  N   LIG    1        2.013   0.725  -0.013  0.00  0.00    -0.250 NA
ATOM     21  N   LIG    1        1.235   1.750  -0.000  0.00  0.00    -0.240 NA
ATOM     22  C   LIG    1       -0.016   1.345   0.009  0.00  0.00    +0.250 A 
ATOM     23  O   LIG    1        0.002  -0.004   0.002  0.00  0.00    -0.210 OA
BRANCH  22  24
ATOM     24  C   LIG    1       -1.211   2.201   0.020  0.00  0.00    +0.050 A 
ATOM     25  C   LIG    1       -1.218   3.565   0.028  0.00  0.00    +0.070 A 
ATOM     26  C   LIG    1       -2.568   3.962   0.036  0.00  0.00    +0.020 A 
ATOM     27  C   LIG    1       -3.313   2.836   0.034  0.00  0.00    +0.000 A 
ATOM     28 BR   LIG    1       -5.202   2.765   0.044  0.00  0.00    +0.080 Br
ATOM     29  O   LIG    1       -2.490   1.776   0.018  0.00  0.00    -0.150 OA
ENDBRANCH  22  24
ENDBRANCH  18  19
ENDBRANCH  17  18
ENDBRANCH   8  17
TORSDOF 5
