REMARK  Name = ZINCvU0000000Bz8.0
REMARK                            x       y       z     vdW  Elec       q    Type
REMARK                         _______ _______ _______ _____ _____    ______ ____
ROOT
ATOM      1  C   LIG    1       -2.213  -4.117   0.010  0.00  0.00    +0.300 A 
ATOM      2  N   LIG    1       -3.244  -4.891  -0.099  0.00  0.00    -0.450 NA
ATOM      3  C   LIG    1       -3.008  -6.202  -0.191  0.00  0.00    +0.100 A 
ATOM      4  C   LIG    1       -1.699  -6.552  -0.157  0.00  0.00    -0.040 A 
ATOM      5  S   LIG    1       -0.741  -5.082  -0.004  0.00  0.00    +0.120 S 
ENDROOT
BRANCH   1   8
ATOM      6  C   LIG    1       -3.509  -0.598   0.218  0.00  0.00    +0.120 C 
ATOM      7  C   LIG    1       -3.450  -2.104   0.213  0.00  0.00    +0.510 C 
ATOM      8  N   LIG    1       -2.261  -2.732   0.117  0.00  0.00    -0.480 N 
ATOM      9  O   LIG    1       -4.472  -2.751   0.295  0.00  0.00    -0.460 OA
BRANCH   8  10
ATOM     10  C   LIG    1       -1.074  -1.988   0.124  0.00  0.00    +0.110 A 
ATOM     11  C   LIG    1       -0.787  -1.124  -0.924  0.00  0.00    +0.070 A 
ATOM     12  C   LIG    1        0.384  -0.393  -0.914  0.00  0.00    +0.050 A 
ATOM     13  C   LIG    1        1.271  -0.519   0.140  0.00  0.00    +0.090 A 
ATOM     14  C   LIG    1        0.988  -1.379   1.186  0.00  0.00    -0.170 A 
ATOM     15  C   LIG    1       -0.179  -2.117   1.178  0.00  0.00    +0.080 A 
BRANCH  14  16
ATOM     16  C   LIG    1        1.958  -1.515   2.331  0.00  0.00    +0.510 C 
ATOM     17  F   LIG    1        2.391  -2.842   2.421  0.00  0.00    -0.170 F 
ATOM     18  F   LIG    1        1.324  -1.149   3.524  0.00  0.00    -0.170 F 
ATOM     19  F   LIG    1        3.058  -0.679   2.113  0.00  0.00    -0.170 F 
ENDBRANCH  14  16
ENDBRANCH   8  10
ENDBRANCH   1   8
BRANCH   3  20
ATOM     20  C   LIG    1       -4.085  -7.189  -0.319  0.00  0.00    +0.170 C 
ATOM     21  C   LIG    1       -5.375  -6.783  -0.348  0.00  0.00    -0.040 C 
BRANCH  21  22
ATOM     22  C   LIG    1       -6.415  -7.737  -0.471  0.00  0.00    +0.560 C 
ATOM     23  N   LIG    1       -7.700  -7.332  -0.500  0.00  0.00    -0.670 N 
ATOM     24  H   LIG    1       -7.910  -6.386  -0.521  0.00  0.00    +0.420 HD
ATOM     25  O   LIG    1       -6.148  -8.922  -0.551  0.00  0.00    -0.530 OA
BRANCH  23  26
ATOM     26  C   LIG    1       -8.732  -8.278  -0.498  0.00  0.00    +0.120 A 
ATOM     27  C   LIG    1       -8.581  -9.471   0.194  0.00  0.00    +0.050 A 
ATOM     28  C   LIG    1       -9.601 -10.403   0.194  0.00  0.00    +0.020 A 
ATOM     29  C   LIG    1      -10.772 -10.149  -0.495  0.00  0.00    +0.030 A 
ATOM     30  C   LIG    1      -10.927  -8.962  -1.188  0.00  0.00    +0.010 A 
ATOM     31  C   LIG    1       -9.913  -8.022  -1.187  0.00  0.00    +0.070 A 
ATOM     32  F   LIG    1      -10.067  -6.860  -1.858  0.00  0.00    -0.140 F 
ENDBRANCH  23  26
ENDBRANCH  21  22
ENDBRANCH   3  20
TORSDOF 6
