REMARK  Name = ZINCrD000000fO1P.0
REMARK                            x       y       z     vdW  Elec       q    Type
REMARK                         _______ _______ _______ _____ _____    ______ ____
ROOT
ATOM      1  C   LIG    1       -3.610   2.737   3.119  0.00  0.00    +0.590 C 
ATOM      2  N   LIG    1       -4.666   2.780   2.282  0.00  0.00    -0.730 N 
ATOM      3  H   LIG    1       -4.560   2.522   1.353  0.00  0.00    +0.400 HD
ATOM      4  O   LIG    1       -3.744   3.060   4.284  0.00  0.00    -0.520 OA
ENDROOT
BRANCH   1   9
ATOM      5  C   LIG    1       -0.138   1.751   2.494  0.00  0.00    -0.260 A 
ATOM      6  C   LIG    1       -0.717   1.577   1.246  0.00  0.00    +0.100 A 
ATOM      7  N   LIG    1       -2.012   1.914   1.332  0.00  0.00    -0.530 N 
ATOM      8  H   LIG    1       -2.648   1.887   0.600  0.00  0.00    +0.420 HD
ATOM      9  C   LIG    1       -2.299   2.300   2.623  0.00  0.00    -0.060 A 
ATOM     10  C   LIG    1       -0.009   1.098   0.005  0.00  0.00    +0.150 C 
ATOM     11  C   LIG    1       -1.157   2.212   3.362  0.00  0.00    -0.030 A 
ATOM     12  C   LIG    1       -1.008   2.542   4.824  0.00  0.00    +0.120 C 
BRANCH   5  14
ATOM     13  C   LIG    1        1.710   0.118   3.236  0.00  0.00    +0.070 C 
ATOM     14  C   LIG    1        1.264   1.504   2.847  0.00  0.00    +0.440 C 
ATOM     15  O   LIG    1        2.064   2.416   2.827  0.00  0.00    -0.450 OA
ENDBRANCH   5  14
ENDBRANCH   1   9
BRANCH   2  16
ATOM     16  C   LIG    1       -5.975   3.216   2.776  0.00  0.00    +0.310 C 
BRANCH  16  17
ATOM     17  C   LIG    1       -6.991   3.173   1.633  0.00  0.00    +0.190 C 
BRANCH  17  18
ATOM     18  O   LIG    1       -7.178   1.820   1.212  0.00  0.00    -0.310 OA
BRANCH  18  19
ATOM     19  C   LIG    1       -8.056   1.605   0.197  0.00  0.00    +0.110 A 
ATOM     20  C   LIG    1       -8.725   2.673  -0.375  0.00  0.00    -0.040 A 
ATOM     21  C   LIG    1       -9.617   2.463  -1.411  0.00  0.00    +0.020 A 
ATOM     22  C   LIG    1       -9.850   1.179  -1.868  0.00  0.00    +0.020 A 
ATOM     23  C   LIG    1       -9.192   0.111  -1.295  0.00  0.00    -0.140 A 
ATOM     24  C   LIG    1       -9.250  -1.381  -1.561  0.00  0.00    +0.090 C 
ATOM     25  C   LIG    1       -8.572  -1.958  -0.296  0.00  0.00    +0.100 C 
ATOM     26  C   LIG    1       -7.734  -3.190  -0.644  0.00  0.00    +0.080 C 
ATOM     27  C   LIG    1       -9.616  -2.299   0.770  0.00  0.00    +0.050 C 
ATOM     28  O   LIG    1       -7.735  -0.873   0.139  0.00  0.00    -0.290 OA
ATOM     29  C   LIG    1       -8.285   0.306  -0.264  0.00  0.00    +0.080 A 
ENDBRANCH  18  19
ENDBRANCH  17  18
ENDBRANCH  16  17
ENDBRANCH   2  16
TORSDOF 6
