REMARK  Name = ZINCrD0000071ETQ.0
REMARK                            x       y       z     vdW  Elec       q    Type
REMARK                         _______ _______ _______ _____ _____    ______ ____
ROOT
ATOM      1  C   LIG    1       -2.780  -1.439  -7.806  0.00  0.00    +0.130 A 
ATOM      2  C   LIG    1       -2.094  -0.304  -7.397  0.00  0.00    -0.040 A 
ATOM      3  C   LIG    1       -2.341   0.244  -6.156  0.00  0.00    +0.040 A 
ATOM      4  C   LIG    1       -3.275  -0.349  -5.304  0.00  0.00    -0.130 A 
ATOM      5  C   LIG    1       -3.966  -1.492  -5.716  0.00  0.00    +0.020 A 
ATOM      6  C   LIG    1       -3.718  -2.033  -6.962  0.00  0.00    +0.100 A 
ENDROOT
BRANCH   4   7
ATOM      7  C   LIG    1       -3.537   0.234  -3.973  0.00  0.00    +0.560 C 
ATOM      8  N   LIG    1       -2.520   0.735  -3.245  0.00  0.00    -0.600 N 
ATOM      9  C   LIG    1       -2.789   1.171  -1.861  0.00  0.00    +0.280 C 
ATOM     10  C   LIG    1       -2.086   2.499  -1.525  0.00  0.00    +0.040 C 
ATOM     11  C   LIG    1       -2.178   3.446  -2.696  0.00  0.00    +0.070 C 
ATOM     12  C   LIG    1       -0.949   3.273  -3.584  0.00  0.00    -0.420 C 
ATOM     13  C   LIG    1       -1.061   2.187  -4.569  0.00  0.00    +0.040 C 
ATOM     14  C   LIG    1       -1.211   0.823  -3.852  0.00  0.00    +0.300 C 
ATOM     15  O   LIG    1       -4.671   0.262  -3.534  0.00  0.00    -0.530 OA
BRANCH  12  16
ATOM     16  S   LIG    1       -0.656   4.828  -4.471  0.00  0.00    +2.410 S 
ATOM     17  O   LIG    1       -0.305   5.829  -3.525  0.00  0.00    -0.940 OA
ATOM     18  O   LIG    1       -1.746   5.058  -5.353  0.00  0.00    -0.930 OA
ATOM     19  C   LIG    1        0.812   4.426  -5.457  0.00  0.00    -0.270 C 
ENDBRANCH  12  16
ENDBRANCH   4   7
BRANCH   1  20
ATOM     20  O   LIG    1       -2.537  -1.972  -9.031  0.00  0.00    -0.300 OA
BRANCH  20  21
ATOM     21  C   LIG    1       -1.563  -1.314  -9.844  0.00  0.00    +0.170 C 
BRANCH  21  23
ATOM     22  C   LIG    1       -0.385  -1.348 -12.047  0.00  0.00    +0.040 C 
ATOM     23  C   LIG    1       -1.427  -2.053 -11.176  0.00  0.00    +0.020 C 
ENDBRANCH  21  23
ENDBRANCH  20  21
ENDBRANCH   1  20
BRANCH   6  24
ATOM     24  O   LIG    1       -4.388  -3.146  -7.367  0.00  0.00    -0.300 OA
BRANCH  24  25
ATOM     25  C   LIG    1       -5.334  -3.701  -6.451  0.00  0.00    +0.170 C 
BRANCH  25  26
ATOM     26  C   LIG    1       -5.983  -4.938  -7.076  0.00  0.00    +0.020 C 
ATOM     27  C   LIG    1       -6.996  -5.533  -6.096  0.00  0.00    +0.040 C 
ENDBRANCH  25  26
ENDBRANCH  24  25
ENDBRANCH   6  24
TORSDOF 8
