REMARK  Name = ZINCrD000006GB1E.0
REMARK                            x       y       z     vdW  Elec       q    Type
REMARK                         _______ _______ _______ _____ _____    ______ ____
ROOT
ATOM      1  N   LIG    1        0.002  -0.004   0.002  0.00  0.00    -0.510 N 
ATOM      2  H   LIG    1       -0.945  -0.353   0.009  0.00  0.00    +0.430 HD
ATOM      3  H   LIG    1        0.490  -0.338   0.820  0.00  0.00    +0.430 HD
ENDROOT
BRANCH   1   4
ATOM      4  C   LIG    1        0.690  -0.478  -1.207  0.00  0.00    +0.290 C 
BRANCH   4   5
ATOM      5  C   LIG    1        0.710  -2.008  -1.215  0.00  0.00    +0.160 C 
BRANCH   5  12
ATOM      6  C   LIG    1        3.042  -3.533  -6.545  0.00  0.00    -0.130 A 
ATOM      7  C   LIG    1        3.929  -4.290  -5.766  0.00  0.00    +0.100 A 
ATOM      8  C   LIG    1        3.825  -4.293  -4.406  0.00  0.00    -0.020 A 
ATOM      9  C   LIG    1        2.835  -3.543  -3.780  0.00  0.00    +0.060 A 
ATOM     10  N   LIG    1        2.483  -3.338  -2.464  0.00  0.00    -0.590 N 
ATOM     11  H   LIG    1        2.915  -3.726  -1.687  0.00  0.00    +0.420 HD
ATOM     12  C   LIG    1        1.416  -2.494  -2.455  0.00  0.00    +0.220 A 
ATOM     13  N   LIG    1        1.097  -2.163  -3.671  0.00  0.00    -0.470 NA
ATOM     14  C   LIG    1        1.936  -2.777  -4.545  0.00  0.00    +0.030 A 
ATOM     15  C   LIG    1        2.044  -2.776  -5.934  0.00  0.00    +0.110 A 
BRANCH   6  17
ATOM     16  O   LIG    1        2.392  -2.878  -8.694  0.00  0.00    -0.680 OA
ATOM     17  C   LIG    1        3.165  -3.538  -8.014  0.00  0.00    +0.520 C 
ATOM     18  O   LIG    1        4.040  -4.202  -8.552  0.00  0.00    -0.680 OA
ENDBRANCH   6  17
ENDBRANCH   5  12
ENDBRANCH   4   5
ENDBRANCH   1   4
BRANCH   1  19
ATOM     19  C   LIG    1       -0.018   1.465   0.010  0.00  0.00    +0.350 C 
BRANCH  19  20
ATOM     20  C   LIG    1       -0.723   1.951   1.250  0.00  0.00    -0.140 A 
ATOM     21  C   LIG    1       -2.087   2.168   1.228  0.00  0.00    +0.060 A 
ATOM     22  C   LIG    1       -2.737   2.610   2.371  0.00  0.00    +0.120 A 
ATOM     23  C   LIG    1       -2.013   2.844   3.531  0.00  0.00    +0.090 A 
ATOM     24  C   LIG    1       -0.648   2.630   3.546  0.00  0.00    -0.160 A 
ATOM     25  C   LIG    1       -0.004   2.184   2.408  0.00  0.00    +0.090 A 
BRANCH  24  26
ATOM     26  C   LIG    1        0.140   2.884   4.806  0.00  0.00    +0.510 C 
ATOM     27  F   LIG    1        1.242   2.023   4.848  0.00  0.00    -0.170 F 
ATOM     28  F   LIG    1       -0.675   2.652   5.920  0.00  0.00    -0.170 F 
ATOM     29  F   LIG    1        0.583   4.210   4.821  0.00  0.00    -0.170 F 
ENDBRANCH  24  26
BRANCH  22  30
ATOM     30  O   LIG    1       -4.079   2.820   2.353  0.00  0.00    -0.490 OA
ATOM     31  H   LIG    1       -4.334   3.717   2.096  0.00  0.00    +0.410 HD
ENDBRANCH  22  30
ENDBRANCH  19  20
ENDBRANCH   1  19
TORSDOF 8
