REMARK  Name = ZINCrH000004pxHM.0
REMARK                            x       y       z     vdW  Elec       q    Type
REMARK                         _______ _______ _______ _____ _____    ______ ____
ROOT
ATOM      1  C   LIG    1        2.860   8.240  -2.203  0.00  0.00    +0.520 C 
ATOM      2  N   LIG    1        1.798   8.383  -1.385  0.00  0.00    -0.610 N 
ATOM      3  C   LIG    1        0.715   9.301  -1.746  0.00  0.00    +0.280 C 
ATOM      4  O   LIG    1        3.715   7.418  -1.948  0.00  0.00    -0.510 OA
ENDROOT
BRANCH   1   6
ATOM      5  C   LIG    1        1.999   8.616  -4.497  0.00  0.00    +0.070 C 
ATOM      6  C   LIG    1        2.986   9.101  -3.433  0.00  0.00    +0.170 C 
BRANCH   6   7
ATOM      7  O   LIG    1        4.317   9.012  -3.943  0.00  0.00    -0.280 OA
BRANCH   7   8
ATOM      8  C   LIG    1        4.756  10.047  -4.707  0.00  0.00    +0.150 A 
ATOM      9  C   LIG    1        6.064  10.063  -5.170  0.00  0.00    +0.000 A 
ATOM     10  C   LIG    1        6.506  11.114  -5.951  0.00  0.00    +0.090 A 
ATOM     11  C   LIG    1        5.648  12.154  -6.263  0.00  0.00    -0.130 A 
ATOM     12  C   LIG    1        4.346  12.142  -5.798  0.00  0.00    +0.090 A 
ATOM     13 BR   LIG    1        6.258  13.594  -7.326  0.00  0.00    -0.050 Br
ATOM     14  C   LIG    1        3.898  11.091  -5.021  0.00  0.00    -0.070 A 
ENDBRANCH   7   8
ENDBRANCH   6   7
ENDBRANCH   1   6
BRANCH   2  15
ATOM     15  C   LIG    1        1.727   7.620  -0.136  0.00  0.00    +0.340 C 
BRANCH  15  16
ATOM     16  C   LIG    1        1.036   6.305  -0.389  0.00  0.00    -0.140 A 
ATOM     17  C   LIG    1        1.777   5.196  -0.754  0.00  0.00    +0.060 A 
ATOM     18  C   LIG    1        1.147   3.989  -0.986  0.00  0.00    -0.020 A 
ATOM     19  C   LIG    1       -0.232   3.890  -0.853  0.00  0.00    +0.120 A 
ATOM     20  C   LIG    1       -0.974   5.008  -0.491  0.00  0.00    -0.040 A 
ATOM     21  C   LIG    1       -0.337   6.210  -0.255  0.00  0.00    +0.040 A 
BRANCH  19  22
ATOM     22  N   LIG    1       -0.873   2.671  -1.087  0.00  0.00    -0.490 N 
ATOM     23  C   LIG    1       -2.325   2.792  -0.889  0.00  0.00    +0.160 C 
ATOM     24  C   LIG    1       -2.992   1.453  -1.214  0.00  0.00    +0.220 C 
ATOM     25  O   LIG    1       -2.417   0.430  -0.396  0.00  0.00    -0.380 OA
ATOM     26  C   LIG    1       -1.004   0.284  -0.564  0.00  0.00    +0.220 C 
ATOM     27  C   LIG    1       -0.317   1.611  -0.233  0.00  0.00    +0.160 C 
ENDBRANCH  19  22
ENDBRANCH  15  16
ENDBRANCH   2  15
TORSDOF 6
