REMARK  Name = ZINCbu0000000GKX.0
REMARK                            x       y       z     vdW  Elec       q    Type
REMARK                         _______ _______ _______ _____ _____    ______ ____
ROOT
ATOM      1  C   LIG    1        2.397   0.030  -0.021  0.00  0.00    -0.100 A 
ATOM      2  C   LIG    1        2.378   1.412  -0.013  0.00  0.00    +0.050 A 
ATOM      3  C   LIG    1        1.172   2.088   0.002  0.00  0.00    +0.060 A 
ATOM      4  C   LIG    1       -0.017   1.381   0.010  0.00  0.00    -0.020 A 
ATOM      5  C   LIG    1        0.002  -0.004   0.002  0.00  0.00    -0.030 A 
ATOM      6 CL   LIG    1       -1.489  -0.893   0.011  0.00  0.00    -0.030 Cl
ATOM      7 CL   LIG    1       -1.532   2.229   0.021  0.00  0.00    -0.030 Cl
ATOM      8  C   LIG    1        1.210  -0.678  -0.013  0.00  0.00    +0.060 A 
ENDROOT
BRANCH   1   9
ATOM      9  C   LIG    1        3.712  -0.705  -0.037  0.00  0.00    +0.100 C 
BRANCH   9  10
ATOM     10  C   LIG    1        4.144  -0.946  -1.485  0.00  0.00    +0.270 C 
BRANCH  10  11
ATOM     11  N   LIG    1        5.426  -1.663  -1.501  0.00  0.00    -0.640 N 
ATOM     12  H   LIG    1        6.126  -1.111  -1.029  0.00  0.00    +0.440 HD
ATOM     13  H   LIG    1        5.710  -1.822  -2.456  0.00  0.00    +0.440 HD
ATOM     14  H   LIG    1        5.322  -2.549  -1.029  0.00  0.00    +0.440 HD
ENDBRANCH  10  11
ENDBRANCH   9  10
ENDBRANCH   1   9
TORSDOF 3
