REMARK  Name = ZINCrg00001JduPq.0
REMARK                            x       y       z     vdW  Elec       q    Type
REMARK                         _______ _______ _______ _____ _____    ______ ____
ROOT
ATOM      1  C   LIG    1       -1.597   5.917   0.262  0.00  0.00    +0.510 C 
ATOM      2  N   LIG    1       -1.557   4.663  -0.230  0.00  0.00    -0.720 N 
ATOM      3  H   LIG    1       -2.036   4.446  -1.045  0.00  0.00    +0.410 HD
ATOM      4  O   LIG    1       -0.998   6.188   1.281  0.00  0.00    -0.510 OA
ENDROOT
BRANCH   2   5
ATOM      5  C   LIG    1       -0.790   3.627   0.466  0.00  0.00    +0.260 C 
ATOM      6  C   LIG    1        0.689   3.636   0.016  0.00  0.00    +0.060 C 
ATOM      7  C   LIG    1        1.078   2.174  -0.010  0.00  0.00    +0.520 C 
ATOM      8  N   LIG    1       -0.023   1.403   0.004  0.00  0.00    -0.530 N 
ATOM      9  O   LIG    1        2.217   1.759  -0.039  0.00  0.00    -0.520 OA
ATOM     10  C   LIG    1       -1.244   2.216   0.024  0.00  0.00    +0.290 C 
BRANCH   8  11
ATOM     11  C   LIG    1       -0.006  -0.005  -0.004  0.00  0.00    -0.000 A 
ATOM     12  C   LIG    1        1.100  -0.791  -0.033  0.00  0.00    +0.230 A 
ATOM     13  N   LIG    1        0.685  -2.084  -0.028  0.00  0.00    -0.370 N 
ATOM     14  N   LIG    1       -0.716  -2.086  -0.005  0.00  0.00    -0.280 NA
ATOM     15  C   LIG    1        1.548  -3.267  -0.049  0.00  0.00    +0.360 C 
ATOM     16  C   LIG    1       -1.129  -0.844   0.009  0.00  0.00    +0.230 A 
ENDBRANCH   8  11
ENDBRANCH   2   5
BRANCH   1  17
ATOM     17  C   LIG    1       -2.385   6.983  -0.455  0.00  0.00    +0.110 C 
BRANCH  17  23
ATOM     18  C   LIG    1       -1.182   9.122   0.067  0.00  0.00    +0.160 A 
ATOM     19  C   LIG    1       -1.077  10.321   0.760  0.00  0.00    +0.020 A 
ATOM     20  C   LIG    1       -2.051  10.677   1.673  0.00  0.00    +0.030 A 
ATOM     21  C   LIG    1       -3.129   9.841   1.897  0.00  0.00    -0.010 A 
ATOM     22  C   LIG    1       -3.240   8.649   1.205  0.00  0.00    +0.040 A 
ATOM     23  C   LIG    1       -2.267   8.285   0.295  0.00  0.00    -0.100 A 
BRANCH  18  25
ATOM     24  C   LIG    1        0.412   9.704  -1.599  0.00  0.00    +0.540 C 
ATOM     25  N   LIG    1       -0.198   8.759  -0.857  0.00  0.00    -0.670 N 
ATOM     26  H   LIG    1        0.045   7.826  -0.964  0.00  0.00    +0.410 HD
ATOM     27  O   LIG    1        0.166  10.880  -1.407  0.00  0.00    -0.520 OA
BRANCH  24  29
ATOM     28  C   LIG    1        1.977  10.248  -3.372  0.00  0.00    +0.160 C 
ATOM     29  C   LIG    1        1.375   9.314  -2.640  0.00  0.00    -0.090 C 
ENDBRANCH  24  29
ENDBRANCH  18  25
ENDBRANCH  17  23
ENDBRANCH   1  17
TORSDOF 6
