REMARK  Name = ZINCqH0000002X91.0
REMARK                            x       y       z     vdW  Elec       q    Type
REMARK                         _______ _______ _______ _____ _____    ______ ____
ROOT
ATOM      1  C   LIG    1       -3.356  -2.066  -1.437  0.00  0.00    -0.460 C 
ATOM      2  C   LIG    1       -3.134  -3.299  -0.558  0.00  0.00    +0.130 C 
ENDROOT
BRANCH   1   4
ATOM      3  N   LIG    1       -5.224  -2.688  -2.935  0.00  0.00    -0.560 N 
ATOM      4  C   LIG    1       -3.899  -2.495  -2.775  0.00  0.00    +0.550 C 
ATOM      5  O   LIG    1       -3.145  -2.667  -3.709  0.00  0.00    -0.500 OA
BRANCH   3   6
ATOM      6  C   LIG    1       -5.738  -3.003  -4.198  0.00  0.00    +0.140 A 
ATOM      7  C   LIG    1       -5.520  -2.149  -5.271  0.00  0.00    +0.010 A 
ATOM      8  C   LIG    1       -6.025  -2.465  -6.517  0.00  0.00    +0.030 A 
ATOM      9  C   LIG    1       -6.755  -3.626  -6.694  0.00  0.00    +0.010 A 
ATOM     10  C   LIG    1       -6.977  -4.477  -5.627  0.00  0.00    +0.020 A 
ATOM     11  C   LIG    1       -6.471  -4.169  -4.379  0.00  0.00    +0.000 A 
ENDBRANCH   3   6
BRANCH   3  13
ATOM     12  C   LIG    1       -6.609  -1.121  -1.668  0.00  0.00    +0.030 C 
ATOM     13  C   LIG    1       -6.125  -2.567  -1.787  0.00  0.00    +0.270 C 
ENDBRANCH   3  13
ENDBRANCH   1   4
BRANCH   1  14
ATOM     14  S   LIG    1       -1.780  -1.200  -1.673  0.00  0.00    +2.430 S 
ATOM     15  O   LIG    1       -0.863  -2.091  -2.293  0.00  0.00    -0.900 OA
ATOM     16  O   LIG    1       -2.042   0.059  -2.277  0.00  0.00    -0.910 OA
BRANCH  14  17
ATOM     17  C   LIG    1       -1.246  -0.920   0.038  0.00  0.00    -0.260 C 
BRANCH  17  18
ATOM     18  C   LIG    1        0.075  -0.196   0.040  0.00  0.00    -0.120 A 
ATOM     19  C   LIG    1        1.256  -0.912   0.032  0.00  0.00    +0.100 A 
ATOM     20  C   LIG    1        2.470  -0.247   0.034  0.00  0.00    -0.070 A 
ATOM     21  C   LIG    1        2.503   1.136   0.043  0.00  0.00    +0.090 A 
ATOM     22  C   LIG    1        1.324   1.856   0.050  0.00  0.00    -0.050 A 
ATOM     23 CL   LIG    1        3.953  -1.150   0.024  0.00  0.00    -0.060 Cl
ATOM     24  C   LIG    1        0.106   1.191   0.049  0.00  0.00    +0.150 A 
BRANCH  24  25
ATOM     25  O   LIG    1       -1.055   1.898   0.050  0.00  0.00    -0.300 OA
ATOM     26  C   LIG    1       -0.947   3.323   0.059  0.00  0.00    +0.250 C 
ENDBRANCH  24  25
ENDBRANCH  17  18
ENDBRANCH  14  17
ENDBRANCH   1  14
TORSDOF 7
