REMARK  Name = ZINCpk00000xI7gB.0
REMARK                            x       y       z     vdW  Elec       q    Type
REMARK                         _______ _______ _______ _____ _____    ______ ____
ROOT
ATOM      1  N   LIG    1        4.135  -0.294   2.602  0.00  0.00    -0.720 N 
ATOM      2  H   LIG    1        3.713  -0.805   1.894  0.00  0.00    +0.410 HD
ATOM      3  C   LIG    1        4.674  -0.929   3.662  0.00  0.00    +0.500 C 
ATOM      4  O   LIG    1        5.202  -0.290   4.548  0.00  0.00    -0.510 OA
ENDROOT
BRANCH   3   5
ATOM      5  C   LIG    1        4.621  -2.433   3.746  0.00  0.00    +0.250 C 
ATOM      6  C   LIG    1        3.148  -2.882   3.637  0.00  0.00    +0.170 C 
ATOM      7  S   LIG    1        3.072  -4.219   4.904  0.00  0.00    -0.240 S 
ATOM      8  C   LIG    1        4.320  -3.412   5.980  0.00  0.00    +0.170 C 
ATOM      9  C   LIG    1        5.126  -4.472   6.749  0.00  0.00    +0.090 C 
ATOM     10  C   LIG    1        6.534  -3.826   6.734  0.00  0.00    +0.080 C 
ATOM     11  C   LIG    1        6.526  -2.936   5.513  0.00  0.00    +0.550 C 
ATOM     12  O   LIG    1        7.500  -2.370   5.063  0.00  0.00    -0.500 OA
ATOM     13  C   LIG    1        3.725  -2.343   6.899  0.00  0.00    +0.070 C 
ATOM     14  N   LIG    1        5.275  -2.857   4.989  0.00  0.00    -0.610 N 
ENDBRANCH   3   5
BRANCH   1  15
ATOM     15  C   LIG    1        4.186   1.168   2.521  0.00  0.00    +0.270 C 
BRANCH  15  16
ATOM     16  C   LIG    1        3.509   1.631   1.229  0.00  0.00    +0.090 C 
ATOM     17  C   LIG    1        3.562   3.157   1.144  0.00  0.00    +0.020 C 
ATOM     18  C   LIG    1        4.237   1.026   0.027  0.00  0.00    +0.050 C 
BRANCH  16  22
ATOM     19  C   LIG    1       -0.754   1.593  -1.230  0.00  0.00    +0.050 C 
ATOM     20  C   LIG    1       -0.013   1.086   0.008  0.00  0.00    +0.160 C 
ATOM     21  C   LIG    1        1.423   1.617  -0.003  0.00  0.00    +0.160 C 
ATOM     22  N   LIG    1        2.108   1.189   1.226  0.00  0.00    -0.520 NA
ATOM     23  C   LIG    1        1.398   1.680   2.416  0.00  0.00    +0.160 C 
ATOM     24  C   LIG    1       -0.038   1.149   2.402  0.00  0.00    +0.150 C 
ATOM     25  C   LIG    1       -0.806   1.721   3.595  0.00  0.00    +0.050 C 
ATOM     26  O   LIG    1       -0.677   1.548   1.187  0.00  0.00    -0.380 OA
ENDBRANCH  16  22
ENDBRANCH  15  16
ENDBRANCH   1  15
TORSDOF 4
