REMARK  Name = ZINCrD000000Axcb.0
REMARK                            x       y       z     vdW  Elec       q    Type
REMARK                         _______ _______ _______ _____ _____    ______ ____
ROOT
ATOM      1  O   LIG    1       -1.603  -4.385  -0.860  0.00  0.00    -0.520 OA
ATOM      2  C   LIG    1       -0.442  -4.184  -1.147  0.00  0.00    +0.520 C 
ATOM      3  N   LIG    1        0.308  -3.364  -0.385  0.00  0.00    -0.720 N 
ATOM      4  H   LIG    1        1.237  -3.203  -0.614  0.00  0.00    +0.400 HD
ENDROOT
BRANCH   3   5
ATOM      5  C   LIG    1       -0.279  -2.714   0.790  0.00  0.00    +0.330 C 
BRANCH   5   6
ATOM      6  C   LIG    1        0.761  -1.857   1.462  0.00  0.00    -0.140 A 
ATOM      7  C   LIG    1        1.565  -2.399   2.450  0.00  0.00    +0.120 A 
ATOM      8  C   LIG    1        2.522  -1.608   3.068  0.00  0.00    -0.020 A 
ATOM      9  C   LIG    1        2.663  -0.289   2.694  0.00  0.00    +0.040 A 
ATOM     10  C   LIG    1        1.855   0.257   1.704  0.00  0.00    -0.090 A 
ATOM     11  C   LIG    1        2.061   1.707   1.353  0.00  0.00    +0.080 C 
ATOM     12  C   LIG    1        1.430   2.026  -0.001  0.00  0.00    +0.020 C 
ATOM     13  C   LIG    1       -0.019   1.523   0.010  0.00  0.00    +0.020 C 
ATOM     14  C   LIG    1        0.002  -0.004   0.002  0.00  0.00    +0.070 C 
ATOM     15  C   LIG    1        0.906  -0.528   1.087  0.00  0.00    -0.040 A 
BRANCH   7  16
ATOM     16  O   LIG    1        1.416  -3.700   2.814  0.00  0.00    -0.490 OA
ATOM     17  H   LIG    1        0.781  -3.839   3.530  0.00  0.00    +0.390 HD
ENDBRANCH   7  16
ENDBRANCH   5   6
ENDBRANCH   3   5
BRANCH   2  18
ATOM     18  C   LIG    1        0.162  -4.852  -2.355  0.00  0.00    +0.080 C 
BRANCH  18  19
ATOM     19  C   LIG    1       -0.894  -5.723  -3.038  0.00  0.00    +0.080 C 
ATOM     20  S   LIG    1       -2.220  -4.669  -3.698  0.00  0.00    -0.040 S 
ATOM     21  C   LIG    1       -1.435  -3.956  -5.115  0.00  0.00    -0.140 A 
ATOM     22  C   LIG    1       -1.805  -2.693  -5.549  0.00  0.00    +0.080 A 
ATOM     23  C   LIG    1       -1.212  -2.147  -6.673  0.00  0.00    +0.000 A 
ATOM     24  C   LIG    1       -0.254  -2.866  -7.364  0.00  0.00    +0.050 A 
ATOM     25  C   LIG    1        0.123  -4.123  -6.932  0.00  0.00    -0.010 A 
ATOM     26  C   LIG    1       -0.451  -4.676  -5.793  0.00  0.00    +0.160 A 
ATOM     27  N   LIG    1       -0.051  -5.942  -5.375  0.00  0.00    -0.650 N 
ATOM     28  H   LIG    1        0.432  -6.484  -6.019  0.00  0.00    +0.410 HD
ATOM     29  C   LIG    1       -0.265  -6.480  -4.178  0.00  0.00    +0.530 C 
ATOM     30  O   LIG    1        0.061  -7.634  -3.996  0.00  0.00    -0.510 OA
ENDBRANCH  18  19
ENDBRANCH   2  18
TORSDOF 5
