REMARK  Name = ZINCvU0000000JFK.0
REMARK                            x       y       z     vdW  Elec       q    Type
REMARK                         _______ _______ _______ _____ _____    ______ ____
ROOT
ATOM      1  O   LIG    1       -5.029  -1.517   5.690  0.00  0.00    -0.500 OA
ATOM      2  C   LIG    1       -5.803  -0.784   6.269  0.00  0.00    +0.490 C 
ATOM      3  N   LIG    1       -6.023   0.464   5.808  0.00  0.00    -0.670 N 
ATOM      4  H   LIG    1       -6.691   1.026   6.230  0.00  0.00    +0.410 HD
ENDROOT
BRANCH   3   5
ATOM      5  C   LIG    1       -5.286   0.948   4.720  0.00  0.00    +0.100 A 
ATOM      6  C   LIG    1       -4.931   0.093   3.685  0.00  0.00    +0.070 A 
ATOM      7  C   LIG    1       -4.204   0.571   2.613  0.00  0.00    -0.060 A 
ATOM      8  C   LIG    1       -3.828   1.905   2.569  0.00  0.00    +0.120 A 
ATOM      9  C   LIG    1       -4.177   2.759   3.605  0.00  0.00    +0.000 A 
ATOM     10  C   LIG    1       -4.909   2.284   4.675  0.00  0.00    +0.030 A 
BRANCH   8  11
ATOM     11  O   LIG    1       -3.112   2.375   1.513  0.00  0.00    -0.310 OA
BRANCH  11  12
ATOM     12  C   LIG    1       -2.883   1.471   0.431  0.00  0.00    +0.160 C 
ATOM     13  C   LIG    1       -1.581   0.658   0.664  0.00  0.00    +0.000 C 
ATOM     14  C   LIG    1       -1.183   0.238  -0.772  0.00  0.00    +0.020 C 
ATOM     15  C   LIG    1       -1.534   1.464  -1.639  0.00  0.00    +0.020 C 
ATOM     16  C   LIG    1       -2.615   2.248  -0.875  0.00  0.00    +0.030 C 
ENDBRANCH  11  12
ENDBRANCH   8  11
ENDBRANCH   3   5
BRANCH   2  17
ATOM     17  C   LIG    1       -6.519  -1.268   7.504  0.00  0.00    +0.330 C 
BRANCH  17  18
ATOM     18  N   LIG    1       -6.112  -2.644   7.796  0.00  0.00    -0.520 N 
ATOM     19  C   LIG    1       -6.821  -3.704   7.258  0.00  0.00    +0.220 A 
ATOM     20  C   LIG    1       -8.153  -3.569   6.897  0.00  0.00    -0.050 A 
ATOM     21  C   LIG    1       -8.829  -4.641   6.351  0.00  0.00    +0.080 A 
ATOM     22  C   LIG    1       -8.189  -5.856   6.152  0.00  0.00    -0.030 A 
ATOM     23  C   LIG    1       -6.865  -6.013   6.501  0.00  0.00    +0.110 A 
ATOM     24  C   LIG    1       -6.172  -4.940   7.056  0.00  0.00    -0.200 A 
ATOM     25  C   LIG    1       -4.753  -5.054   7.455  0.00  0.00    +0.440 A 
ATOM     26  C   LIG    1       -4.299  -4.084   8.474  0.00  0.00    -0.200 A 
ATOM     27  C   LIG    1       -3.193  -4.336   9.282  0.00  0.00    +0.110 A 
ATOM     28  C   LIG    1       -2.817  -3.403  10.225  0.00  0.00    -0.030 A 
ATOM     29  C   LIG    1       -3.534  -2.224  10.370  0.00  0.00    +0.080 A 
ATOM     30  C   LIG    1       -4.628  -1.960   9.574  0.00  0.00    -0.050 A 
ATOM     31  O   LIG    1       -4.009  -5.890   6.975  0.00  0.00    -0.450 OA
ATOM     32  C   LIG    1       -5.023  -2.885   8.614  0.00  0.00    +0.220 A 
ENDBRANCH  17  18
ENDBRANCH   2  17
TORSDOF 5
