REMARK  Name = ZINCrH000004uG93.0
REMARK                            x       y       z     vdW  Elec       q    Type
REMARK                         _______ _______ _______ _____ _____    ______ ____
ROOT
ATOM      1  C   LIG    1        5.008  -2.424  -0.061  0.00  0.00    +0.020 C 
ATOM      2  N   LIG    1        3.775  -2.033  -0.046  0.00  0.00    -0.180 NA
ATOM      3  N   LIG    1        3.619  -0.648  -0.036  0.00  0.00    -0.450 N 
ATOM      4  C   LIG    1        4.949  -0.019  -0.052  0.00  0.00    +0.260 C 
ATOM      5  C   LIG    1        5.919  -1.217  -0.063  0.00  0.00    +0.120 C 
ENDROOT
BRANCH   4   6
ATOM      6  C   LIG    1        5.125   0.819  -1.292  0.00  0.00    -0.100 A 
ATOM      7  C   LIG    1        4.623   0.377  -2.502  0.00  0.00    +0.030 A 
ATOM      8  C   LIG    1        4.779   1.148  -3.638  0.00  0.00    +0.000 A 
ATOM      9  C   LIG    1        5.447   2.356  -3.567  0.00  0.00    +0.010 A 
ATOM     10  C   LIG    1        5.954   2.796  -2.358  0.00  0.00    +0.010 A 
ATOM     11  C   LIG    1        5.792   2.027  -1.220  0.00  0.00    +0.020 A 
ENDBRANCH   4   6
BRANCH   3  12
ATOM     12  C   LIG    1        2.400   0.031  -0.021  0.00  0.00    +0.220 A 
ATOM     13  C   LIG    1        1.206  -0.680  -0.013  0.00  0.00    -0.030 A 
ATOM     14  C   LIG    1        0.002  -0.004   0.002  0.00  0.00    +0.050 A 
ATOM     15  C   LIG    1       -0.017   1.379   0.010  0.00  0.00    -0.040 A 
ATOM     16  C   LIG    1        1.169   2.090   0.002  0.00  0.00    +0.050 A 
ATOM     17  C   LIG    1        2.377   1.421  -0.013  0.00  0.00    -0.040 A 
ENDBRANCH   3  12
BRANCH   1  19
ATOM     18  O   LIG    1        6.642  -4.077  -0.088  0.00  0.00    -0.520 OA
ATOM     19  C   LIG    1        5.453  -3.818  -0.074  0.00  0.00    +0.600 C 
ATOM     20  N   LIG    1        4.545  -4.815  -0.071  0.00  0.00    -0.710 N 
ATOM     21  H   LIG    1        3.598  -4.608  -0.060  0.00  0.00    +0.410 HD
BRANCH  20  22
ATOM     22  C   LIG    1        4.990  -6.210  -0.084  0.00  0.00    +0.340 C 
BRANCH  22  23
ATOM     23  C   LIG    1        3.789  -7.121  -0.078  0.00  0.00    -0.170 A 
ATOM     24  C   LIG    1        3.246  -7.557   1.121  0.00  0.00    +0.090 A 
ATOM     25  C   LIG    1        2.137  -8.388   1.078  0.00  0.00    -0.030 A 
ATOM     26  C   LIG    1        1.622  -8.762  -0.148  0.00  0.00    +0.270 A 
ATOM     27  N   LIG    1        2.169  -8.333  -1.269  0.00  0.00    -0.480 NA
ATOM     28  C   LIG    1        3.220  -7.536  -1.267  0.00  0.00    +0.280 A 
ENDBRANCH  22  23
ENDBRANCH  20  22
ENDBRANCH   1  19
TORSDOF 5
