REMARK  Name = ZINCpk00000y6u0l.0
REMARK                            x       y       z     vdW  Elec       q    Type
REMARK                         _______ _______ _______ _____ _____    ______ ____
ROOT
ATOM      1  C   LIG    1        3.563   0.810  -0.028  0.00  0.00    +0.340 C 
ATOM      2  C   LIG    1        4.067   1.172   1.370  0.00  0.00    -0.010 C 
ATOM      3  C   LIG    1        5.573   1.452   1.292  0.00  0.00    +0.050 C 
ATOM      4  C   LIG    1        5.785   2.732   0.479  0.00  0.00    +0.080 C 
ATOM      5  C   LIG    1        5.000   2.661  -0.799  0.00  0.00    +0.520 C 
ATOM      6  O   LIG    1        5.296   3.420  -1.697  0.00  0.00    -0.540 OA
ATOM      7  N   LIG    1        3.995   1.808  -0.999  0.00  0.00    -0.590 N 
ATOM      8  C   LIG    1        3.279   1.878  -2.275  0.00  0.00    +0.290 C 
ENDROOT
BRANCH   1  14
ATOM      9  C   LIG    1        1.827  -1.756  -0.025  0.00  0.00    +0.320 C 
ATOM     10  N   LIG    1        1.317  -0.382  -0.013  0.00  0.00    -0.450 N 
ATOM     11  C   LIG    1        0.002  -0.004   0.002  0.00  0.00    +0.140 A 
ATOM     12  C   LIG    1       -0.016   1.343   0.009  0.00  0.00    +0.140 A 
ATOM     13  N   LIG    1        1.254   1.775  -0.000  0.00  0.00    -0.470 NA
ATOM     14  C   LIG    1        2.058   0.747  -0.014  0.00  0.00    +0.180 A 
ENDBRANCH   1  14
BRANCH   2  15
ATOM     15  C   LIG    1        3.811   0.005   2.326  0.00  0.00    +0.270 C 
BRANCH  15  16
ATOM     16  N   LIG    1        4.184   0.398   3.687  0.00  0.00    -0.730 N 
ATOM     17  H   LIG    1        4.533   1.287   3.857  0.00  0.00    +0.400 HD
ATOM     18  C   LIG    1        4.044  -0.476   4.703  0.00  0.00    +0.520 C 
ATOM     19  O   LIG    1        3.608  -1.588   4.491  0.00  0.00    -0.510 OA
BRANCH  18  20
ATOM     20  C   LIG    1        4.428  -0.072   6.103  0.00  0.00    +0.200 C 
BRANCH  20  21
ATOM     21  O   LIG    1        4.189  -1.162   6.996  0.00  0.00    -0.360 OA
BRANCH  21  22
ATOM     22  C   LIG    1        4.522  -0.883   8.357  0.00  0.00    +0.150 C 
ATOM     23  C   LIG    1        5.975  -1.312   8.645  0.00  0.00    +0.000 C 
ATOM     24  C   LIG    1        5.927  -1.871  10.089  0.00  0.00    +0.020 C 
ATOM     25  C   LIG    1        4.565  -2.607  10.126  0.00  0.00    +0.020 C 
ATOM     26  C   LIG    1        3.625  -1.705   9.299  0.00  0.00    +0.030 C 
ENDBRANCH  21  22
ENDBRANCH  20  21
ENDBRANCH  18  20
ENDBRANCH  15  16
ENDBRANCH   2  15
TORSDOF 6
