REMARK  Name = ZINCrg000009DGvv.0
REMARK                            x       y       z     vdW  Elec       q    Type
REMARK                         _______ _______ _______ _____ _____    ______ ____
ROOT
ATOM      1  N   LIG    1        4.979   3.439  -1.677  0.00  0.00    -0.660 N 
ATOM      2  H   LIG    1        5.459   3.863  -0.948  0.00  0.00    +0.420 HD
ATOM      3  C   LIG    1        3.906   2.666  -1.419  0.00  0.00    +0.500 C 
ATOM      4  O   LIG    1        3.258   2.204  -2.334  0.00  0.00    -0.500 OA
ENDROOT
BRANCH   1   7
ATOM      5  C   LIG    1        7.172   3.939  -4.593  0.00  0.00    +0.130 A 
ATOM      6  C   LIG    1        6.755   3.753  -3.283  0.00  0.00    +0.040 A 
ATOM      7  C   LIG    1        5.402   3.632  -2.998  0.00  0.00    +0.150 A 
ATOM      8  C   LIG    1        4.468   3.708  -4.022  0.00  0.00    +0.050 A 
ATOM      9  C   LIG    1        4.884   3.898  -5.327  0.00  0.00    +0.030 A 
ATOM     10  C   LIG    1        6.231   4.014  -5.616  0.00  0.00    +0.060 A 
ATOM     11  F   LIG    1        6.635   4.199  -6.891  0.00  0.00    -0.140 F 
BRANCH   5  13
ATOM     12  C   LIG    1        9.440   3.353  -4.175  0.00  0.00    +0.550 C 
ATOM     13  N   LIG    1        8.535   4.056  -4.885  0.00  0.00    -0.670 N 
ATOM     14  H   LIG    1        8.830   4.644  -5.598  0.00  0.00    +0.420 HD
ATOM     15  O   LIG    1        9.079   2.680  -3.228  0.00  0.00    -0.520 OA
BRANCH  12  17
ATOM     16  C   LIG    1       11.755   2.705  -3.844  0.00  0.00    +0.160 C 
ATOM     17  C   LIG    1       10.862   3.399  -4.545  0.00  0.00    -0.090 C 
ENDBRANCH  12  17
ENDBRANCH   5  13
ENDBRANCH   1   7
BRANCH   3  18
ATOM     18  C   LIG    1        3.512   2.375   0.006  0.00  0.00    +0.360 C 
BRANCH  18  19
ATOM     19  N   LIG    1        2.323   1.520   0.019  0.00  0.00    -0.530 N 
ATOM     20  C   LIG    1        1.087   2.080   0.029  0.00  0.00    +0.630 A 
ATOM     21  N   LIG    1       -0.009   1.380   0.040  0.00  0.00    -0.530 NA
ATOM     22  C   LIG    1        0.007   0.038   0.043  0.00  0.00    +0.330 A 
ATOM     23  C   LIG    1        1.240  -0.632   0.033  0.00  0.00    -0.340 A 
ATOM     24  C   LIG    1        0.966  -2.012   0.038  0.00  0.00    +0.330 A 
ATOM     25  N   LIG    1       -0.328  -2.173   0.051  0.00  0.00    -0.270 NA
ATOM     26  N   LIG    1       -0.955  -0.921   0.054  0.00  0.00    -0.350 N 
ATOM     27  C   LIG    1       -2.401  -0.685   0.067  0.00  0.00    +0.380 C 
ATOM     28  C   LIG    1        2.462   0.173   0.020  0.00  0.00    +0.580 A 
ATOM     29  O   LIG    1        3.562  -0.349   0.011  0.00  0.00    -0.510 OA
ENDBRANCH  18  19
ENDBRANCH   3  18
TORSDOF 5
