REMARK  Name = ZINCkj00000a7Swv.0
REMARK                            x       y       z     vdW  Elec       q    Type
REMARK                         _______ _______ _______ _____ _____    ______ ____
ROOT
ATOM      1  O   LIG    1        2.453   4.093  -0.101  0.00  0.00    -0.450 OA
ATOM      2  C   LIG    1        3.523   3.522  -0.114  0.00  0.00    +0.530 C 
ATOM      3  N   LIG    1        3.570   2.178  -0.020  0.00  0.00    -0.660 N 
ATOM      4  H   LIG    1        4.425   1.726   0.046  0.00  0.00    +0.410 HD
ENDROOT
BRANCH   3   5
ATOM      5  C   LIG    1        2.384   1.435  -0.019  0.00  0.00    +0.110 A 
ATOM      6  C   LIG    1        1.306   1.868  -0.759  0.00  0.00    +0.060 A 
ATOM      7  C   LIG    1        0.120   1.118  -0.754  0.00  0.00    -0.090 A 
ATOM      8  C   LIG    1       -1.005   1.525  -1.496  0.00  0.00    +0.080 A 
ATOM      9  C   LIG    1       -2.127   0.748  -1.444  0.00  0.00    -0.010 A 
ATOM     10  C   LIG    1       -2.134  -0.411  -0.672  0.00  0.00    +0.310 A 
ATOM     11  N   LIG    1       -1.085  -0.787   0.018  0.00  0.00    -0.470 NA
ATOM     12  C   LIG    1        0.045  -0.072   0.011  0.00  0.00    +0.120 A 
ATOM     13  C   LIG    1        1.165  -0.484   0.755  0.00  0.00    +0.090 A 
ATOM     14  C   LIG    1        2.304   0.258   0.735  0.00  0.00    +0.020 A 
ENDBRANCH   3   5
BRANCH   2  15
ATOM     15  C   LIG    1        4.799   4.313  -0.236  0.00  0.00    -0.010 C 
ATOM     16  C   LIG    1        5.512   4.697   1.099  0.00  0.00    +0.290 C 
ATOM     17  O   LIG    1        6.344   5.829   0.776  0.00  0.00    -0.340 OA
ATOM     18  C   LIG    1        6.206   6.076  -0.651  0.00  0.00    +0.270 C 
ATOM     19  C   LIG    1        6.850   4.823  -1.321  0.00  0.00    +0.270 C 
ATOM     20  C   LIG    1        4.687   5.745  -0.874  0.00  0.00    +0.130 C 
ATOM     21  N   LIG    1        5.890   3.697  -1.058  0.00  0.00    -0.520 N 
ATOM     22  H   LIG    1        5.514   3.337  -1.921  0.00  0.00    +0.430 HD
ATOM     23  H   LIG    1        6.343   2.961  -0.538  0.00  0.00    +0.430 HD
ENDBRANCH   2  15
TORSDOF 2
