REMARK  Name = ZINCrD000000ADe1.0
REMARK                            x       y       z     vdW  Elec       q    Type
REMARK                         _______ _______ _______ _____ _____    ______ ____
ROOT
ATOM      1  O   LIG    1       -1.998  -0.104   0.958  0.00  0.00    -0.510 OA
ATOM      2  C   LIG    1       -1.042  -0.695   0.502  0.00  0.00    +0.510 C 
ATOM      3  N   LIG    1        0.002  -0.004   0.002  0.00  0.00    -0.720 N 
ATOM      4  H   LIG    1        0.766  -0.477  -0.363  0.00  0.00    +0.400 HD
ENDROOT
BRANCH   3   5
ATOM      5  C   LIG    1       -0.018   1.461   0.010  0.00  0.00    +0.380 C 
BRANCH   5   6
ATOM      6  C   LIG    1        1.396   1.982  -0.001  0.00  0.00    -0.090 A 
ATOM      7  C   LIG    1        2.356   1.362  -0.778  0.00  0.00    +0.010 A 
ATOM      8  C   LIG    1        3.652   1.843  -0.791  0.00  0.00    +0.020 A 
ATOM      9  C   LIG    1        3.990   2.939  -0.020  0.00  0.00    +0.020 A 
ATOM     10  C   LIG    1        3.031   3.556   0.762  0.00  0.00    +0.020 A 
ATOM     11  C   LIG    1        1.734   3.078   0.772  0.00  0.00    +0.030 A 
ENDBRANCH   5   6
BRANCH   5  12
ATOM     12  C   LIG    1       -0.747   1.960  -1.211  0.00  0.00    -0.190 A 
ATOM     13  C   LIG    1       -1.595   2.989  -1.233  0.00  0.00    +0.020 A 
ATOM     14  C   LIG    1       -2.143   3.267  -2.473  0.00  0.00    +0.010 A 
ATOM     15  C   LIG    1       -1.747   2.457  -3.457  0.00  0.00    -0.040 A 
ATOM     16  S   LIG    1       -0.614   1.270  -2.823  0.00  0.00    +0.110 S 
ENDBRANCH   5  12
ENDBRANCH   3   5
BRANCH   2  17
ATOM     17  C   LIG    1       -1.021  -2.202   0.493  0.00  0.00    +0.340 C 
BRANCH  17  18
ATOM     18  N   LIG    1       -2.261  -2.710   1.086  0.00  0.00    -0.500 N 
ATOM     19  C   LIG    1       -3.343  -2.949   0.314  0.00  0.00    +0.500 A 
ATOM     20  C   LIG    1       -4.569  -3.459   0.938  0.00  0.00    +0.300 A 
ATOM     21  N   LIG    1       -4.610  -3.677   2.221  0.00  0.00    -0.400 NA
ATOM     22  C   LIG    1       -3.537  -3.442   3.000  0.00  0.00    +0.020 A 
ATOM     23  C   LIG    1       -3.604  -3.685   4.381  0.00  0.00    +0.110 A 
ATOM     24  C   LIG    1       -2.515  -3.446   5.168  0.00  0.00    -0.010 A 
ATOM     25  C   LIG    1       -1.336  -2.962   4.618  0.00  0.00    +0.090 A 
ATOM     26  C   LIG    1       -1.244  -2.716   3.265  0.00  0.00    -0.030 A 
ATOM     27  O   LIG    1       -3.302  -2.744  -0.886  0.00  0.00    -0.510 OA
ATOM     28  C   LIG    1       -2.339  -2.958   2.442  0.00  0.00    +0.160 A 
ENDBRANCH  17  18
ENDBRANCH   2  17
TORSDOF 5
