REMARK  Name = ZINCpk00000y6vpI.0
REMARK                            x       y       z     vdW  Elec       q    Type
REMARK                         _______ _______ _______ _____ _____    ______ ____
ROOT
ATOM      1  C   LIG    1        3.569   0.688  -0.144  0.00  0.00    +0.340 C 
ATOM      2  C   LIG    1        4.230   0.976   1.208  0.00  0.00    +0.030 C 
ATOM      3  C   LIG    1        5.749   1.036   1.026  0.00  0.00    -0.010 C 
ATOM      4  C   LIG    1        6.104   2.172   0.063  0.00  0.00    +0.020 C 
ATOM      5  C   LIG    1        5.463   1.898  -1.302  0.00  0.00    +0.280 C 
ATOM      6  C   LIG    1        6.415   1.289   2.380  0.00  0.00    +0.030 C 
ATOM      7  N   LIG    1        4.020   1.694  -1.115  0.00  0.00    -0.600 N 
ATOM      8  C   LIG    1        3.128   2.417  -1.820  0.00  0.00    +0.570 C 
ATOM      9  O   LIG    1        1.939   2.305  -1.592  0.00  0.00    -0.470 OA
ENDROOT
BRANCH   8  10
ATOM     10  C   LIG    1        3.593   3.342  -2.868  0.00  0.00    +0.000 A 
ATOM     11  C   LIG    1        3.802   2.895  -4.143  0.00  0.00    +0.110 A 
ATOM     12  C   LIG    1        4.262   3.865  -5.156  0.00  0.00    +0.560 A 
ATOM     13  N   LIG    1        4.469   5.145  -4.784  0.00  0.00    -0.650 N 
ATOM     14  H   LIG    1        4.775   5.792  -5.439  0.00  0.00    +0.440 HD
ATOM     15  C   LIG    1        4.254   5.533  -3.515  0.00  0.00    +0.700 A 
ATOM     16  O   LIG    1        4.449   6.695  -3.213  0.00  0.00    -0.540 OA
ATOM     17  O   LIG    1        4.457   3.515  -6.304  0.00  0.00    -0.490 OA
ATOM     18  N   LIG    1        3.830   4.676  -2.572  0.00  0.00    -0.610 N 
ATOM     19  H   LIG    1        3.687   4.996  -1.667  0.00  0.00    +0.440 HD
BRANCH  11  20
ATOM     20  N   LIG    1        3.582   1.567  -4.477  0.00  0.00    -0.830 N 
ATOM     21  H   LIG    1        3.661   1.279  -5.399  0.00  0.00    +0.420 HD
ATOM     22  H   LIG    1        3.348   0.925  -3.787  0.00  0.00    +0.410 HD
ENDBRANCH  11  20
ENDBRANCH   8  10
BRANCH   1  26
ATOM     23  C   LIG    1        0.066   1.528   0.453  0.00  0.00    +0.010 A 
ATOM     24  C   LIG    1       -0.092   0.279  -0.020  0.00  0.00    -0.070 A 
ATOM     25  C   LIG    1        1.201  -0.215  -0.311  0.00  0.00    -0.070 A 
ATOM     26  C   LIG    1        2.071   0.762   0.001  0.00  0.00    +0.010 A 
ATOM     27  O   LIG    1        1.378   1.816   0.463  0.00  0.00    -0.150 OA
BRANCH  23  29
ATOM     28  C   LIG    1       -1.321   2.244   2.380  0.00  0.00    +0.030 C 
ATOM     29  C   LIG    1       -1.042   2.451   0.890  0.00  0.00    +0.130 C 
ENDBRANCH  23  29
ENDBRANCH   1  26
TORSDOF 4
