REMARK  Name = ZINCrD000000BpeJ.0
REMARK                            x       y       z     vdW  Elec       q    Type
REMARK                         _______ _______ _______ _____ _____    ______ ____
ROOT
ATOM      1  O   LIG    1       -0.933   9.722  -3.650  0.00  0.00    -0.510 OA
ATOM      2  C   LIG    1       -1.539   8.907  -2.981  0.00  0.00    +0.590 C 
ATOM      3  N   LIG    1       -0.956   7.737  -2.652  0.00  0.00    -0.720 N 
ATOM      4  H   LIG    1       -1.439   7.087  -2.119  0.00  0.00    +0.400 HD
ENDROOT
BRANCH   2   5
ATOM      5  C   LIG    1       -2.910   9.197  -2.531  0.00  0.00    -0.040 A 
ATOM      6  C   LIG    1       -3.636  10.345  -2.781  0.00  0.00    +0.040 A 
ATOM      7  C   LIG    1       -4.879  10.145  -2.148  0.00  0.00    +0.100 A 
ATOM      8  N   LIG    1       -4.844   8.959  -1.573  0.00  0.00    -0.240 NA
ATOM      9  N   LIG    1       -3.713   8.386  -1.779  0.00  0.00    -0.370 N 
ATOM     10  H   LIG    1       -3.466   7.508  -1.450  0.00  0.00    +0.450 HD
BRANCH   7  11
ATOM     11  C   LIG    1       -6.013  11.093  -2.128  0.00  0.00    +0.050 A 
ATOM     12  C   LIG    1       -7.210  10.893  -1.516  0.00  0.00    -0.020 A 
ATOM     13  C   LIG    1       -7.984  12.048  -1.748  0.00  0.00    -0.060 A 
ATOM     14  C   LIG    1       -7.232  12.883  -2.490  0.00  0.00    +0.190 A 
ATOM     15  O   LIG    1       -6.042  12.304  -2.717  0.00  0.00    -0.170 OA
ENDBRANCH   7  11
ENDBRANCH   2   5
BRANCH   3  16
ATOM     16  C   LIG    1        0.409   7.448  -3.100  0.00  0.00    +0.330 C 
BRANCH  16  17
ATOM     17  C   LIG    1        0.823   6.087  -2.603  0.00  0.00    -0.200 A 
ATOM     18  C   LIG    1        1.450   5.951  -1.372  0.00  0.00    +0.110 A 
ATOM     19  C   LIG    1        1.809   4.683  -0.950  0.00  0.00    -0.060 A 
ATOM     20  C   LIG    1        1.541   3.595  -1.774  0.00  0.00    +0.330 A 
ATOM     21  N   LIG    1        0.941   3.766  -2.942  0.00  0.00    -0.520 NA
ATOM     22  C   LIG    1        0.583   4.962  -3.368  0.00  0.00    +0.310 A 
BRANCH  20  23
ATOM     23  N   LIG    1        1.901   2.316  -1.365  0.00  0.00    -0.490 N 
ATOM     24  C   LIG    1        1.401   2.036  -0.000  0.00  0.00    +0.230 C 
ATOM     25  C   LIG    1       -0.019   1.539   0.011  0.00  0.00    +0.000 C 
ATOM     26  C   LIG    1        0.002  -0.004   0.002  0.00  0.00    +0.000 C 
ATOM     27  C   LIG    1        0.266  -0.544  -1.327  0.00  0.00    +0.000 C 
ATOM     28  C   LIG    1        1.640  -0.103  -1.873  0.00  0.00    +0.020 C 
ATOM     29  C   LIG    1        1.522   1.308  -2.380  0.00  0.00    +0.210 C 
ENDBRANCH  20  23
ENDBRANCH  16  17
ENDBRANCH   3  16
TORSDOF 5
