REMARK  Name = ZINC550000000002.0
REMARK                            x       y       z     vdW  Elec       q    Type
REMARK                         _______ _______ _______ _____ _____    ______ ____
ROOT
ATOM      1  C   LIG    1       -0.013   1.086   0.008  0.00  0.00    +0.120 C 
ATOM      2  C   LIG    1       -0.718   1.572   1.248  0.00  0.00    +0.520 C 
ATOM      3  N   LIG    1       -2.050   1.778   1.228  0.00  0.00    -0.600 N 
ATOM      4  H   LIG    1       -2.554   1.615   0.416  0.00  0.00    +0.410 HD
ATOM      5  O   LIG    1       -0.087   1.777   2.263  0.00  0.00    -0.530 OA
ENDROOT
BRANCH   3   6
ATOM      6  O   LIG    1       -2.712   2.235   2.393  0.00  0.00    -0.320 OA
ATOM      7  H   LIG    1       -3.666   2.354   2.283  0.00  0.00    +0.390 HD
ENDBRANCH   3   6
TORSDOF 1
