REMARK  Name = ZINCrH000004sH9H.0
REMARK                            x       y       z     vdW  Elec       q    Type
REMARK                         _______ _______ _______ _____ _____    ______ ____
ROOT
ATOM      1  C   LIG    1       -0.018   1.503   0.010  0.00  0.00    +0.240 C 
ATOM      2  C   LIG    1        1.365   2.086  -0.283  0.00  0.00    +0.090 C 
ENDROOT
BRANCH   1   3
ATOM      3  C   LIG    1        0.066  -0.002   0.037  0.00  0.00    -0.090 A 
ATOM      4  C   LIG    1       -0.041  -0.721  -1.138  0.00  0.00    +0.020 A 
ATOM      5  C   LIG    1        0.040  -2.101  -1.114  0.00  0.00    +0.020 A 
ATOM      6  C   LIG    1        0.220  -2.762   0.086  0.00  0.00    +0.020 A 
ATOM      7  C   LIG    1        0.321  -2.043   1.263  0.00  0.00    +0.020 A 
ATOM      8  C   LIG    1        0.244  -0.663   1.238  0.00  0.00    +0.010 A 
ENDBRANCH   1   3
BRANCH   1  10
ATOM      9  C   LIG    1       -0.671   3.309   1.510  0.00  0.00    +0.600 C 
ATOM     10  N   LIG    1       -0.488   1.989   1.310  0.00  0.00    -0.720 N 
ATOM     11  H   LIG    1       -0.666   1.361   2.027  0.00  0.00    +0.400 HD
ATOM     12  O   LIG    1       -0.447   4.097   0.611  0.00  0.00    -0.530 OA
BRANCH   9  18
ATOM     13  C   LIG    1       -1.196   6.343   2.279  0.00  0.00    +0.170 C 
ATOM     14  C   LIG    1       -1.381   5.145   3.174  0.00  0.00    +0.140 A 
ATOM     15  N   LIG    1       -1.789   5.169   4.412  0.00  0.00    -0.300 NA
ATOM     16  N   LIG    1       -1.832   3.858   4.901  0.00  0.00    -0.350 N 
ATOM     17  C   LIG    1       -1.443   3.026   3.922  0.00  0.00    +0.280 A 
ATOM     18  C   LIG    1       -1.144   3.798   2.818  0.00  0.00    -0.290 A 
BRANCH  16  19
ATOM     19  C   LIG    1       -2.240   3.461   6.251  0.00  0.00    +0.260 C 
ATOM     20  C   LIG    1       -1.407   2.260   6.702  0.00  0.00    +0.060 C 
ATOM     21  C   LIG    1       -3.722   3.081   6.245  0.00  0.00    +0.040 C 
ENDBRANCH  16  19
ENDBRANCH   9  18
ENDBRANCH   1  10
BRANCH   1  22
ATOM     22  C   LIG    1       -0.983   1.933  -1.065  0.00  0.00    +0.480 C 
ATOM     23  O   LIG    1       -0.572   2.224  -2.163  0.00  0.00    -0.490 OA
BRANCH  22  24
ATOM     24  O   LIG    1       -2.298   1.993  -0.802  0.00  0.00    -0.340 OA
BRANCH  24  25
ATOM     25  C   LIG    1       -3.168   2.415  -1.885  0.00  0.00    +0.120 C 
ATOM     26  C   LIG    1       -2.774   3.823  -2.336  0.00  0.00    +0.030 C 
ATOM     27  C   LIG    1       -4.619   2.422  -1.401  0.00  0.00    +0.070 C 
ATOM     28  C   LIG    1       -3.026   1.446  -3.061  0.00  0.00    +0.030 C 
ENDBRANCH  24  25
ENDBRANCH  22  24
ENDBRANCH   1  22
TORSDOF 7
