REMARK  Name = ZINCrD0000071Q3Z.0
REMARK                            x       y       z     vdW  Elec       q    Type
REMARK                         _______ _______ _______ _____ _____    ______ ____
ROOT
ATOM      1  C   LIG    1       -0.014   1.212   0.009  0.00  0.00    +0.530 C 
ATOM      2  O   LIG    1        0.002  -0.004   0.002  0.00  0.00    -0.490 OA
ENDROOT
BRANCH   1   3
ATOM      3  C   LIG    1        1.246   1.962   0.001  0.00  0.00    -0.100 A 
ATOM      4  C   LIG    1        1.867   2.326   1.214  0.00  0.00    +0.000 A 
ATOM      5  C   LIG    1        1.305   1.971   2.451  0.00  0.00    +0.000 A 
ATOM      6  C   LIG    1        1.932   2.333   3.603  0.00  0.00    +0.040 A 
ATOM      7  C   LIG    1        3.129   3.046   3.591  0.00  0.00    +0.010 A 
ATOM      8  C   LIG    1        3.727   3.415   2.428  0.00  0.00    +0.050 A 
ATOM      9  C   LIG    1        3.128   3.072   1.197  0.00  0.00    -0.060 A 
ATOM     10  C   LIG    1        3.716   3.435  -0.015  0.00  0.00    +0.090 A 
ATOM     11  C   LIG    1        3.105   3.084  -1.220  0.00  0.00    -0.060 A 
ATOM     12  C   LIG    1        3.681   3.440  -2.458  0.00  0.00    +0.050 A 
ATOM     13  C   LIG    1        3.061   3.082  -3.613  0.00  0.00    +0.010 A 
ATOM     14  C   LIG    1        1.864   2.369  -3.610  0.00  0.00    +0.040 A 
ATOM     15  C   LIG    1        1.259   1.996  -2.450  0.00  0.00    +0.000 A 
ATOM     16  C   LIG    1        1.847   2.334  -1.220  0.00  0.00    +0.000 A 
ENDBRANCH   1   3
BRANCH   1  17
ATOM     17  O   LIG    1       -1.192   1.870   0.018  0.00  0.00    -0.320 OA
BRANCH  17  18
ATOM     18  C   LIG    1       -2.398   1.063   0.019  0.00  0.00    +0.190 C 
ATOM     19  C   LIG    1       -2.816   0.772   1.462  0.00  0.00    +0.070 C 
BRANCH  18  25
ATOM     20  N   LIG    1       -6.933   1.361  -1.550  0.00  0.00    -0.740 N 
ATOM     21  H   LIG    1       -7.100   0.478  -1.185  0.00  0.00    +0.400 HD
ATOM     22  C   LIG    1       -5.712   1.920  -1.429  0.00  0.00    +0.690 C 
ATOM     23  N   LIG    1       -4.724   1.252  -0.802  0.00  0.00    -0.690 N 
ATOM     24  H   LIG    1       -4.891   0.368  -0.438  0.00  0.00    +0.410 HD
ATOM     25  C   LIG    1       -3.503   1.810  -0.682  0.00  0.00    +0.520 C 
ATOM     26  O   LIG    1       -3.295   2.914  -1.138  0.00  0.00    -0.440 OA
ATOM     27  O   LIG    1       -5.503   3.027  -1.886  0.00  0.00    -0.530 OA
BRANCH  20  29
ATOM     28  C   LIG    1       -9.279   1.237  -2.230  0.00  0.00    +0.030 C 
ATOM     29  C   LIG    1       -8.007   2.088  -2.231  0.00  0.00    +0.270 C 
ENDBRANCH  20  29
ENDBRANCH  18  25
ENDBRANCH  17  18
ENDBRANCH   1  17
TORSDOF 5
