REMARK  Name = ZINCnE000001SgQa.0
REMARK                            x       y       z     vdW  Elec       q    Type
REMARK                         _______ _______ _______ _____ _____    ______ ____
ROOT
ATOM      1  O   LIG    1        0.209   8.401  -0.370  0.00  0.00    -0.520 OA
ATOM      2  C   LIG    1        0.051   7.787  -1.403  0.00  0.00    +0.510 C 
ATOM      3  N   LIG    1       -0.138   8.452  -2.560  0.00  0.00    -0.680 N 
ATOM      4  H   LIG    1       -0.188   7.965  -3.397  0.00  0.00    +0.410 HD
ENDROOT
BRANCH   3   5
ATOM      5  C   LIG    1       -0.263   9.848  -2.554  0.00  0.00    +0.130 A 
ATOM      6  C   LIG    1       -0.875  10.485  -1.476  0.00  0.00    +0.050 A 
ATOM      7  C   LIG    1       -1.000  11.856  -1.452  0.00  0.00    +0.010 A 
ATOM      8  C   LIG    1       -0.524  12.617  -2.514  0.00  0.00    +0.080 A 
ATOM      9  N   LIG    1       -0.508  13.971  -2.776  0.00  0.00    -0.600 N 
ATOM     10  H   LIG    1       -0.867  14.656  -2.190  0.00  0.00    +0.410 HD
ATOM     11  C   LIG    1        0.088  14.204  -3.985  0.00  0.00    +0.220 A 
ATOM     12  C   LIG    1        0.472  13.042  -4.537  0.00  0.00    -0.060 A 
ATOM     13  C   LIG    1        0.089  11.977  -3.606  0.00  0.00    -0.090 A 
ATOM     14  C   LIG    1        0.216  10.587  -3.619  0.00  0.00    +0.030 A 
ENDBRANCH   3   5
BRANCH   2  15
ATOM     15  C   LIG    1        0.066   6.280  -1.394  0.00  0.00    +0.070 C 
BRANCH  15  16
ATOM     16  C   LIG    1        0.297   5.781   0.033  0.00  0.00    +0.100 C 
BRANCH  16  17
ATOM     17  C   LIG    1        0.312   4.274   0.043  0.00  0.00    -0.100 A 
ATOM     18  C   LIG    1        1.504   3.596  -0.141  0.00  0.00    -0.020 A 
ATOM     19  C   LIG    1        1.526   2.217  -0.134  0.00  0.00    +0.050 A 
ATOM     20  C   LIG    1        0.340   1.505   0.059  0.00  0.00    -0.130 A 
ATOM     21  C   LIG    1       -0.861   2.196   0.237  0.00  0.00    +0.050 A 
ATOM     22  C   LIG    1       -0.867   3.575   0.234  0.00  0.00    -0.020 A 
BRANCH  20  23
ATOM     23  C   LIG    1        0.355   0.029   0.068  0.00  0.00    +0.520 C 
ATOM     24  O   LIG    1       -0.685  -0.592   0.236  0.00  0.00    -0.690 OA
ATOM     25  O   LIG    1        1.407  -0.572  -0.094  0.00  0.00    -0.690 OA
ENDBRANCH  20  23
ENDBRANCH  16  17
ENDBRANCH  15  16
ENDBRANCH   2  15
TORSDOF 5
