REMARK  Name = ZINCrH000004uMyq.0
REMARK                            x       y       z     vdW  Elec       q    Type
REMARK                         _______ _______ _______ _____ _____    ______ ____
ROOT
ATOM      1  O   LIG    1       -1.412   2.266   4.137  0.00  0.00    -0.520 OA
ATOM      2  C   LIG    1       -1.651   1.244   3.525  0.00  0.00    +0.560 C 
ATOM      3  N   LIG    1       -1.792   1.278   2.185  0.00  0.00    -0.720 N 
ATOM      4  H   LIG    1       -1.982   0.462   1.696  0.00  0.00    +0.400 HD
ENDROOT
BRANCH   2   5
ATOM      5  C   LIG    1       -1.788  -0.038   4.250  0.00  0.00    -0.100 A 
ATOM      6  C   LIG    1       -2.068  -1.212   3.550  0.00  0.00    +0.050 A 
ATOM      7  C   LIG    1       -2.190  -2.405   4.232  0.00  0.00    +0.070 A 
ATOM      8  C   LIG    1       -2.045  -2.437   5.607  0.00  0.00    -0.160 A 
ATOM      9  C   LIG    1       -1.772  -1.276   6.308  0.00  0.00    +0.080 A 
ATOM     10  C   LIG    1       -1.643  -0.077   5.637  0.00  0.00    +0.090 A 
BRANCH   8  11
ATOM     11  C   LIG    1       -2.185  -3.743   6.346  0.00  0.00    +0.510 C 
ATOM     12  F   LIG    1       -1.383  -3.719   7.492  0.00  0.00    -0.170 F 
ATOM     13  F   LIG    1       -1.781  -4.795   5.516  0.00  0.00    -0.170 F 
ATOM     14  F   LIG    1       -3.521  -3.929   6.717  0.00  0.00    -0.170 F 
ENDBRANCH   8  11
ENDBRANCH   2   5
BRANCH   3  15
ATOM     15  C   LIG    1       -1.656   2.548   1.467  0.00  0.00    +0.280 C 
BRANCH  15  16
ATOM     16  C   LIG    1       -2.976   3.275   1.479  0.00  0.00    -0.100 A 
ATOM     17  C   LIG    1       -4.154   2.573   1.302  0.00  0.00    +0.010 A 
ATOM     18  C   LIG    1       -5.365   3.240   1.318  0.00  0.00    +0.000 A 
ATOM     19  C   LIG    1       -5.397   4.609   1.501  0.00  0.00    +0.010 A 
ATOM     20  C   LIG    1       -4.219   5.312   1.672  0.00  0.00    +0.000 A 
ATOM     21  C   LIG    1       -3.009   4.645   1.661  0.00  0.00    +0.020 A 
ENDBRANCH  15  16
BRANCH  15  22
ATOM     22  C   LIG    1       -1.238   2.273   0.021  0.00  0.00    +0.310 C 
BRANCH  22  23
ATOM     23  N   LIG    1       -0.018   1.463   0.010  0.00  0.00    -0.620 N 
ATOM     24  C   LIG    1        0.002  -0.004   0.002  0.00  0.00    +0.250 C 
ATOM     25  C   LIG    1        1.435  -0.399   0.422  0.00  0.00    +0.040 C 
ATOM     26  C   LIG    1        2.244   0.848  -0.005  0.00  0.00    +0.050 C 
ATOM     27  C   LIG    1        1.228   1.969   0.001  0.00  0.00    +0.520 C 
ATOM     28  O   LIG    1        1.498   3.151  -0.003  0.00  0.00    -0.520 OA
ENDBRANCH  22  23
ENDBRANCH  15  22
ENDBRANCH   3  15
TORSDOF 6
