REMARK  Name = ZINCrg000000sb6o.0
REMARK                            x       y       z     vdW  Elec       q    Type
REMARK                         _______ _______ _______ _____ _____    ______ ____
ROOT
ATOM      1  C   LIG    1       -4.261   2.982   0.687  0.00  0.00    -0.660 A 
ATOM      2  C   LIG    1       -3.640   4.135   1.131  0.00  0.00    +0.130 A 
ATOM      3  C   LIG    1       -4.147   5.372   0.788  0.00  0.00    +0.030 A 
ATOM      4  C   LIG    1       -5.296   5.456  -0.001  0.00  0.00    -0.080 A 
ATOM      5  C   LIG    1       -5.920   4.288  -0.441  0.00  0.00    +0.070 A 
ATOM      6  C   LIG    1       -5.400   3.059  -0.095  0.00  0.00    +0.130 A 
ENDROOT
BRANCH   4   7
ATOM      7  C   LIG    1       -5.849   6.778  -0.367  0.00  0.00    +0.550 C 
ATOM      8  N   LIG    1       -5.243   7.904   0.059  0.00  0.00    -0.720 N 
ATOM      9  H   LIG    1       -4.445   7.847   0.607  0.00  0.00    +0.400 HD
ATOM     10  O   LIG    1       -6.849   6.848  -1.054  0.00  0.00    -0.530 OA
BRANCH   8  11
ATOM     11  C   LIG    1       -5.791   9.213  -0.304  0.00  0.00    +0.290 C 
BRANCH  11  12
ATOM     12  C   LIG    1       -4.922  10.316   0.304  0.00  0.00    +0.190 C 
BRANCH  12  13
ATOM     13  O   LIG    1       -3.620  10.274  -0.284  0.00  0.00    -0.360 OA
BRANCH  13  14
ATOM     14  C   LIG    1       -2.725  11.269   0.217  0.00  0.00    +0.200 C 
BRANCH  14  15
ATOM     15  C   LIG    1       -1.389  11.134  -0.468  0.00  0.00    +0.520 C 
ATOM     16  O   LIG    1       -1.221  10.270  -1.303  0.00  0.00    -0.520 OA
ATOM     17  N   LIG    1       -0.382  11.972  -0.153  0.00  0.00    -0.850 N 
ATOM     18  H   LIG    1        0.477  11.885  -0.594  0.00  0.00    +0.410 HD
ATOM     19  H   LIG    1       -0.517  12.662   0.515  0.00  0.00    +0.400 HD
ENDBRANCH  14  15
ENDBRANCH  13  14
ENDBRANCH  12  13
ENDBRANCH  11  12
ENDBRANCH   8  11
ENDBRANCH   4   7
BRANCH   1  20
ATOM     20  S   LIG    1       -3.603   1.407   1.125  0.00  0.00    +2.690 S 
ATOM     21  O   LIG    1       -2.903   1.591   2.348  0.00  0.00    -0.940 OA
ATOM     22  O   LIG    1       -4.662   0.472   0.969  0.00  0.00    -0.950 OA
BRANCH  20  23
ATOM     23  N   LIG    1       -2.464   1.018  -0.012  0.00  0.00    -1.060 N 
ATOM     24  H   LIG    1       -2.594   0.246  -0.585  0.00  0.00    +0.430 HD
BRANCH  23  29
ATOM     25  C   LIG    1        2.196   4.206  -0.548  0.00  0.00    +0.090 C 
ATOM     26  C   LIG    1        0.959   3.356  -0.407  0.00  0.00    -0.070 A 
ATOM     27  C   LIG    1       -0.051   3.447  -1.347  0.00  0.00    +0.020 A 
ATOM     28  C   LIG    1       -1.186   2.670  -1.221  0.00  0.00    +0.020 A 
ATOM     29  C   LIG    1       -1.315   1.801  -0.145  0.00  0.00    +0.110 A 
ATOM     30  C   LIG    1       -0.296   1.708   0.794  0.00  0.00    +0.040 A 
ATOM     31  C   LIG    1        0.836   2.488   0.662  0.00  0.00    +0.020 A 
ENDBRANCH  23  29
ENDBRANCH  20  23
ENDBRANCH   1  20
TORSDOF 9
