REMARK  Name = ZINCpe00000gME8K.0
REMARK                            x       y       z     vdW  Elec       q    Type
REMARK                         _______ _______ _______ _____ _____    ______ ____
ROOT
ATOM      1  C   LIG    1        1.117   1.905   1.997  0.00  0.00    +0.060 C 
ATOM      2  C   LIG    1       -0.062   1.031   2.429  0.00  0.00    +0.140 C 
ENDROOT
BRANCH   2   3
ATOM      3  N   LIG    1       -1.040   0.953   1.335  0.00  0.00    -0.520 NA
ATOM      4  C   LIG    1       -2.145   0.047   1.680  0.00  0.00    +0.190 C 
ATOM      5  C   LIG    1       -3.179   0.055   0.552  0.00  0.00    +0.210 C 
ATOM      6  N   LIG    1       -2.535  -0.359  -0.702  0.00  0.00    -0.490 N 
ATOM      7  C   LIG    1       -1.431   0.547  -1.048  0.00  0.00    +0.210 C 
ATOM      8  C   LIG    1       -0.397   0.539   0.081  0.00  0.00    +0.190 C 
BRANCH   6   9
ATOM      9  C   LIG    1       -3.465  -0.433  -1.742  0.00  0.00    +0.110 A 
ATOM     10  C   LIG    1       -4.801  -0.138  -1.503  0.00  0.00    -0.040 A 
ATOM     11  C   LIG    1       -5.717  -0.208  -2.534  0.00  0.00    +0.030 A 
ATOM     12  C   LIG    1       -5.308  -0.582  -3.801  0.00  0.00    -0.030 A 
ATOM     13  C   LIG    1       -3.979  -0.882  -4.041  0.00  0.00    +0.020 A 
ATOM     14  C   LIG    1       -3.057  -0.808  -3.015  0.00  0.00    -0.020 A 
ENDBRANCH   6   9
ENDBRANCH   2   3
BRANCH   2  15
ATOM     15  C   LIG    1       -0.716   1.633   3.645  0.00  0.00    +0.520 C 
ATOM     16  N   LIG    1       -0.227   1.371   4.873  0.00  0.00    -0.610 N 
ATOM     17  C   LIG    1        0.941   0.499   5.025  0.00  0.00    +0.290 C 
ATOM     18  O   LIG    1       -1.683   2.355   3.519  0.00  0.00    -0.510 OA
BRANCH  16  19
ATOM     19  C   LIG    1       -0.862   1.957   6.056  0.00  0.00    +0.270 C 
ATOM     20  C   LIG    1       -1.346   0.843   7.001  0.00  0.00    +0.060 C 
ATOM     21  C   LIG    1       -1.693   1.468   8.366  0.00  0.00    -0.310 C 
ATOM     22  S   LIG    1       -0.623   2.946   8.498  0.00  0.00    +2.390 S 
ATOM     23  O   LIG    1        0.349   2.735   9.513  0.00  0.00    -0.930 OA
ATOM     24  O   LIG    1       -1.433   4.113   8.526  0.00  0.00    -0.930 OA
ATOM     25  C   LIG    1        0.170   2.797   6.851  0.00  0.00    -0.330 C 
ENDBRANCH  16  19
ENDBRANCH   2  15
TORSDOF 4
