REMARK  Name = ZINCqH00000018eU.0
REMARK                            x       y       z     vdW  Elec       q    Type
REMARK                         _______ _______ _______ _____ _____    ______ ____
ROOT
ATOM      1  C   LIG    1        2.587   6.237   0.387  0.00  0.00    +0.070 C 
ATOM      2  C   LIG    1        1.280   5.741   1.008  0.00  0.00    -0.070 C 
ATOM      3  C   LIG    1        0.100   6.206   0.151  0.00  0.00    +0.050 C 
ENDROOT
BRANCH   2   4
ATOM      4  C   LIG    1        1.292   4.236   1.071  0.00  0.00    +0.530 C 
ATOM      5  N   LIG    1        1.408   3.515  -0.062  0.00  0.00    -0.720 N 
ATOM      6  H   LIG    1        1.484   3.965  -0.918  0.00  0.00    +0.400 HD
ATOM      7  O   LIG    1        1.198   3.673   2.141  0.00  0.00    -0.540 OA
BRANCH   5   8
ATOM      8  C   LIG    1        1.420   2.051  -0.001  0.00  0.00    +0.230 C 
ATOM      9  C   LIG    1       -0.019   1.527   0.010  0.00  0.00    -0.020 C 
ATOM     10  C   LIG    1        0.002  -0.004   0.002  0.00  0.00    +0.220 C 
ATOM     11  O   LIG    1        0.714  -0.463  -1.150  0.00  0.00    -0.370 OA
ATOM     12  C   LIG    1        2.072  -0.033  -1.204  0.00  0.00    +0.120 C 
ATOM     13  C   LIG    1        2.759  -0.612  -2.450  0.00  0.00    +0.050 C 
ATOM     14  C   LIG    1        3.926  -1.484  -1.942  0.00  0.00    +0.020 C 
ATOM     15  C   LIG    1        3.515  -1.865  -0.498  0.00  0.00    +0.020 C 
ATOM     16  C   LIG    1        2.839  -0.570   0.019  0.00  0.00    +0.000 C 
ATOM     17  C   LIG    1        2.146   1.492  -1.229  0.00  0.00    +0.010 C 
ENDBRANCH   5   8
ENDBRANCH   2   4
BRANCH   2  18
ATOM     18  C   LIG    1        1.139   6.310   2.421  0.00  0.00    +0.180 C 
BRANCH  18  19
ATOM     19  C   LIG    1        1.126   7.816   2.358  0.00  0.00    +0.290 A 
ATOM     20  N   LIG    1        2.047   8.546   1.800  0.00  0.00    -0.480 NA
ATOM     21  C   LIG    1        1.725   9.859   1.922  0.00  0.00    +0.050 A 
ATOM     22  C   LIG    1        2.342  11.045   1.516  0.00  0.00    +0.060 A 
ATOM     23  C   LIG    1        1.756  12.247   1.792  0.00  0.00    +0.000 A 
ATOM     24  C   LIG    1        0.549  12.306   2.475  0.00  0.00    +0.030 A 
ATOM     25  C   LIG    1       -0.078  11.149   2.886  0.00  0.00    +0.010 A 
ATOM     26  C   LIG    1        0.503   9.918   2.614  0.00  0.00    +0.050 A 
ATOM     27  N   LIG    1        0.147   8.609   2.870  0.00  0.00    -0.600 N 
ATOM     28  H   LIG    1       -0.652   8.310   3.333  0.00  0.00    +0.420 HD
ENDBRANCH  18  19
ENDBRANCH   2  18
TORSDOF 4
