REMARK  Name = ZINCpe00000MCNU4.0
REMARK                            x       y       z     vdW  Elec       q    Type
REMARK                         _______ _______ _______ _____ _____    ______ ____
ROOT
ATOM      1  C   LIG    1       -7.038   5.726   0.684  0.00  0.00    +0.190 C 
ATOM      2  N   LIG    1       -7.147   4.270   0.847  0.00  0.00    -0.540 NA
ATOM      3  C   LIG    1       -8.035   3.930   1.969  0.00  0.00    +0.150 C 
ATOM      4  C   LIG    1       -8.163   2.408   2.072  0.00  0.00    +0.220 C 
ATOM      5  O   LIG    1       -6.862   1.830   2.212  0.00  0.00    -0.380 OA
ATOM      6  C   LIG    1       -5.979   2.140   1.132  0.00  0.00    +0.170 C 
ATOM      7  C   LIG    1       -4.609   1.507   1.381  0.00  0.00    +0.050 C 
ATOM      8  C   LIG    1       -3.688   1.817   0.190  0.00  0.00    +0.270 C 
ATOM      9  N   LIG    1       -3.657   3.271  -0.015  0.00  0.00    -0.590 N 
ATOM     10  C   LIG    1       -4.928   3.994  -0.166  0.00  0.00    +0.300 C 
ATOM     11  C   LIG    1       -2.483   3.930  -0.069  0.00  0.00    +0.580 C 
ATOM     12  O   LIG    1       -2.470   5.143  -0.144  0.00  0.00    -0.540 OA
ATOM     13  C   LIG    1       -5.823   3.661   1.031  0.00  0.00    +0.100 C 
ENDROOT
BRANCH  11  14
ATOM     14  C   LIG    1       -1.210   3.178  -0.038  0.00  0.00    -0.090 A 
ATOM     15  C   LIG    1       -0.994   2.130  -0.934  0.00  0.00    +0.040 A 
ATOM     16  C   LIG    1        0.193   1.428  -0.895  0.00  0.00    +0.020 A 
ATOM     17  C   LIG    1        1.172   1.768   0.021  0.00  0.00    +0.030 A 
ATOM     18  C   LIG    1        0.966   2.810   0.908  0.00  0.00    +0.030 A 
ATOM     19  C   LIG    1       -0.218   3.516   0.884  0.00  0.00    -0.070 A 
BRANCH  19  20
ATOM     20  C   LIG    1       -0.441   4.651   1.851  0.00  0.00    +0.380 C 
BRANCH  20  21
ATOM     21  N   LIG    1       -1.220   4.172   2.995  0.00  0.00    -0.370 N 
ATOM     22  C   LIG    1       -0.881   4.256   4.293  0.00  0.00    +0.470 A 
ATOM     23  N   LIG    1       -1.841   3.717   5.000  0.00  0.00    -0.540 NA
ATOM     24  C   LIG    1       -2.802   3.272   4.191  0.00  0.00    +0.400 A 
ATOM     25  N   LIG    1       -2.467   3.527   2.953  0.00  0.00    -0.300 NA
ENDBRANCH  20  21
ENDBRANCH  19  20
ENDBRANCH  11  14
TORSDOF 3
