REMARK  Name = ZINCpk000000mRqO.0
REMARK                            x       y       z     vdW  Elec       q    Type
REMARK                         _______ _______ _______ _____ _____    ______ ____
ROOT
ATOM      1  C   LIG    1        2.410   1.197  -0.088  0.00  0.00    +0.280 C 
ATOM      2  C   LIG    1        2.765   0.852  -1.536  0.00  0.00    +0.040 C 
ENDROOT
BRANCH   1   3
ATOM      3  C   LIG    1        3.489   2.072   0.498  0.00  0.00    -0.080 A 
ATOM      4  C   LIG    1        3.509   3.425   0.217  0.00  0.00    +0.000 A 
ATOM      5  C   LIG    1        4.497   4.232   0.753  0.00  0.00    +0.040 A 
ATOM      6  C   LIG    1        5.466   3.687   1.571  0.00  0.00    +0.010 A 
ATOM      7  C   LIG    1        5.449   2.327   1.856  0.00  0.00    +0.150 A 
ATOM      8  C   LIG    1        4.452   1.521   1.321  0.00  0.00    +0.010 A 
BRANCH   7   9
ATOM      9  N   LIG    1        6.428   1.773   2.684  0.00  0.00    -1.060 N 
ATOM     10  H   LIG    1        6.860   0.941   2.434  0.00  0.00    +0.430 HD
BRANCH   9  11
ATOM     11  S   LIG    1        6.851   2.536   4.091  0.00  0.00    +2.610 S 
ATOM     12  O   LIG    1        7.122   3.874   3.697  0.00  0.00    -0.950 OA
ATOM     13  O   LIG    1        7.870   1.713   4.643  0.00  0.00    -0.950 OA
ATOM     14  C   LIG    1        5.353   2.464   5.113  0.00  0.00    -0.280 C 
ENDBRANCH   9  11
ENDBRANCH   7   9
ENDBRANCH   1   3
BRANCH   1  16
ATOM     15  C   LIG    1       -0.025   1.219  -0.037  0.00  0.00    +0.520 C 
ATOM     16  N   LIG    1        1.131   1.910  -0.055  0.00  0.00    -0.730 N 
ATOM     17  H   LIG    1        1.117   2.880  -0.046  0.00  0.00    +0.400 HD
ATOM     18  O   LIG    1       -0.007   0.006  -0.049  0.00  0.00    -0.530 OA
BRANCH  15  25
ATOM     19  C   LIG    1       -1.683   5.632   1.656  0.00  0.00    +0.100 C 
ATOM     20  C   LIG    1       -2.896   4.759   1.462  0.00  0.00    +0.510 C 
ATOM     21  N   LIG    1       -2.753   3.426   1.329  0.00  0.00    -0.610 N 
ATOM     22  C   LIG    1       -3.931   2.550   1.259  0.00  0.00    +0.280 C 
ATOM     23  C   LIG    1       -3.827   1.685  -0.001  0.00  0.00    +0.020 C 
ATOM     24  C   LIG    1       -2.490   0.941   0.004  0.00  0.00    +0.050 C 
ATOM     25  C   LIG    1       -1.342   1.952  -0.009  0.00  0.00    -0.020 C 
ATOM     26  C   LIG    1       -1.417   2.820   1.251  0.00  0.00    +0.290 C 
ATOM     27  O   LIG    1       -4.002   5.257   1.426  0.00  0.00    -0.540 OA
ENDBRANCH  15  25
ENDBRANCH   1  16
TORSDOF 5
