REMARK  Name = ZINCnE000001N8Dw.0
REMARK                            x       y       z     vdW  Elec       q    Type
REMARK                         _______ _______ _______ _____ _____    ______ ____
ROOT
ATOM      1  C   LIG    1        2.909   5.919  -1.222  0.00  0.00    +0.050 C 
ATOM      2  C   LIG    1        2.218   5.300  -0.006  0.00  0.00    +0.190 C 
ATOM      3  C   LIG    1        2.576   6.095   1.267  0.00  0.00    +0.020 C 
ATOM      4  C   LIG    1        3.737   5.269   1.881  0.00  0.00    +0.040 C 
ATOM      5  C   LIG    1        3.308   3.821   1.535  0.00  0.00    +0.200 C 
ATOM      6  N   LIG    1        2.696   3.919   0.193  0.00  0.00    -0.460 N 
ENDROOT
BRANCH   3   7
ATOM      7  C   LIG    1        3.039   7.485   0.914  0.00  0.00    -0.040 A 
ATOM      8  C   LIG    1        2.194   8.562   1.100  0.00  0.00    +0.040 A 
ATOM      9  C   LIG    1        2.618   9.839   0.782  0.00  0.00    +0.030 A 
ATOM     10  C   LIG    1        3.887  10.038   0.267  0.00  0.00    +0.060 A 
ATOM     11  C   LIG    1        4.734   8.956   0.076  0.00  0.00    +0.070 A 
ATOM     12  F   LIG    1        5.973   9.148  -0.427  0.00  0.00    -0.130 F 
ATOM     13  F   LIG    1        4.301  11.284  -0.049  0.00  0.00    -0.130 F 
ATOM     14  C   LIG    1        4.308   7.680   0.400  0.00  0.00    +0.030 A 
ENDBRANCH   3   7
BRANCH   6  15
ATOM     15  C   LIG    1        1.661   3.011   0.052  0.00  0.00    +0.290 A 
ATOM     16  C   LIG    1        1.916   1.649   0.205  0.00  0.00    -0.060 A 
ATOM     17  C   LIG    1        0.891   0.754   0.066  0.00  0.00    +0.110 A 
ATOM     18  C   LIG    1       -0.391   1.245  -0.233  0.00  0.00    -0.200 A 
ATOM     19  C   LIG    1       -0.575   2.624  -0.367  0.00  0.00    +0.310 A 
ATOM     20  N   LIG    1        0.440   3.450  -0.225  0.00  0.00    -0.530 NA
BRANCH  18  21
ATOM     21  C   LIG    1       -1.524   0.321  -0.398  0.00  0.00    +0.530 C 
ATOM     22  O   LIG    1       -2.637   0.758  -0.658  0.00  0.00    -0.690 OA
ATOM     23  O   LIG    1       -1.354  -0.884  -0.274  0.00  0.00    -0.690 OA
ENDBRANCH  18  21
ENDBRANCH   6  15
TORSDOF 3
