REMARK  Name = ZINCpk000000mNXw.0
REMARK                            x       y       z     vdW  Elec       q    Type
REMARK                         _______ _______ _______ _____ _____    ______ ____
ROOT
ATOM      1  C   LIG    1        1.221  -2.189  -0.021  0.00  0.00    +0.340 C 
ENDROOT
BRANCH   1   2
ATOM      2  N   LIG    1        1.215  -2.670  -1.405  0.00  0.00    -0.740 N 
ATOM      3  H   LIG    1        1.204  -2.036  -2.139  0.00  0.00    +0.400 HD
ATOM      4  C   LIG    1        1.224  -3.994  -1.659  0.00  0.00    +0.720 C 
ATOM      5  N   LIG    1        1.114  -4.438  -2.926  0.00  0.00    -0.630 N 
ATOM      6  C   LIG    1        1.019  -5.876  -3.229  0.00  0.00    +0.310 C 
ATOM      7  C   LIG    1       -0.329  -6.125  -3.919  0.00  0.00    +0.250 C 
ATOM      8  N   LIG    1       -0.558  -5.145  -4.971  0.00  0.00    -0.710 N 
ATOM      9  H   LIG    1       -1.185  -5.377  -5.675  0.00  0.00    +0.400 HD
ATOM     10  C   LIG    1        0.032  -3.951  -5.036  0.00  0.00    +0.520 C 
ATOM     11  O   LIG    1       -0.300  -3.188  -5.918  0.00  0.00    -0.540 OA
ATOM     12  C   LIG    1        1.091  -3.506  -4.064  0.00  0.00    +0.250 C 
ATOM     13  C   LIG    1        2.455  -3.509  -4.756  0.00  0.00    +0.060 C 
ATOM     14  O   LIG    1        1.331  -4.787  -0.744  0.00  0.00    -0.580 OA
ENDBRANCH   1   2
BRANCH   1  17
ATOM     15  C   LIG    1       -0.012   1.380   0.007  0.00  0.00    -0.060 A 
ATOM     16  C   LIG    1        0.005  -0.002  -0.001  0.00  0.00    +0.010 A 
ATOM     17  C   LIG    1        1.209  -0.682  -0.013  0.00  0.00    -0.070 A 
ATOM     18  C   LIG    1        2.401   0.018  -0.018  0.00  0.00    -0.040 A 
ATOM     19  C   LIG    1        2.391   1.403  -0.011  0.00  0.00    +0.110 A 
ATOM     20  C   LIG    1        1.180   2.087   0.001  0.00  0.00    +0.080 A 
BRANCH  19  21
ATOM     21  O   LIG    1        3.563   2.093  -0.016  0.00  0.00    -0.300 OA
ATOM     22  C   LIG    1        4.768   1.325  -0.029  0.00  0.00    +0.240 C 
ENDBRANCH  19  21
BRANCH  20  23
ATOM     23  O   LIG    1        1.165   3.447   0.008  0.00  0.00    -0.320 OA
ATOM     24  C   LIG    1        1.167   4.090   1.285  0.00  0.00    +0.230 C 
ENDBRANCH  20  23
BRANCH  15  25
ATOM     25  C   LIG    1       -1.326   2.118   0.014  0.00  0.00    +0.120 C 
BRANCH  25  27
ATOM     26  C   LIG    1       -2.870   2.112  -1.877  0.00  0.00    +0.010 C 
ATOM     27  C   LIG    1       -1.707   2.479  -1.398  0.00  0.00    -0.030 C 
ENDBRANCH  25  27
ENDBRANCH  15  25
ENDBRANCH   1  17
TORSDOF 6
