REMARK  Name = ZINCkj000005faj8.1
REMARK                            x       y       z     vdW  Elec       q    Type
REMARK                         _______ _______ _______ _____ _____    ______ ____
ROOT
ATOM      1  N   LIG    1        2.489   5.937   0.010  0.00  0.00    -1.120 NA
ATOM      2  H   LIG    1        2.744   6.481  -0.751  0.00  0.00    +0.420 HD
ENDROOT
BRANCH   1   3
ATOM      3  C   LIG    1        1.841   6.555   1.170  0.00  0.00    +0.270 C 
ATOM      4  C   LIG    1        2.902   7.158   2.119  0.00  0.00    +0.080 C 
ATOM      5  C   LIG    1        2.239   8.479   2.585  0.00  0.00    +0.270 C 
ATOM      6  N   LIG    1        1.539   8.956   1.365  0.00  0.00    -0.390 N 
ATOM      7  H   LIG    1        2.193   9.406   0.742  0.00  0.00    +0.430 HD
ATOM      8  C   LIG    1        0.975   7.748   0.725  0.00  0.00    +0.260 C 
BRANCH   6   9
ATOM      9  C   LIG    1        0.463   9.887   1.730  0.00  0.00    +0.160 C 
ATOM     10  C   LIG    1       -0.239  10.408   0.459  0.00  0.00    +0.050 C 
ATOM     11  C   LIG    1       -0.562  11.888   0.783  0.00  0.00    +0.040 C 
ATOM     12  C   LIG    1        0.685  12.343   1.582  0.00  0.00    +0.040 C 
ATOM     13  C   LIG    1        1.050  11.117   2.444  0.00  0.00    +0.040 C 
ENDBRANCH   6   9
ENDBRANCH   1   3
BRANCH   1  14
ATOM     14  S   LIG    1        2.786   4.307  -0.001  0.00  0.00    +2.610 S 
ATOM     15  O   LIG    1        3.432   4.078  -1.246  0.00  0.00    -0.930 OA
ATOM     16  O   LIG    1        3.456   4.065   1.228  0.00  0.00    -0.940 OA
BRANCH  14  17
ATOM     17  C   LIG    1        1.139   3.547   0.010  0.00  0.00    -0.340 C 
BRANCH  17  18
ATOM     18  C   LIG    1        1.280   2.024   0.001  0.00  0.00    +0.210 C 
BRANCH  18  19
ATOM     19  O   LIG    1       -0.017   1.425   0.010  0.00  0.00    -0.370 OA
BRANCH  19  21
ATOM     20  C   LIG    1        0.023  -0.522   1.442  0.00  0.00    +0.020 C 
ATOM     21  C   LIG    1        0.002  -0.004   0.002  0.00  0.00    +0.150 C 
ATOM     22  C   LIG    1       -1.247  -0.527  -0.710  0.00  0.00    +0.060 C 
ENDBRANCH  19  21
ENDBRANCH  18  19
ENDBRANCH  17  18
ENDBRANCH  14  17
ENDBRANCH   1  14
TORSDOF 7
