REMARK  Name = ZINCkj000005faj8.0
REMARK                            x       y       z     vdW  Elec       q    Type
REMARK                         _______ _______ _______ _____ _____    ______ ____
ROOT
ATOM      1  N   LIG    1       -0.722   1.578   4.011  0.00  0.00    -1.110 NA
ATOM      2  H   LIG    1       -0.321   2.226   4.611  0.00  0.00    +0.430 HD
ENDROOT
BRANCH   1   3
ATOM      3  C   LIG    1       -2.099   1.129   4.234  0.00  0.00    +0.250 C 
ATOM      4  C   LIG    1       -2.129  -0.007   5.278  0.00  0.00    +0.060 C 
ATOM      5  C   LIG    1       -2.987   0.539   6.440  0.00  0.00    +0.270 C 
ATOM      6  N   LIG    1       -3.842   1.582   5.816  0.00  0.00    -0.390 N 
ATOM      7  H   LIG    1       -4.620   1.158   5.333  0.00  0.00    +0.430 HD
ATOM      8  C   LIG    1       -2.940   2.265   4.853  0.00  0.00    +0.270 C 
BRANCH   6   9
ATOM      9  C   LIG    1       -4.321   2.529   6.832  0.00  0.00    +0.170 C 
ATOM     10  C   LIG    1       -5.237   1.804   7.840  0.00  0.00    +0.050 C 
ATOM     11  C   LIG    1       -6.338   2.842   8.167  0.00  0.00    +0.040 C 
ATOM     12  C   LIG    1       -6.581   3.526   6.799  0.00  0.00    +0.040 C 
ATOM     13  C   LIG    1       -5.176   3.624   6.170  0.00  0.00    +0.040 C 
ENDBRANCH   6   9
ENDBRANCH   1   3
BRANCH   1  14
ATOM     14  S   LIG    1        0.148   0.978   2.736  0.00  0.00    +2.610 S 
ATOM     15  O   LIG    1        1.417   1.608   2.852  0.00  0.00    -0.930 OA
ATOM     16  O   LIG    1        0.017  -0.432   2.854  0.00  0.00    -0.940 OA
BRANCH  14  17
ATOM     17  C   LIG    1       -0.729   1.579   1.267  0.00  0.00    -0.340 C 
BRANCH  17  18
ATOM     18  C   LIG    1       -0.013   1.086   0.008  0.00  0.00    +0.210 C 
BRANCH  18  19
ATOM     19  O   LIG    1       -0.704   1.559  -1.150  0.00  0.00    -0.370 OA
BRANCH  19  21
ATOM     20  C   LIG    1       -0.720  -0.182  -2.826  0.00  0.00    +0.020 C 
ATOM     21  C   LIG    1       -0.114   1.152  -2.386  0.00  0.00    +0.150 C 
ATOM     22  C   LIG    1       -0.386   2.213  -3.454  0.00  0.00    +0.060 C 
ENDBRANCH  19  21
ENDBRANCH  18  19
ENDBRANCH  17  18
ENDBRANCH  14  17
ENDBRANCH   1  14
TORSDOF 7
