REMARK  Name = ZINCpe00000VVGl7.0
REMARK                            x       y       z     vdW  Elec       q    Type
REMARK                         _______ _______ _______ _____ _____    ______ ____
ROOT
ATOM      1  C   LIG    1       -2.844   1.538   2.451  0.00  0.00    +0.210 C 
ENDROOT
BRANCH   1   2
ATOM      2  N   LIG    1       -2.147   1.104   1.233  0.00  0.00    -0.520 NA
ATOM      3  C   LIG    1       -2.755   1.705   0.035  0.00  0.00    +0.160 C 
ATOM      4  C   LIG    1       -1.963   1.275  -1.202  0.00  0.00    +0.230 C 
ATOM      5  O   LIG    1       -1.930  -0.153  -1.269  0.00  0.00    -0.380 OA
ATOM      6  C   LIG    1       -1.343  -0.770  -0.120  0.00  0.00    +0.220 C 
ATOM      7  C   LIG    1       -2.129  -0.362   1.129  0.00  0.00    +0.160 C 
BRANCH   6   8
ATOM      8  C   LIG    1       -1.388  -2.269  -0.275  0.00  0.00    -0.100 A 
ATOM      9  C   LIG    1       -2.463  -2.866  -0.906  0.00  0.00    +0.080 A 
ATOM     10  C   LIG    1       -2.503  -4.239  -1.054  0.00  0.00    -0.020 A 
ATOM     11  C   LIG    1       -1.470  -5.018  -0.559  0.00  0.00    +0.100 A 
ATOM     12  C   LIG    1       -0.397  -4.420   0.078  0.00  0.00    -0.010 A 
ATOM     13  F   LIG    1       -1.511  -6.362  -0.698  0.00  0.00    -0.140 F 
ATOM     14  C   LIG    1       -0.356  -3.045   0.219  0.00  0.00    +0.060 A 
ENDBRANCH   6   8
ENDBRANCH   1   2
BRANCH   1  17
ATOM     15  N   LIG    1       -2.565   1.286   4.896  0.00  0.00    -0.730 N 
ATOM     16  H   LIG    1       -3.440   1.690   5.006  0.00  0.00    +0.400 HD
ATOM     17  C   LIG    1       -2.055   1.109   3.661  0.00  0.00    +0.520 C 
ATOM     18  O   LIG    1       -0.960   0.604   3.523  0.00  0.00    -0.500 OA
BRANCH  15  20
ATOM     19  C   LIG    1       -0.463   1.617   6.107  0.00  0.00    +0.060 C 
ATOM     20  C   LIG    1       -1.797   0.870   6.072  0.00  0.00    +0.190 C 
ATOM     21  C   LIG    1       -2.598   1.181   7.349  0.00  0.00    +0.100 C 
ATOM     22  C   LIG    1       -3.757   0.152   7.407  0.00  0.00    -0.310 C 
ATOM     23  S   LIG    1       -2.930  -1.409   6.919  0.00  0.00    +2.380 S 
ATOM     24  O   LIG    1       -3.758  -2.115   6.006  0.00  0.00    -0.930 OA
ATOM     25  O   LIG    1       -2.434  -2.062   8.079  0.00  0.00    -0.930 OA
ATOM     26  C   LIG    1       -1.536  -0.648   6.010  0.00  0.00    -0.300 C 
ENDBRANCH  15  20
ENDBRANCH   1  17
TORSDOF 4
