REMARK  Name = ZINCqH0000008wTE.0
REMARK                            x       y       z     vdW  Elec       q    Type
REMARK                         _______ _______ _______ _____ _____    ______ ____
ROOT
ATOM      1  N   LIG    1       -1.141   6.125  -0.840  0.00  0.00    -0.530 NA
ATOM      2  C   LIG    1       -0.995   5.581  -2.198  0.00  0.00    +0.180 C 
ATOM      3  C   LIG    1       -2.176   6.038  -3.057  0.00  0.00    +0.190 C 
ATOM      4  N   LIG    1       -2.221   7.507  -3.083  0.00  0.00    -0.520 NA
ATOM      5  C   LIG    1       -2.367   8.050  -1.726  0.00  0.00    +0.190 C 
ATOM      6  C   LIG    1       -1.186   7.594  -0.866  0.00  0.00    +0.200 C 
ENDROOT
BRANCH   1   8
ATOM      7  C   LIG    1       -0.303   6.155   1.461  0.00  0.00    +0.050 C 
ATOM      8  C   LIG    1       -0.065   5.646   0.037  0.00  0.00    +0.170 C 
BRANCH   8   9
ATOM      9  C   LIG    1       -0.050   4.139   0.038  0.00  0.00    -0.090 A 
ATOM     10  C   LIG    1        1.154   3.460   0.024  0.00  0.00    +0.040 A 
ATOM     11  C   LIG    1        1.169   2.079   0.026  0.00  0.00    -0.010 A 
ATOM     12  C   LIG    1       -0.023   1.374   0.042  0.00  0.00    +0.100 A 
ATOM     13  C   LIG    1       -1.229   2.055   0.050  0.00  0.00    -0.030 A 
ATOM     14  F   LIG    1       -0.010   0.023   0.043  0.00  0.00    -0.140 F 
ATOM     15  C   LIG    1       -1.241   3.437   0.054  0.00  0.00    +0.080 A 
ENDBRANCH   8   9
ENDBRANCH   1   8
BRANCH   4  16
ATOM     16  C   LIG    1       -3.297   7.986  -3.961  0.00  0.00    +0.220 C 
BRANCH  16  17
ATOM     17  C   LIG    1       -2.984   7.614  -5.388  0.00  0.00    +0.520 C 
ATOM     18  N   LIG    1       -3.837   7.953  -6.374  0.00  0.00    -0.670 N 
ATOM     19  H   LIG    1       -4.689   8.364  -6.159  0.00  0.00    +0.410 HD
ATOM     20  O   LIG    1       -1.965   7.011  -5.648  0.00  0.00    -0.490 OA
BRANCH  18  21
ATOM     21  C   LIG    1       -3.494   7.712  -7.710  0.00  0.00    +0.160 A 
ATOM     22  C   LIG    1       -2.159   7.624  -8.080  0.00  0.00    +0.040 A 
ATOM     23  C   LIG    1       -1.823   7.386  -9.399  0.00  0.00    +0.040 A 
ATOM     24  C   LIG    1       -2.815   7.236 -10.350  0.00  0.00    +0.000 A 
ATOM     25  C   LIG    1       -4.146   7.324  -9.986  0.00  0.00    +0.050 A 
ATOM     26  C   LIG    1       -4.489   7.556  -8.668  0.00  0.00    -0.070 A 
ATOM     27 CL   LIG    1       -6.160   7.658  -8.209  0.00  0.00    -0.070 Cl
ENDBRANCH  18  21
ENDBRANCH  16  17
ENDBRANCH   4  16
TORSDOF 5
