REMARK  Name = ZINCpk000000pJ6V.0
REMARK                            x       y       z     vdW  Elec       q    Type
REMARK                         _______ _______ _______ _____ _____    ______ ____
ROOT
ATOM      1  N   LIG    1        0.925   2.358   0.325  0.00  0.00    -0.500 N 
ATOM      2  H   LIG    1        1.790   1.945   0.471  0.00  0.00    +0.430 HD
ATOM      3  C   LIG    1       -0.170   1.590   0.163  0.00  0.00    +0.520 C 
ATOM      4  O   LIG    1       -1.251   2.106  -0.024  0.00  0.00    -0.480 OA
ENDROOT
BRANCH   1   9
ATOM      5  C   LIG    1        0.705   5.965   0.848  0.00  0.00    +0.130 C 
ATOM      6  N   LIG    1        0.565   5.784  -0.607  0.00  0.00    -0.710 N 
ATOM      7  H   LIG    1        0.442   6.482  -1.269  0.00  0.00    +0.440 HD
ATOM      8  C   LIG    1        0.647   4.461  -0.840  0.00  0.00    +0.710 C 
ATOM      9  N   LIG    1        0.814   3.754   0.284  0.00  0.00    -0.380 N 
ATOM     10  O   LIG    1        0.573   3.964  -1.946  0.00  0.00    -0.520 OA
ATOM     11  C   LIG    1       -0.550   6.614   1.436  0.00  0.00    +0.100 C 
ATOM     12  C   LIG    1        0.867   4.551   1.369  0.00  0.00    +0.530 C 
ATOM     13  O   LIG    1        1.014   4.208   2.523  0.00  0.00    -0.450 OA
BRANCH   5  15
ATOM     14  C   LIG    1        1.753   8.223   0.634  0.00  0.00    +0.050 C 
ATOM     15  C   LIG    1        1.944   6.803   1.170  0.00  0.00    +0.050 C 
ENDBRANCH   5  15
ENDBRANCH   1   9
BRANCH   3  16
ATOM     16  C   LIG    1       -0.050   0.088   0.208  0.00  0.00    +0.190 C 
ATOM     17  C   LIG    1        0.897  -0.381  -0.897  0.00  0.00    +0.060 C 
BRANCH  16  18
ATOM     18  O   LIG    1       -1.339  -0.499   0.012  0.00  0.00    -0.280 OA
BRANCH  18  19
ATOM     19  C   LIG    1       -1.533  -1.745   0.519  0.00  0.00    +0.120 A 
ATOM     20  C   LIG    1       -0.472  -2.434   1.091  0.00  0.00    -0.040 A 
ATOM     21  C   LIG    1       -0.662  -3.702   1.610  0.00  0.00    +0.050 A 
ATOM     22  C   LIG    1       -1.907  -4.292   1.563  0.00  0.00    +0.030 A 
ATOM     23  C   LIG    1       -2.983  -3.607   0.988  0.00  0.00    -0.130 A 
ATOM     24  C   LIG    1       -2.789  -2.323   0.470  0.00  0.00    +0.050 A 
BRANCH  23  25
ATOM     25  C   LIG    1       -4.314  -4.232   0.935  0.00  0.00    +0.390 C 
ATOM     26  O   LIG    1       -5.245  -3.636   0.437  0.00  0.00    -0.450 OA
ATOM     27  C   LIG    1       -4.521  -5.613   1.501  0.00  0.00    +0.090 C 
ENDBRANCH  23  25
ENDBRANCH  18  19
ENDBRANCH  16  18
ENDBRANCH   3  16
TORSDOF 6
