REMARK  Name = ZINCpk000000mRJH.0
REMARK                            x       y       z     vdW  Elec       q    Type
REMARK                         _______ _______ _______ _____ _____    ______ ____
ROOT
ATOM      1  C   LIG    1       -0.015   1.508   0.046  0.00  0.00    +0.220 C 
ENDROOT
BRANCH   1   2
ATOM      2  C   LIG    1        0.005   0.001   0.042  0.00  0.00    +0.190 A 
ATOM      3  N   LIG    1        0.029  -0.779   1.093  0.00  0.00    -0.470 NA
ATOM      4  C   LIG    1        0.039  -2.042   0.608  0.00  0.00    +0.210 A 
ATOM      5  N   LIG    1        0.021  -1.954  -0.697  0.00  0.00    -0.370 NA
ATOM      6  O   LIG    1       -0.005  -0.790  -1.036  0.00  0.00    +0.090 OA
BRANCH   4   7
ATOM      7  C   LIG    1        0.067  -3.292   1.406  0.00  0.00    -0.040 A 
ATOM      8  C   LIG    1        0.090  -3.232   2.798  0.00  0.00    +0.110 A 
ATOM      9  C   LIG    1        0.109  -4.396   3.537  0.00  0.00    -0.010 A 
ATOM     10  C   LIG    1        0.117  -5.625   2.897  0.00  0.00    +0.120 A 
ATOM     11  C   LIG    1        0.100  -5.690   1.513  0.00  0.00    -0.010 A 
ATOM     12  F   LIG    1        0.142  -6.764   3.624  0.00  0.00    -0.130 F 
ATOM     13  C   LIG    1        0.074  -4.530   0.766  0.00  0.00    +0.090 A 
ENDBRANCH   4   7
ENDBRANCH   1   2
BRANCH   1  14
ATOM     14  C   LIG    1        1.420   2.037   0.028  0.00  0.00    +0.080 C 
BRANCH  14  22
ATOM     15  C   LIG    1        7.128   5.451  -1.115  0.00  0.00    +0.100 C 
ATOM     16  C   LIG    1        5.814   6.183  -1.212  0.00  0.00    +0.510 C 
ATOM     17  N   LIG    1        4.656   5.494  -1.200  0.00  0.00    -0.620 N 
ATOM     18  C   LIG    1        3.366   6.199  -1.181  0.00  0.00    +0.280 C 
ATOM     19  C   LIG    1        2.554   5.703   0.022  0.00  0.00    +0.290 C 
ATOM     20  N   LIG    1        2.559   4.233   0.018  0.00  0.00    -0.610 N 
ATOM     21  C   LIG    1        3.848   3.529   0.005  0.00  0.00    +0.270 C 
ATOM     22  C   LIG    1        1.401   3.544   0.032  0.00  0.00    +0.520 C 
ATOM     23  O   LIG    1        0.342   4.137   0.048  0.00  0.00    -0.530 OA
ATOM     24  C   LIG    1        4.660   4.024  -1.204  0.00  0.00    +0.280 C 
ATOM     25  O   LIG    1        5.799   7.393  -1.303  0.00  0.00    -0.540 OA
ENDBRANCH  14  22
ENDBRANCH   1  14
TORSDOF 4
