REMARK  Name = ZINCkj000005iBZU.1
REMARK                            x       y       z     vdW  Elec       q    Type
REMARK                         _______ _______ _______ _____ _____    ______ ____
ROOT
ATOM      1  C   LIG    1       -0.013   1.086   0.008  0.00  0.00    +0.290 C 
ENDROOT
BRANCH   1   6
ATOM      2  C   LIG    1       -1.006   3.200  -2.955  0.00  0.00    +0.260 C 
ATOM      3  C   LIG    1       -2.086   2.453  -3.417  0.00  0.00    -0.040 C 
ATOM      4  C   LIG    1       -2.441   1.300  -2.746  0.00  0.00    +0.210 C 
ATOM      5  N   LIG    1       -1.768   0.902  -1.684  0.00  0.00    -0.470 NA
ATOM      6  C   LIG    1       -0.742   1.585  -1.213  0.00  0.00    +0.210 C 
ATOM      7  H   LIG    1       -2.036   0.085  -1.235  0.00  0.00    +0.450 HD
ATOM      8  C   LIG    1       -3.609   0.483  -3.237  0.00  0.00    +0.190 C 
ATOM      9  C   LIG    1       -0.325   2.748  -1.827  0.00  0.00    +0.020 C 
BRANCH   2  11
ATOM     10  C   LIG    1       -1.382   4.726  -4.736  0.00  0.00    +0.300 C 
ATOM     11  O   LIG    1       -0.626   4.339  -3.587  0.00  0.00    -0.270 OA
ENDBRANCH   2  11
ENDBRANCH   1   6
BRANCH   1  12
ATOM     12  N   LIG    1       -0.700   1.560   1.217  0.00  0.00    -0.530 NA
ATOM     13  C   LIG    1       -0.608   3.022   1.336  0.00  0.00    +0.150 C 
ATOM     14  C   LIG    1       -1.387   3.478   2.573  0.00  0.00    +0.170 C 
ATOM     15  O   LIG    1       -0.873   2.807   3.727  0.00  0.00    -0.360 OA
ATOM     16  C   LIG    1       -0.948   1.381   3.645  0.00  0.00    +0.120 C 
ATOM     17  C   LIG    1       -0.344   0.763   4.908  0.00  0.00    +0.080 C 
ATOM     18  C   LIG    1       -2.411   0.952   3.515  0.00  0.00    +0.030 C 
ATOM     19  C   LIG    1       -0.165   0.904   2.419  0.00  0.00    +0.190 C 
BRANCH  14  20
ATOM     20  C   LIG    1       -1.229   4.989   2.749  0.00  0.00    +0.200 C 
BRANCH  20  21
ATOM     21  O   LIG    1       -2.045   5.430   3.836  0.00  0.00    -0.560 OA
ATOM     22  H   LIG    1       -1.995   6.380   4.006  0.00  0.00    +0.390 HD
ENDBRANCH  20  21
ENDBRANCH  14  20
ENDBRANCH   1  12
TORSDOF 5
