REMARK  Name = ZINCah0000004SRh.0
REMARK                            x       y       z     vdW  Elec       q    Type
REMARK                         _______ _______ _______ _____ _____    ______ ____
ROOT
ATOM      1  C   LIG    1        1.609  -2.092  -0.025  0.00  0.00    +0.360 A 
ATOM      2  N   LIG    1        2.914  -2.148  -0.038  0.00  0.00    -0.320 NA
ATOM      3  N   LIG    1        3.450  -0.857  -0.036  0.00  0.00    -0.510 N 
ATOM      4  H   LIG    1        4.396  -0.641  -0.044  0.00  0.00    +0.440 HD
ATOM      5  C   LIG    1        2.427   0.056  -0.021  0.00  0.00    +0.150 A 
ATOM      6  C   LIG    1        2.378   1.448  -0.013  0.00  0.00    -0.020 A 
ATOM      7  C   LIG    1        1.169   2.085   0.002  0.00  0.00    +0.070 A 
ATOM      8  C   LIG    1       -0.016   1.361   0.009  0.00  0.00    -0.040 A 
ATOM      9  C   LIG    1        0.002  -0.004   0.002  0.00  0.00    +0.090 A 
ATOM     10  C   LIG    1        1.226  -0.679  -0.013  0.00  0.00    -0.200 A 
ENDROOT
BRANCH   1  11
ATOM     11  N   LIG    1        0.735  -3.183  -0.022  0.00  0.00    -0.830 N 
ATOM     12  H   LIG    1        1.088  -4.086  -0.031  0.00  0.00    +0.410 HD
ATOM     13  H   LIG    1       -0.224  -3.037  -0.012  0.00  0.00    +0.410 HD
ENDBRANCH   1  11
TORSDOF 1
