REMARK  Name = ZINCfA000000bmg9.0
REMARK                            x       y       z     vdW  Elec       q    Type
REMARK                         _______ _______ _______ _____ _____    ______ ____
ROOT
ATOM      1  C   LIG    1       -2.886   1.473  -1.398  0.00  0.00    +0.060 C 
ATOM      2  C   LIG    1       -2.509   1.896   0.023  0.00  0.00    +0.220 C 
ENDROOT
BRANCH   2   3
ATOM      3  C   LIG    1       -1.122   2.486   0.020  0.00  0.00    -0.100 A 
ATOM      4  C   LIG    1       -0.021   1.732   0.012  0.00  0.00    -0.150 A 
ATOM      5  S   LIG    1        1.402   2.765   0.004  0.00  0.00    +0.230 S 
ATOM      6  C   LIG    1        0.394   4.206   0.020  0.00  0.00    -0.140 A 
ATOM      7 CL   LIG    1        0.983   5.839   0.023  0.00  0.00    +0.010 Cl
ATOM      8 CL   LIG    1        0.002  -0.004   0.002  0.00  0.00    +0.010 Cl
ATOM      9  C   LIG    1       -0.893   3.852   0.030  0.00  0.00    +0.050 A 
ENDBRANCH   2   3
BRANCH   2  10
ATOM     10  N   LIG    1       -3.467   2.900   0.506  0.00  0.00    -0.680 NA
ATOM     11  H   LIG    1       -3.034   3.522   1.172  0.00  0.00    +0.350 HD
BRANCH  10  12
ATOM     12  C   LIG    1       -4.657   2.259   1.080  0.00  0.00    +0.150 C 
ATOM     13  C   LIG    1       -5.723   2.026  -0.015  0.00  0.00    +0.090 C 
ATOM     14  C   LIG    1       -7.049   2.351   0.717  0.00  0.00    +0.280 C 
ATOM     15  N   LIG    1       -6.684   3.495   1.590  0.00  0.00    -0.510 N 
ATOM     16  H   LIG    1       -6.672   4.351   1.055  0.00  0.00    +0.430 HD
ATOM     17  H   LIG    1       -7.336   3.571   2.356  0.00  0.00    +0.430 HD
ATOM     18  C   LIG    1       -5.329   3.196   2.102  0.00  0.00    +0.270 C 
ENDBRANCH  10  12
ENDBRANCH   2  10
TORSDOF 3
