REMARK  Name = ZINCvU00000007xu.0
REMARK                            x       y       z     vdW  Elec       q    Type
REMARK                         _______ _______ _______ _____ _____    ______ ____
ROOT
ATOM      1  C   LIG    1       -0.455   6.515   1.363  0.00  0.00    +0.170 A 
ATOM      2  C   LIG    1        0.074   5.623   2.281  0.00  0.00    +0.100 A 
ATOM      3  N   LIG    1        0.242   6.276   3.442  0.00  0.00    -0.420 NA
ATOM      4  C   LIG    1       -0.152   7.526   3.303  0.00  0.00    +0.240 A 
ATOM      5  C   LIG    1       -0.181   8.647   4.246  0.00  0.00    +0.130 A 
ATOM      6  C   LIG    1       -0.644   9.850   3.837  0.00  0.00    +0.110 A 
ATOM      7  C   LIG    1       -1.114  10.013   2.458  0.00  0.00    +0.230 A 
ATOM      8  N   LIG    1       -1.609  11.051   1.811  0.00  0.00    -0.440 NA
ATOM      9  C   LIG    1       -1.893  10.694   0.555  0.00  0.00    +0.210 A 
ATOM     10  C   LIG    1       -1.560   9.395   0.394  0.00  0.00    +0.130 A 
ATOM     11  N   LIG    1       -1.071   8.954   1.594  0.00  0.00    -0.260 N 
ATOM     12  N   LIG    1       -0.594   7.709   2.014  0.00  0.00    -0.280 N 
ENDROOT
BRANCH   2  13
ATOM     13  C   LIG    1        0.396   4.201   2.026  0.00  0.00    +0.020 A 
ATOM     14  C   LIG    1        1.495   3.626   2.641  0.00  0.00    +0.080 A 
ATOM     15  C   LIG    1        1.795   2.276   2.402  0.00  0.00    +0.130 A 
ATOM     16  N   LIG    1        2.847   1.692   2.986  0.00  0.00    -0.470 NA
ATOM     17  C   LIG    1        3.137   0.432   2.764  0.00  0.00    +0.290 A 
ATOM     18  C   LIG    1        2.368  -0.357   1.913  0.00  0.00    -0.030 A 
ATOM     19  C   LIG    1        1.279   0.178   1.284  0.00  0.00    +0.080 A 
ATOM     20  C   LIG    1        0.970   1.529   1.524  0.00  0.00    -0.100 A 
ATOM     21  C   LIG    1       -0.137   2.142   0.909  0.00  0.00    +0.040 A 
ATOM     22  C   LIG    1       -0.413   3.448   1.158  0.00  0.00    +0.030 A 
ENDBRANCH   2  13
BRANCH   1  23
ATOM     23  N   LIG    1       -0.780   6.250   0.044  0.00  0.00    -0.570 N 
ATOM     24  H   LIG    1       -0.666   7.073  -0.529  0.00  0.00    +0.360 HD
BRANCH  23  25
ATOM     25  C   LIG    1       -2.144   5.717  -0.066  0.00  0.00    +0.290 C 
BRANCH  25  31
ATOM     26 BR   LIG    1       -4.838   9.100  -3.202  0.00  0.00    -0.040 Br
ATOM     27  C   LIG    1       -4.366   8.410  -1.505  0.00  0.00    -0.090 A 
ATOM     28  C   LIG    1       -4.918   8.954  -0.359  0.00  0.00    +0.070 A 
ATOM     29  C   LIG    1       -4.572   8.449   0.880  0.00  0.00    +0.030 A 
ATOM     30  C   LIG    1       -3.679   7.399   0.975  0.00  0.00    +0.030 A 
ATOM     31  C   LIG    1       -3.123   6.859  -0.170  0.00  0.00    -0.140 A 
ATOM     32  C   LIG    1       -3.467   7.362  -1.410  0.00  0.00    +0.060 A 
ENDBRANCH  25  31
ENDBRANCH  23  25
ENDBRANCH   1  23
TORSDOF 4
