REMARK  Name = ZINCqH0000001wP8.0
REMARK                            x       y       z     vdW  Elec       q    Type
REMARK                         _______ _______ _______ _____ _____    ______ ____
ROOT
ATOM      1  C   LIG    1        1.130   3.681  -0.250  0.00  0.00    +0.240 C 
ENDROOT
BRANCH   1   2
ATOM      2  N   LIG    1        1.127   2.216  -0.260  0.00  0.00    -0.730 N 
ATOM      3  H   LIG    1        1.954   1.729  -0.119  0.00  0.00    +0.410 HD
ATOM      4  C   LIG    1       -0.024   1.546  -0.464  0.00  0.00    +0.510 C 
ATOM      5  O   LIG    1       -1.056   2.155  -0.645  0.00  0.00    -0.540 OA
BRANCH   4   6
ATOM      6  C   LIG    1       -0.026   0.039  -0.474  0.00  0.00    +0.060 C 
BRANCH   6   7
ATOM      7  C   LIG    1       -1.449  -0.467  -0.725  0.00  0.00    +0.040 C 
BRANCH   7   8
ATOM      8  C   LIG    1       -1.451  -1.997  -0.735  0.00  0.00    +0.080 C 
BRANCH   8   9
ATOM      9  C   LIG    1       -2.852  -2.495  -0.982  0.00  0.00    -0.090 A 
ATOM     10  C   LIG    1       -3.698  -2.736   0.085  0.00  0.00    +0.040 A 
ATOM     11  C   LIG    1       -4.984  -3.187  -0.140  0.00  0.00    -0.010 A 
ATOM     12  C   LIG    1       -5.422  -3.410  -1.435  0.00  0.00    +0.090 A 
ATOM     13  C   LIG    1       -4.573  -3.173  -2.502  0.00  0.00    -0.010 A 
ATOM     14  F   LIG    1       -6.678  -3.857  -1.656  0.00  0.00    -0.140 F 
ATOM     15  C   LIG    1       -3.289  -2.716  -2.275  0.00  0.00    +0.040 A 
ENDBRANCH   8   9
ENDBRANCH   7   8
ENDBRANCH   6   7
ENDBRANCH   4   6
ENDBRANCH   1   2
BRANCH   1  16
ATOM     16  C   LIG    1        2.552   4.187   0.000  0.00  0.00    +0.260 C 
BRANCH  16  20
ATOM     17  C   LIG    1        2.505   8.444   0.375  0.00  0.00    +0.140 A 
ATOM     18  C   LIG    1        2.551   7.647   1.509  0.00  0.00    -0.080 A 
ATOM     19  C   LIG    1        2.566   6.271   1.386  0.00  0.00    +0.070 A 
ATOM     20  C   LIG    1        2.536   5.688   0.132  0.00  0.00    -0.160 A 
ATOM     21  C   LIG    1        2.496   6.480  -1.000  0.00  0.00    +0.060 A 
ATOM     22  C   LIG    1        2.475   7.856  -0.882  0.00  0.00    -0.020 A 
BRANCH  17  23
ATOM     23  O   LIG    1        2.490   9.797   0.494  0.00  0.00    -0.310 OA
BRANCH  23  25
ATOM     24  C   LIG    1        3.213  11.751   1.718  0.00  0.00    +0.070 C 
ATOM     25  C   LIG    1        2.643  10.335   1.809  0.00  0.00    +0.150 C 
ATOM     26  C   LIG    1        1.281  10.377   2.505  0.00  0.00    +0.020 C 
ENDBRANCH  23  25
ENDBRANCH  17  23
ENDBRANCH  16  20
BRANCH  16  27
ATOM     27  O   LIG    1        3.390   3.814  -1.096  0.00  0.00    -0.550 OA
ATOM     28  H   LIG    1        3.106   4.173  -1.948  0.00  0.00    +0.380 HD
ENDBRANCH  16  27
ENDBRANCH   1  16
TORSDOF 10
