REMARK  Name = ZINCue000000086H.1
REMARK                            x       y       z     vdW  Elec       q    Type
REMARK                         _______ _______ _______ _____ _____    ______ ____
ROOT
ATOM      1  C   LIG    1        6.461   8.769  -0.013  0.00  0.00    +0.520 C 
ATOM      2  N   LIG    1        7.738   9.199  -0.022  0.00  0.00    -0.620 N 
ATOM      3  C   LIG    1        8.851   8.239  -0.032  0.00  0.00    +0.280 C 
ATOM      4  C   LIG    1        9.752   8.553  -1.238  0.00  0.00    +0.290 C 
ATOM      5  N   LIG    1       10.057   9.991  -1.233  0.00  0.00    -1.000 NA
ATOM      6  C   LIG    1        8.945  10.951  -1.218  0.00  0.00    +0.290 C 
ATOM      7  C   LIG    1        8.043  10.637  -0.018  0.00  0.00    +0.280 C 
ATOM      8  O   LIG    1        5.551   9.571   0.001  0.00  0.00    -0.540 OA
ENDROOT
BRANCH   5   9
ATOM      9  S   LIG    1       11.627  10.519  -1.245  0.00  0.00    +2.690 S 
ATOM     10  O   LIG    1       11.603  11.835  -1.783  0.00  0.00    -0.950 OA
ATOM     11  O   LIG    1       12.400   9.466  -1.802  0.00  0.00    -0.950 OA
BRANCH   9  12
ATOM     12  C   LIG    1       12.137  10.677   0.434  0.00  0.00    -0.680 A 
ATOM     13  C   LIG    1       11.960  11.876   1.100  0.00  0.00    +0.120 A 
ATOM     14  C   LIG    1       12.356  11.998   2.419  0.00  0.00    -0.010 A 
ATOM     15  C   LIG    1       12.937  10.926   3.068  0.00  0.00    +0.070 A 
ATOM     16  C   LIG    1       13.119   9.729   2.400  0.00  0.00    -0.010 A 
ATOM     17  C   LIG    1       12.719   9.605   1.083  0.00  0.00    +0.120 A 
ENDBRANCH   9  12
ENDBRANCH   5   9
BRANCH   1  18
ATOM     18  C   LIG    1        6.163   7.292  -0.018  0.00  0.00    +0.080 C 
BRANCH  18  19
ATOM     19  C   LIG    1        4.649   7.076  -0.004  0.00  0.00    +0.060 C 
BRANCH  19  21
ATOM     20  O   LIG    1        5.261   4.797  -0.022  0.00  0.00    -0.560 OA
ATOM     21  C   LIG    1        4.351   5.599  -0.009  0.00  0.00    +0.500 C 
ATOM     22  N   LIG    1        3.074   5.169   0.001  0.00  0.00    -0.530 N 
ATOM     23  H   LIG    1        2.346   5.810   0.011  0.00  0.00    +0.360 HD
BRANCH  22  24
ATOM     24  N   LIG    1        2.797   3.795  -0.004  0.00  0.00    -0.500 NA
ATOM     25  C   LIG    1        1.520   3.365   0.006  0.00  0.00    +0.450 C 
ATOM     26  O   LIG    1        0.607   4.170   0.019  0.00  0.00    -0.680 OA
BRANCH  25  27
ATOM     27  C   LIG    1        1.231   1.928   0.001  0.00  0.00    -0.150 A 
ATOM     28  C   LIG    1       -0.017   1.371   0.010  0.00  0.00    +0.010 A 
ATOM     29  C   LIG    1        0.002  -0.004   0.002  0.00  0.00    -0.010 A 
ATOM     30  C   LIG    1        1.221  -0.555  -0.013  0.00  0.00    -0.150 A 
ATOM     31  S   LIG    1        2.434   0.645  -0.018  0.00  0.00    +0.210 S 
ENDBRANCH  25  27
ENDBRANCH  22  24
ENDBRANCH  19  21
ENDBRANCH  18  19
ENDBRANCH   1  18
TORSDOF 7
