REMARK  Name = ZINCpk00000y6wAl.0
REMARK                            x       y       z     vdW  Elec       q    Type
REMARK                         _______ _______ _______ _____ _____    ______ ____
ROOT
ATOM      1  C   LIG    1        0.169  -2.027   1.427  0.00  0.00    +0.520 C 
ATOM      2  N   LIG    1        0.291  -2.705   2.585  0.00  0.00    -0.710 N 
ATOM      3  H   LIG    1        0.365  -2.224   3.423  0.00  0.00    +0.410 HD
ATOM      4  O   LIG    1        0.076  -2.629   0.378  0.00  0.00    -0.540 OA
ENDROOT
BRANCH   2   5
ATOM      5  C   LIG    1        0.311  -4.170   2.577  0.00  0.00    +0.230 C 
ATOM      6  C   LIG    1        1.747  -4.691   2.345  0.00  0.00    +0.210 C 
ATOM      7  O   LIG    1        1.854  -5.863   3.183  0.00  0.00    -0.360 OA
ATOM      8  C   LIG    1        1.181  -5.514   4.412  0.00  0.00    +0.210 C 
ATOM      9  C   LIG    1       -0.070  -4.725   3.968  0.00  0.00    +0.150 C 
BRANCH   9  10
ATOM     10  O   LIG    1       -0.336  -3.655   4.877  0.00  0.00    -0.290 OA
BRANCH  10  11
ATOM     11  C   LIG    1       -1.239  -3.896   5.868  0.00  0.00    -0.030 A 
ATOM     12  C   LIG    1       -1.627  -3.018   6.826  0.00  0.00    +0.220 A 
ATOM     13  N   LIG    1       -2.536  -3.646   7.615  0.00  0.00    -0.470 N 
ATOM     14  H   LIG    1       -2.988  -3.263   8.383  0.00  0.00    +0.450 HD
ATOM     15  N   LIG    1       -2.707  -4.946   7.123  0.00  0.00    -0.260 NA
ATOM     16  C   LIG    1       -1.936  -5.094   6.075  0.00  0.00    +0.190 A 
ENDBRANCH  10  11
ENDBRANCH   9  10
ENDBRANCH   2   5
BRANCH   1  17
ATOM     17  C   LIG    1        0.148  -0.520   1.435  0.00  0.00    +0.070 C 
BRANCH  17  18
ATOM     18  C   LIG    1        0.002  -0.004   0.002  0.00  0.00    +0.120 C 
BRANCH  18  23
ATOM     19  C   LIG    1        1.149   3.599   0.010  0.00  0.00    +0.100 A 
ATOM     20  C   LIG    1       -0.063   4.272   0.026  0.00  0.00    -0.050 A 
ATOM     21  C   LIG    1       -1.248   3.560   0.033  0.00  0.00    +0.040 A 
ATOM     22  C   LIG    1       -1.226   2.178   0.020  0.00  0.00    +0.010 A 
ATOM     23  C   LIG    1       -0.018   1.503   0.010  0.00  0.00    -0.080 A 
ATOM     24  C   LIG    1        1.170   2.210   0.003  0.00  0.00    +0.070 A 
ATOM     25  F   LIG    1        2.349   1.551  -0.012  0.00  0.00    -0.130 F 
BRANCH  19  27
ATOM     26  C   LIG    1        2.218   5.724   0.011  0.00  0.00    +0.250 C 
ATOM     27  O   LIG    1        2.315   4.298   0.003  0.00  0.00    -0.310 OA
ENDBRANCH  19  27
ENDBRANCH  18  23
ENDBRANCH  17  18
ENDBRANCH   1  17
TORSDOF 7
