REMARK  Name = ZINCAx00000008Im.1
REMARK                            x       y       z     vdW  Elec       q    Type
REMARK                         _______ _______ _______ _____ _____    ______ ____
ROOT
ATOM      1  C   LIG    1       -8.555   2.533  -1.197  0.00  0.00    +0.190 C 
ATOM      2  C   LIG    1       -8.527   1.027  -1.159  0.00  0.00    +0.400 A 
ATOM      3  N   LIG    1       -7.389   0.437  -0.949  0.00  0.00    -0.510 NA
ATOM      4  C   LIG    1       -7.287  -0.914  -0.901  0.00  0.00    +0.130 A 
ATOM      5  C   LIG    1       -6.059  -1.551  -0.675  0.00  0.00    +0.160 A 
ATOM      6  C   LIG    1       -6.003  -2.933  -0.640  0.00  0.00    +0.070 A 
ATOM      7  C   LIG    1       -7.151  -3.693  -0.815  0.00  0.00    +0.030 A 
ATOM      8  C   LIG    1       -8.368  -3.087  -1.039  0.00  0.00    +0.090 A 
ATOM      9  C   LIG    1       -8.448  -1.696  -1.084  0.00  0.00    -0.180 A 
ATOM     10  C   LIG    1       -9.721  -0.998  -1.320  0.00  0.00    +0.560 A 
ATOM     11  O   LIG    1      -10.758  -1.613  -1.484  0.00  0.00    -0.500 OA
ATOM     12  N   LIG    1       -9.694   0.355  -1.345  0.00  0.00    -0.530 N 
ENDROOT
BRANCH  12  13
ATOM     13  C   LIG    1      -10.933   1.102  -1.576  0.00  0.00    +0.260 C 
ATOM     14  C   LIG    1      -11.522   0.708  -2.935  0.00  0.00    +0.070 C 
ATOM     15  C   LIG    1      -12.871   1.415  -3.104  0.00  0.00    +0.110 C 
ATOM     16  C   LIG    1      -13.760   1.071  -1.938  0.00  0.00    +0.520 C 
ATOM     17  N   LIG    1      -13.246   0.785  -0.732  0.00  0.00    -0.670 N 
ATOM     18  H   LIG    1      -13.853   0.576  -0.005  0.00  0.00    +0.420 HD
ATOM     19  O   LIG    1      -14.962   1.052  -2.092  0.00  0.00    -0.490 OA
ATOM     20  C   LIG    1      -11.926   0.775  -0.493  0.00  0.00    +0.520 C 
ATOM     21  O   LIG    1      -11.526   0.499   0.618  0.00  0.00    -0.480 OA
ENDBRANCH  12  13
BRANCH   5  22
ATOM     22  N   LIG    1       -4.897  -0.796  -0.491  0.00  0.00    -0.650 N 
ATOM     23  H   LIG    1       -4.942   0.059  -0.034  0.00  0.00    +0.420 HD
ATOM     24  C   LIG    1       -3.716  -1.254  -0.950  0.00  0.00    +0.580 C 
ATOM     25  O   LIG    1       -3.646  -2.359  -1.452  0.00  0.00    -0.520 OA
BRANCH  24  26
ATOM     26  C   LIG    1       -2.507  -0.415  -0.843  0.00  0.00    -0.180 A 
ATOM     27  C   LIG    1       -1.342  -0.814  -1.427  0.00  0.00    +0.190 A 
ATOM     28  N   LIG    1       -0.221  -0.043  -1.333  0.00  0.00    -0.370 N 
ATOM     29  C   LIG    1       -0.244   1.154  -0.645  0.00  0.00    +0.000 A 
ATOM     30  C   LIG    1       -1.429   1.603  -0.020  0.00  0.00    +0.070 A 
ATOM     31  C   LIG    1        1.028   1.679  -0.736  0.00  0.00    +0.180 A 
ATOM     32  N   LIG    1        1.768   0.827  -1.447  0.00  0.00    -0.440 NA
ATOM     33  C   LIG    1        1.043  -0.199  -1.808  0.00  0.00    +0.220 A 
ATOM     34  C   LIG    1       -1.293  -2.117  -2.183  0.00  0.00    +0.160 C 
ATOM     35  C   LIG    1       -2.554   0.852  -0.108  0.00  0.00    +0.040 A 
BRANCH  33  36
ATOM     36  C   LIG    1        1.531  -1.369  -2.623  0.00  0.00    +0.030 C 
ATOM     37  C   LIG    1        3.005  -1.379  -3.032  0.00  0.00    +0.060 C 
ATOM     38  C   LIG    1        1.922  -1.103  -4.078  0.00  0.00    +0.050 C 
ENDBRANCH  33  36
ENDBRANCH  24  26
ENDBRANCH   5  22
TORSDOF 4
