REMARK  Name = ZINCrH000004jt6r.0
REMARK                            x       y       z     vdW  Elec       q    Type
REMARK                         _______ _______ _______ _____ _____    ______ ____
ROOT
ATOM      1  C   LIG    1       -0.180   1.519   0.639  0.00  0.00    +0.590 C 
ATOM      2  N   LIG    1        0.986   2.185   0.761  0.00  0.00    -0.590 N 
ATOM      3  O   LIG    1       -1.061   1.962  -0.071  0.00  0.00    -0.530 OA
ENDROOT
BRANCH   2   4
ATOM      4  C   LIG    1        1.998   1.721   1.713  0.00  0.00    +0.300 C 
ATOM      5  C   LIG    1        3.083   0.953   0.960  0.00  0.00    +0.020 C 
ATOM      6  C   LIG    1        4.014   0.299   1.988  0.00  0.00    +0.030 C 
ATOM      7  C   LIG    1        3.249  -0.825   2.684  0.00  0.00    +0.080 C 
ATOM      8  C   LIG    1        1.923  -0.327   3.191  0.00  0.00    -0.120 A 
ATOM      9  C   LIG    1        1.263  -1.088   4.151  0.00  0.00    +0.060 A 
ATOM     10  C   LIG    1        0.039  -0.649   4.626  0.00  0.00    -0.010 A 
ATOM     11  C   LIG    1       -0.485   0.529   4.130  0.00  0.00    +0.280 A 
ATOM     12  N   LIG    1        0.168   1.224   3.224  0.00  0.00    -0.460 NA
ATOM     13  C   LIG    1        1.343   0.839   2.744  0.00  0.00    +0.110 A 
ENDBRANCH   2   4
BRANCH   1  19
ATOM     14  N   LIG    1       -1.226  -3.191   3.470  0.00  0.00    -0.390 N 
ATOM     15  N   LIG    1       -2.554  -2.886   3.802  0.00  0.00    -0.020 NA
ATOM     16  N   LIG    1       -2.864  -1.735   3.319  0.00  0.00    -0.210 NA
ATOM     17  C   LIG    1       -1.807  -1.208   2.655  0.00  0.00    -0.040 A 
ATOM     18  C   LIG    1       -1.617  -0.009   1.963  0.00  0.00    +0.150 A 
ATOM     19  C   LIG    1       -0.388   0.254   1.373  0.00  0.00    -0.130 A 
ATOM     20  C   LIG    1        0.655  -0.679   1.465  0.00  0.00    +0.120 A 
ATOM     21  C   LIG    1        0.477  -1.848   2.143  0.00  0.00    -0.020 A 
ATOM     22  C   LIG    1       -0.748  -2.130   2.742  0.00  0.00    +0.120 A 
BRANCH  14  24
ATOM     23  C   LIG    1       -0.687  -5.461   2.737  0.00  0.00    +0.040 C 
ATOM     24  C   LIG    1       -0.492  -4.407   3.829  0.00  0.00    +0.320 C 
ENDBRANCH  14  24
ENDBRANCH   1  19
BRANCH   2  25
ATOM     25  C   LIG    1        1.240   3.373  -0.059  0.00  0.00    +0.230 C 
ATOM     26  C   LIG    1        2.565   3.203  -0.805  0.00  0.00    +0.030 C 
ATOM     27  C   LIG    1        1.317   4.607   0.842  0.00  0.00    +0.030 C 
ENDBRANCH   2  25
TORSDOF 4
