REMARK  Name = ZINCpk00000ebKcw.0
REMARK                            x       y       z     vdW  Elec       q    Type
REMARK                         _______ _______ _______ _____ _____    ______ ____
ROOT
ATOM      1  C   LIG    1        1.209  -0.409  -0.005  0.00  0.00    +0.150 A 
ATOM      2  N   LIG    1       -0.042  -0.019  -0.028  0.00  0.00    -0.270 NA
ATOM      3  N   LIG    1       -0.057   1.270  -0.013  0.00  0.00    -0.070 NA
ATOM      4  N   LIG    1        1.151   1.711   0.020  0.00  0.00    -0.080 NA
ATOM      5  N   LIG    1        1.961   0.707   0.026  0.00  0.00    -0.290 N 
ENDROOT
BRANCH   1   6
ATOM      6  C   LIG    1        1.708  -1.831  -0.011  0.00  0.00    +0.450 C 
BRANCH   6  14
ATOM      7  O   LIG    1       -0.406  -2.847  -1.242  0.00  0.00    -0.460 OA
ATOM      8  C   LIG    1        0.605  -2.833  -1.911  0.00  0.00    +0.520 C 
ATOM      9  C   LIG    1        0.568  -3.372  -3.317  0.00  0.00    +0.110 C 
ATOM     10  C   LIG    1        1.618  -2.645  -4.164  0.00  0.00    -0.040 C 
ATOM     11  C   LIG    1        2.983  -2.793  -3.483  0.00  0.00    +0.120 C 
ATOM     12  C   LIG    1        2.887  -2.282  -2.070  0.00  0.00    +0.530 C 
ATOM     13  O   LIG    1        3.872  -1.813  -1.539  0.00  0.00    -0.490 OA
ATOM     14  N   LIG    1        1.734  -2.334  -1.386  0.00  0.00    -0.570 N 
BRANCH  10  15
ATOM     15  C   LIG    1        1.671  -3.267  -5.561  0.00  0.00    +0.390 C 
ATOM     16  F   LIG    1        2.645  -2.616  -6.325  0.00  0.00    -0.200 F 
ATOM     17  F   LIG    1        0.424  -3.131  -6.180  0.00  0.00    -0.200 F 
ENDBRANCH  10  15
ENDBRANCH   6  14
ENDBRANCH   1   6
BRANCH   5  18
ATOM     18  C   LIG    1        3.425   0.769   0.060  0.00  0.00    +0.340 C 
BRANCH  18  19
ATOM     19  C   LIG    1        3.907   0.644   1.506  0.00  0.00    +0.080 C 
BRANCH  19  20
ATOM     20  C   LIG    1        5.402   0.831   1.555  0.00  0.00    -0.090 A 
ATOM     21  C   LIG    1        6.236  -0.271   1.535  0.00  0.00    +0.010 A 
ATOM     22  C   LIG    1        7.608  -0.100   1.575  0.00  0.00    +0.000 A 
ATOM     23  C   LIG    1        8.144   1.172   1.646  0.00  0.00    +0.000 A 
ATOM     24  C   LIG    1        7.309   2.274   1.671  0.00  0.00    +0.000 A 
ATOM     25  C   LIG    1        5.938   2.103   1.626  0.00  0.00    +0.010 A 
ENDBRANCH  19  20
ENDBRANCH  18  19
ENDBRANCH   5  18
TORSDOF 6
