REMARK  Name = ZINCrH00000No4Uz.0
REMARK                            x       y       z     vdW  Elec       q    Type
REMARK                         _______ _______ _______ _____ _____    ______ ____
ROOT
ATOM      1  C   LIG    1       -0.101   5.361  -0.187  0.00  0.00    +0.550 C 
ATOM      2  N   LIG    1       -1.246   5.988  -0.135  0.00  0.00    -0.970 NA
ENDROOT
BRANCH   1  10
ATOM      3  C   LIG    1        4.307   9.073   1.867  0.00  0.00    +0.130 C 
ATOM      4  C   LIG    1        2.995   8.332   1.865  0.00  0.00    -0.120 C 
ATOM      5  C   LIG    1        2.665   7.553   0.819  0.00  0.00    +0.090 C 
ATOM      6  C   LIG    1        1.384   6.830   0.817  0.00  0.00    +0.300 C 
ATOM      7  C   LIG    1        0.463   6.964   1.956  0.00  0.00    +0.010 C 
ATOM      8  C   LIG    1        0.798   7.740   3.003  0.00  0.00    -0.110 C 
ATOM      9  C   LIG    1       -0.142   7.874   4.173  0.00  0.00    +0.130 C 
ATOM     10  N   LIG    1        1.059   6.067  -0.207  0.00  0.00    -0.450 NA
ATOM     11  C   LIG    1        2.078   8.461   3.004  0.00  0.00    +0.400 C 
ATOM     12  O   LIG    1        2.378   9.166   3.950  0.00  0.00    -0.410 OA
ENDBRANCH   1  10
BRANCH   1  13
ATOM     13  C   LIG    1       -0.068   3.879  -0.223  0.00  0.00    -0.170 A 
ATOM     14  C   LIG    1       -0.705   3.140   0.772  0.00  0.00    +0.040 A 
ATOM     15  C   LIG    1       -0.671   1.761   0.734  0.00  0.00    +0.030 A 
ATOM     16  C   LIG    1       -0.005   1.112  -0.290  0.00  0.00    +0.050 A 
ATOM     17  C   LIG    1        0.634   1.840  -1.278  0.00  0.00    +0.020 A 
ATOM     18  C   LIG    1        0.602   3.219  -1.253  0.00  0.00    +0.100 A 
ENDBRANCH   1  13
BRANCH   2  19
ATOM     19  S   LIG    1       -2.663   5.131  -0.193  0.00  0.00    +2.630 S 
ATOM     20  O   LIG    1       -2.875   4.619   1.115  0.00  0.00    -0.960 OA
ATOM     21  O   LIG    1       -2.586   4.307  -1.348  0.00  0.00    -0.960 OA
BRANCH  19  22
ATOM     22  C   LIG    1       -3.959   6.287  -0.491  0.00  0.00    -0.650 A 
ATOM     23  C   LIG    1       -4.610   6.885   0.571  0.00  0.00    +0.120 A 
ATOM     24  C   LIG    1       -5.624   7.795   0.337  0.00  0.00    +0.000 A 
ATOM     25  C   LIG    1       -5.994   8.098  -0.960  0.00  0.00    +0.070 A 
ATOM     26  C   LIG    1       -5.347   7.496  -2.022  0.00  0.00    +0.000 A 
ATOM     27  C   LIG    1       -4.329   6.590  -1.788  0.00  0.00    +0.120 A 
ENDBRANCH  19  22
ENDBRANCH   2  19
TORSDOF 4
