REMARK  Name = ZINCkj00000y7LTF.0
REMARK                            x       y       z     vdW  Elec       q    Type
REMARK                         _______ _______ _______ _____ _____    ______ ____
ROOT
ATOM      1  N   LIG    1       -6.045   1.579   0.665  0.00  0.00    -0.710 N 
ATOM      2  H   LIG    1       -6.058   2.549   0.670  0.00  0.00    +0.420 HD
ATOM      3  C   LIG    1       -4.898   0.921   0.405  0.00  0.00    +0.570 C 
ATOM      4  O   LIG    1       -4.882  -0.295   0.398  0.00  0.00    -0.530 OA
ENDROOT
BRANCH   1  11
ATOM      5  C   LIG    1       -8.242   1.679   1.787  0.00  0.00    +0.170 C 
ATOM      6  C   LIG    1       -9.506   1.837   0.914  0.00  0.00    +0.260 C 
ATOM      7  N   LIG    1       -9.468   0.676  -0.013  0.00  0.00    -0.510 N 
ATOM      8  C   LIG    1       -8.033   0.544  -0.374  0.00  0.00    +0.270 C 
ATOM      9  H   LIG    1      -10.025   0.861  -0.834  0.00  0.00    +0.440 HD
ATOM     10  H   LIG    1       -9.793  -0.158   0.453  0.00  0.00    +0.440 HD
ATOM     11  C   LIG    1       -7.273   0.829   0.940  0.00  0.00    +0.260 C 
BRANCH   5  13
ATOM     12  C   LIG    1       -8.092   3.527   3.305  0.00  0.00    +0.240 C 
ATOM     13  O   LIG    1       -7.667   2.957   2.066  0.00  0.00    -0.360 OA
ENDBRANCH   5  13
ENDBRANCH   1  11
BRANCH   3  14
ATOM     14  C   LIG    1       -3.671   1.671   0.130  0.00  0.00    -0.200 C 
ATOM     15  C   LIG    1       -2.523   1.013  -0.130  0.00  0.00    +0.140 C 
ATOM     16  C   LIG    1       -3.691   3.178   0.139  0.00  0.00    +0.100 C 
BRANCH  15  17
ATOM     17  C   LIG    1       -1.329   1.758  -0.559  0.00  0.00    -0.100 A 
ATOM     18  C   LIG    1       -1.458   2.867  -1.402  0.00  0.00    +0.070 A 
ATOM     19  C   LIG    1       -0.337   3.564  -1.795  0.00  0.00    -0.020 A 
ATOM     20  C   LIG    1        0.919   3.165  -1.361  0.00  0.00    +0.120 A 
ATOM     21  C   LIG    1        1.054   2.063  -0.530  0.00  0.00    -0.020 A 
ATOM     22  F   LIG    1        2.015   3.853  -1.751  0.00  0.00    -0.130 F 
ATOM     23  C   LIG    1       -0.059   1.358  -0.129  0.00  0.00    +0.080 A 
ENDBRANCH  15  17
ENDBRANCH   3  14
TORSDOF 4
