REMARK  Name = ZINCkj000005lc8a.0
REMARK                            x       y       z     vdW  Elec       q    Type
REMARK                         _______ _______ _______ _____ _____    ______ ____
ROOT
ATOM      1  N   LIG    1       -2.983  -3.882   0.410  0.00  0.00    -0.660 N 
ATOM      2  H   LIG    1       -2.230  -4.489   0.480  0.00  0.00    +0.420 HD
ATOM      3  C   LIG    1       -2.776  -2.580   0.131  0.00  0.00    +0.520 C 
ATOM      4  O   LIG    1       -3.720  -1.840  -0.051  0.00  0.00    -0.510 OA
ENDROOT
BRANCH   1   8
ATOM      5  C   LIG    1       -6.861  -5.299   0.976  0.00  0.00    -0.030 A 
ATOM      6  C   LIG    1       -5.892  -6.121   0.393  0.00  0.00    +0.090 A 
ATOM      7  C   LIG    1       -4.612  -5.649   0.207  0.00  0.00    +0.000 A 
ATOM      8  C   LIG    1       -4.282  -4.356   0.600  0.00  0.00    +0.160 A 
ATOM      9  C   LIG    1       -5.241  -3.537   1.186  0.00  0.00    +0.020 A 
ATOM     10  C   LIG    1       -6.525  -4.000   1.369  0.00  0.00    +0.090 A 
BRANCH   5  12
ATOM     11  N   LIG    1       -9.250  -6.173   1.327  0.00  0.00    -0.400 NA
ATOM     12  C   LIG    1       -8.193  -5.786   1.172  0.00  0.00    +0.240 C 
ENDBRANCH   5  12
ENDBRANCH   1   8
BRANCH   3  13
ATOM     13  C   LIG    1       -1.371  -2.042   0.044  0.00  0.00    +0.070 C 
BRANCH  13  14
ATOM     14  C   LIG    1       -1.415  -0.548  -0.283  0.00  0.00    +0.290 C 
BRANCH  14  15
ATOM     15  N   LIG    1       -0.045  -0.025  -0.368  0.00  0.00    -0.390 N 
ATOM     16  C   LIG    1       -0.090   1.430  -0.563  0.00  0.00    +0.270 C 
ATOM     17  C   LIG    1        1.333   1.991  -0.571  0.00  0.00    +0.040 C 
ATOM     18  C   LIG    1        2.124   1.346  -1.712  0.00  0.00    +0.170 C 
ATOM     19  C   LIG    1        2.102  -0.175  -1.540  0.00  0.00    +0.080 C 
ATOM     20  C   LIG    1        0.650  -0.657  -1.496  0.00  0.00    +0.260 C 
ATOM     21  H   LIG    1        0.446  -0.233   0.488  0.00  0.00    +0.420 HD
BRANCH  18  22
ATOM     22  O   LIG    1        3.475   1.811  -1.680  0.00  0.00    -0.550 OA
ATOM     23  H   LIG    1        3.564   2.768  -1.783  0.00  0.00    +0.400 HD
ENDBRANCH  18  22
ENDBRANCH  14  15
ENDBRANCH  13  14
ENDBRANCH   3  13
TORSDOF 6
