REMARK  Name = ZINCpk00000FL4ft.0
REMARK                            x       y       z     vdW  Elec       q    Type
REMARK                         _______ _______ _______ _____ _____    ______ ____
ROOT
ATOM      1  O   LIG    1        2.336   3.858   0.001  0.00  0.00    -0.290 OA
ENDROOT
BRANCH   1   2
ATOM      2  C   LIG    1        1.164   3.174   0.008  0.00  0.00    +0.160 A 
ATOM      3  C   LIG    1        1.175   1.786   0.000  0.00  0.00    -0.040 A 
ATOM      4  C   LIG    1       -0.013   1.076   0.008  0.00  0.00    +0.150 A 
ATOM      5  C   LIG    1       -1.222   1.755   0.017  0.00  0.00    -0.180 A 
ATOM      6  C   LIG    1       -2.637   1.337   0.021  0.00  0.00    +0.580 C 
ATOM      7  N   LIG    1       -3.411   2.437   0.031  0.00  0.00    -0.580 N 
ATOM      8  C   LIG    1       -2.663   3.555   0.046  0.00  0.00    +0.580 C 
ATOM      9  O   LIG    1       -3.088   4.693   0.056  0.00  0.00    -0.460 OA
ATOM     10  C   LIG    1       -4.876   2.420   0.038  0.00  0.00    +0.340 C 
ATOM     11  O   LIG    1       -3.037   0.190   0.016  0.00  0.00    -0.460 OA
ATOM     12  C   LIG    1       -1.236   3.166   0.030  0.00  0.00    -0.100 A 
ATOM     13  C   LIG    1       -0.044   3.868   0.023  0.00  0.00    +0.080 A 
ENDBRANCH   1   2
BRANCH   1  14
ATOM     14  C   LIG    1        3.538   3.086  -0.015  0.00  0.00    +0.320 C 
BRANCH  14  16
ATOM     15  C   LIG    1        5.364   4.518  -1.138  0.00  0.00    -0.250 A 
ATOM     16  C   LIG    1        4.728   4.011  -0.021  0.00  0.00    +0.150 A 
ATOM     17  N   LIG    1        5.363   4.497   1.057  0.00  0.00    -0.340 N 
ATOM     18  N   LIG    1        6.414   5.312   0.624  0.00  0.00    -0.280 NA
ATOM     19  C   LIG    1        5.015   4.218   2.452  0.00  0.00    +0.370 C 
ATOM     20  C   LIG    1        6.422   5.335  -0.680  0.00  0.00    +0.300 A 
BRANCH  15  21
ATOM     21  C   LIG    1        5.005   4.257  -2.543  0.00  0.00    +0.550 C 
ATOM     22  O   LIG    1        4.066   3.532  -2.805  0.00  0.00    -0.520 OA
BRANCH  21  23
ATOM     23  O   LIG    1        5.717   4.823  -3.536  0.00  0.00    -0.350 OA
BRANCH  23  25
ATOM     24  C   LIG    1        6.226   5.249  -5.880  0.00  0.00    +0.070 C 
ATOM     25  C   LIG    1        5.307   4.522  -4.896  0.00  0.00    +0.210 C 
ENDBRANCH  23  25
ENDBRANCH  21  23
ENDBRANCH  15  21
ENDBRANCH  14  16
ENDBRANCH   1  14
TORSDOF 6
