REMARK  Name = ZINCqH0000050jiA.0
REMARK                            x       y       z     vdW  Elec       q    Type
REMARK                         _______ _______ _______ _____ _____    ______ ____
ROOT
ATOM      1  C   LIG    1      -10.325   0.380   0.053  0.00  0.00    +0.600 C 
ATOM      2  N   LIG    1       -9.097   0.079  -0.413  0.00  0.00    -0.610 N 
ATOM      3  C   LIG    1       -8.691   0.484  -1.767  0.00  0.00    +0.260 C 
ATOM      4  C   LIG    1       -8.230  -0.762  -2.534  0.00  0.00    +0.300 C 
ATOM      5  N   LIG    1       -7.273  -1.500  -1.698  0.00  0.00    -0.630 N 
ATOM      6  C   LIG    1       -7.681  -1.910  -0.347  0.00  0.00    +0.270 C 
ATOM      7  C   LIG    1       -6.045  -1.801  -2.165  0.00  0.00    +0.710 C 
ATOM      8  N   LIG    1       -5.220  -2.581  -1.439  0.00  0.00    -0.740 N 
ATOM      9  H   LIG    1       -5.481  -2.867  -0.549  0.00  0.00    +0.390 HD
ATOM     10  O   LIG    1       -5.681  -1.369  -3.242  0.00  0.00    -0.580 OA
ATOM     11  C   LIG    1       -8.139  -0.660   0.422  0.00  0.00    +0.290 C 
ATOM     12  O   LIG    1      -10.608   0.147   1.214  0.00  0.00    -0.520 OA
ENDROOT
BRANCH   8  13
ATOM     13  C   LIG    1       -3.929  -2.998  -1.993  0.00  0.00    +0.250 C 
ATOM     14  C   LIG    1       -4.123  -4.252  -2.848  0.00  0.00    +0.010 C 
ATOM     15  C   LIG    1       -2.775  -4.687  -3.427  0.00  0.00    -0.010 C 
ATOM     16  C   LIG    1       -1.805  -4.994  -2.284  0.00  0.00    +0.030 C 
ATOM     17  C   LIG    1       -1.611  -3.741  -1.428  0.00  0.00    -0.060 C 
ATOM     18  C   LIG    1       -1.040  -2.615  -2.293  0.00  0.00    +0.020 C 
ATOM     19  C   LIG    1       -0.641  -4.048  -0.285  0.00  0.00    +0.040 C 
ATOM     20  C   LIG    1       -2.968  -5.941  -4.282  0.00  0.00    +0.010 C 
ATOM     21  C   LIG    1       -2.959  -3.305  -0.850  0.00  0.00    +0.020 C 
ENDBRANCH   8  13
BRANCH   1  26
ATOM     22  C   LIG    1      -13.254   3.332  -3.396  0.00  0.00    +0.140 C 
ATOM     23  C   LIG    1      -12.661   2.346  -2.423  0.00  0.00    -0.200 A 
ATOM     24  C   LIG    1      -13.298   1.267  -1.953  0.00  0.00    +0.000 A 
ATOM     25  C   LIG    1      -12.571   0.496  -1.077  0.00  0.00    +0.090 A 
ATOM     26  C   LIG    1      -11.319   0.986  -0.837  0.00  0.00    -0.270 A 
ATOM     27  S   LIG    1      -11.088   2.457  -1.772  0.00  0.00    +0.210 S 
ENDBRANCH   1  26
TORSDOF 2
