REMARK  Name = ZINCrH000004nIX1.0
REMARK                            x       y       z     vdW  Elec       q    Type
REMARK                         _______ _______ _______ _____ _____    ______ ____
ROOT
ATOM      1  C   LIG    1        1.538  -2.383   0.065  0.00  0.00    +0.590 C 
ATOM      2  N   LIG    1        0.292  -2.870   0.227  0.00  0.00    -0.600 N 
ATOM      3  C   LIG    1       -0.932  -2.063   0.389  0.00  0.00    +0.260 C 
ATOM      4  C   LIG    1       -1.923  -2.993   1.133  0.00  0.00    +0.030 C 
ATOM      5  C   LIG    1       -1.597  -4.369   0.496  0.00  0.00    +0.050 C 
ATOM      6  C   LIG    1       -0.073  -4.293   0.265  0.00  0.00    +0.220 C 
ATOM      7  O   LIG    1        2.465  -3.141  -0.140  0.00  0.00    -0.500 OA
ENDROOT
BRANCH   1  11
ATOM      8  C   LIG    1        2.127   1.800   0.275  0.00  0.00    -0.040 A 
ATOM      9  C   LIG    1        0.893   1.242   0.315  0.00  0.00    +0.180 A 
ATOM     10  O   LIG    1        0.734  -0.085   0.246  0.00  0.00    -0.190 OA
ATOM     11  C   LIG    1        1.777  -0.923   0.137  0.00  0.00    +0.090 A 
ATOM     12  C   LIG    1        3.049  -0.450   0.090  0.00  0.00    -0.040 A 
ATOM     13  C   LIG    1        3.263   0.954   0.160  0.00  0.00    +0.410 A 
ATOM     14  O   LIG    1        4.391   1.420   0.122  0.00  0.00    -0.450 OA
BRANCH   8  16
ATOM     15  C   LIG    1        1.085   3.930   0.459  0.00  0.00    +0.240 C 
ATOM     16  O   LIG    1        2.277   3.150   0.345  0.00  0.00    -0.280 OA
ENDBRANCH   8  16
ENDBRANCH   1  11
BRANCH   6  17
ATOM     17  C   LIG    1        0.287  -4.958  -1.065  0.00  0.00    +0.030 C 
BRANCH  17  18
ATOM     18  C   LIG    1        0.096  -6.472  -0.947  0.00  0.00    +0.040 C 
ATOM     19  C   LIG    1       -1.390  -6.779  -0.771  0.00  0.00    +0.020 C 
ATOM     20  C   LIG    1       -1.585  -8.297  -0.871  0.00  0.00    +0.020 C 
ATOM     21  C   LIG    1       -1.340  -8.719  -2.318  0.00  0.00    +0.060 C 
ATOM     22  C   LIG    1       -0.025  -8.175  -2.813  0.00  0.00    -0.080 A 
ATOM     23  C   LIG    1        0.526  -8.752  -3.949  0.00  0.00    +0.000 A 
ATOM     24  C   LIG    1        1.722  -8.291  -4.460  0.00  0.00    +0.000 A 
ATOM     25  C   LIG    1        2.378  -7.247  -3.834  0.00  0.00    +0.000 A 
ATOM     26  C   LIG    1        1.834  -6.675  -2.703  0.00  0.00    +0.000 A 
ATOM     27  C   LIG    1        0.631  -7.139  -2.187  0.00  0.00    -0.070 A 
ENDBRANCH  17  18
ENDBRANCH   6  17
TORSDOF 4
