REMARK  Name = ZINCrD00000l5PGP.0
REMARK                            x       y       z     vdW  Elec       q    Type
REMARK                         _______ _______ _______ _____ _____    ______ ____
ROOT
ATOM      1  C   LIG    1        5.825  -0.728   1.913  0.00  0.00    +0.570 C 
ATOM      2  N   LIG    1        6.527  -0.515   0.783  0.00  0.00    -0.610 N 
ATOM      3  C   LIG    1        7.834  -1.158   0.570  0.00  0.00    +0.260 C 
ATOM      4  C   LIG    1        7.822  -1.832  -0.807  0.00  0.00    +0.220 C 
ATOM      5  O   LIG    1        7.414  -0.881  -1.794  0.00  0.00    -0.360 OA
ATOM      6  C   LIG    1        6.088  -0.380  -1.611  0.00  0.00    +0.240 C 
ATOM      7  C   LIG    1        6.010   0.368  -0.275  0.00  0.00    +0.340 C 
ATOM      8  O   LIG    1        4.702  -0.277   2.026  0.00  0.00    -0.510 OA
ENDROOT
BRANCH   1  13
ATOM      9  C   LIG    1        8.151  -3.773   6.209  0.00  0.00    +0.110 C 
ATOM     10  C   LIG    1        7.542  -2.976   5.085  0.00  0.00    -0.090 A 
ATOM     11  C   LIG    1        8.359  -2.293   4.203  0.00  0.00    +0.040 A 
ATOM     12  C   LIG    1        7.808  -1.566   3.168  0.00  0.00    +0.040 A 
ATOM     13  C   LIG    1        6.421  -1.510   3.018  0.00  0.00    -0.110 A 
ATOM     14  C   LIG    1        5.600  -2.200   3.910  0.00  0.00    +0.060 A 
ATOM     15  C   LIG    1        6.164  -2.930   4.939  0.00  0.00    +0.090 A 
ATOM     16  F   LIG    1        5.372  -3.599   5.805  0.00  0.00    -0.130 F 
ENDBRANCH   1  13
BRANCH   7  17
ATOM     17  C   LIG    1        4.578   0.730   0.022  0.00  0.00    +0.200 A 
ATOM     18  N   LIG    1        4.121   1.923   0.312  0.00  0.00    -0.470 NA
ATOM     19  C   LIG    1        2.792   1.766   0.502  0.00  0.00    +0.220 A 
ATOM     20  N   LIG    1        2.520   0.502   0.308  0.00  0.00    -0.360 NA
ATOM     21  O   LIG    1        3.534  -0.105   0.033  0.00  0.00    +0.100 OA
BRANCH  19  22
ATOM     22  C   LIG    1        1.821   2.831   0.857  0.00  0.00    -0.020 A 
ATOM     23  C   LIG    1        0.471   2.523   1.016  0.00  0.00    +0.040 A 
ATOM     24  C   LIG    1       -0.428   3.518   1.341  0.00  0.00    +0.010 A 
ATOM     25  C   LIG    1        0.010   4.818   1.520  0.00  0.00    +0.030 A 
ATOM     26  C   LIG    1        1.349   5.130   1.364  0.00  0.00    +0.010 A 
ATOM     27  C   LIG    1        2.256   4.143   1.033  0.00  0.00    +0.050 A 
ENDBRANCH  19  22
ENDBRANCH   7  17
TORSDOF 3
