REMARK  Name = ZINCtV000002K7lH.0
REMARK                            x       y       z     vdW  Elec       q    Type
REMARK                         _______ _______ _______ _____ _____    ______ ____
ROOT
ATOM      1  C   LIG    1       -3.497  -0.848   2.274  0.00  0.00    +0.100 C 
ENDROOT
BRANCH   1   2
ATOM      2  C   LIG    1       -2.128  -0.242   2.108  0.00  0.00    +0.550 C 
ATOM      3  N   LIG    1       -1.985   0.933   1.463  0.00  0.00    -0.560 N 
ATOM      4  C   LIG    1       -0.659   1.542   1.289  0.00  0.00    +0.300 C 
ATOM      5  C   LIG    1       -0.013   1.086   0.008  0.00  0.00    +0.030 C 
ATOM      6  C   LIG    1       -0.690   1.561  -1.268  0.00  0.00    +0.030 C 
ATOM      7  S   LIG    1       -2.277   0.707  -1.492  0.00  0.00    -0.150 S 
ATOM      8  C   LIG    1       -3.350   1.640  -0.425  0.00  0.00    -0.100 A 
ATOM      9  C   LIG    1       -4.401   2.368  -0.944  0.00  0.00    +0.080 A 
ATOM     10  C   LIG    1       -5.237   3.058  -0.079  0.00  0.00    +0.030 A 
ATOM     11  C   LIG    1       -5.013   3.003   1.284  0.00  0.00    +0.040 A 
ATOM     12  C   LIG    1       -3.953   2.282   1.799  0.00  0.00    +0.010 A 
ATOM     13  C   LIG    1        0.218   1.266  -2.463  0.00  0.00    +0.070 C 
ATOM     14  C   LIG    1       -3.095   1.603   0.940  0.00  0.00    +0.150 A 
ATOM     15  O   LIG    1       -1.154  -0.810   2.556  0.00  0.00    -0.510 OA
ENDBRANCH   1   2
BRANCH   1  16
ATOM     16  S   LIG    1       -3.359  -2.412   3.176  0.00  0.00    +0.060 S 
BRANCH  16  21
ATOM     17  C   LIG    1       -8.579  -2.434   2.510  0.00  0.00    +0.140 C 
ATOM     18  C   LIG    1       -7.203  -2.876   2.939  0.00  0.00    +0.010 A 
ATOM     19  C   LIG    1       -6.913  -4.001   3.613  0.00  0.00    -0.020 A 
ATOM     20  N   LIG    1       -5.548  -4.020   3.795  0.00  0.00    -0.430 N 
ATOM     21  C   LIG    1       -5.055  -2.887   3.225  0.00  0.00    +0.180 A 
ATOM     22  C   LIG    1       -7.894  -5.047   4.077  0.00  0.00    +0.130 C 
ATOM     23  N   LIG    1       -6.058  -2.211   2.712  0.00  0.00    -0.480 NA
BRANCH  20  24
ATOM     24  C   LIG    1       -4.774  -5.061   4.476  0.00  0.00    +0.230 C 
ATOM     25  C   LIG    1       -4.037  -4.450   5.669  0.00  0.00    +0.010 C 
ATOM     26  C   LIG    1       -3.229  -5.537   6.380  0.00  0.00    +0.020 C 
ATOM     27  C   LIG    1       -2.213  -6.137   5.406  0.00  0.00    +0.010 C 
ATOM     28  C   LIG    1       -2.950  -6.748   4.213  0.00  0.00    +0.030 C 
ATOM     29  C   LIG    1       -3.759  -5.661   3.502  0.00  0.00    +0.010 C 
ENDBRANCH  20  24
ENDBRANCH  16  21
ENDBRANCH   1  16
TORSDOF 4
