REMARK  Name = ZINCvU00000004yY.0
REMARK                            x       y       z     vdW  Elec       q    Type
REMARK                         _______ _______ _______ _____ _____    ______ ____
ROOT
ATOM      1  N   LIG    1        2.051   4.401  -1.099  0.00  0.00    -0.450 N 
ATOM      2  C   LIG    1        1.925   3.595  -0.000  0.00  0.00    +0.190 A 
ATOM      3  N   LIG    1        2.057   4.352   1.052  0.00  0.00    -0.250 NA
ATOM      4  N   LIG    1        2.251   5.572   0.698  0.00  0.00    -0.290 NA
ATOM      5  C   LIG    1        2.254   5.660  -0.612  0.00  0.00    +0.150 A 
ENDROOT
BRANCH   1   7
ATOM      6  C   LIG    1        0.532   4.086  -2.989  0.00  0.00    +0.050 C 
ATOM      7  C   LIG    1        1.980   3.996  -2.505  0.00  0.00    +0.290 C 
ENDBRANCH   1   7
BRANCH   2   8
ATOM      8  C   LIG    1        1.685   2.107  -0.007  0.00  0.00    +0.240 C 
BRANCH   8   9
ATOM      9  S   LIG    1       -0.096   1.784   0.005  0.00  0.00    +0.040 S 
BRANCH   9  10
ATOM     10  C   LIG    1       -0.086   0.022  -0.005  0.00  0.00    +0.080 A 
ATOM     11  N   LIG    1        0.977  -0.709  -0.022  0.00  0.00    -0.470 NA
ATOM     12  C   LIG    1        0.821  -2.048  -0.023  0.00  0.00    +0.090 A 
ATOM     13  C   LIG    1        1.812  -3.052  -0.037  0.00  0.00    +0.080 A 
ATOM     14  C   LIG    1        1.458  -4.378  -0.042  0.00  0.00    +0.040 A 
ATOM     15  C   LIG    1        0.122  -4.752  -0.034  0.00  0.00    +0.040 A 
ATOM     16  C   LIG    1       -0.862  -3.789  -0.021  0.00  0.00    +0.060 A 
ATOM     17  C   LIG    1       -0.522  -2.439  -0.015  0.00  0.00    -0.170 A 
ATOM     18  S   LIG    1       -1.524  -0.990   0.001  0.00  0.00    +0.120 S 
ENDBRANCH   9  10
ENDBRANCH   8   9
ENDBRANCH   2   8
BRANCH   5  19
ATOM     19  S   LIG    1        2.483   7.126  -1.563  0.00  0.00    +0.100 S 
BRANCH  19  20
ATOM     20  C   LIG    1        2.689   8.335  -0.231  0.00  0.00    +0.120 C 
BRANCH  20  21
ATOM     21  C   LIG    1        2.905   9.703  -0.824  0.00  0.00    +0.540 C 
ATOM     22  N   LIG    1        3.084  10.767  -0.017  0.00  0.00    -0.660 N 
ATOM     23  H   LIG    1        3.009  10.664   0.945  0.00  0.00    +0.420 HD
ATOM     24  O   LIG    1        2.919   9.847  -2.029  0.00  0.00    -0.500 OA
BRANCH  22  25
ATOM     25  C   LIG    1        3.378  12.023  -0.566  0.00  0.00    +0.100 A 
ATOM     26  C   LIG    1        2.825  12.395  -1.783  0.00  0.00    +0.100 A 
ATOM     27  C   LIG    1        3.111  13.636  -2.320  0.00  0.00    +0.010 A 
ATOM     28  C   LIG    1        3.958  14.503  -1.652  0.00  0.00    +0.120 A 
ATOM     29  C   LIG    1        4.517  14.132  -0.440  0.00  0.00    -0.010 A 
ATOM     30  F   LIG    1        4.240  15.713  -2.183  0.00  0.00    -0.130 F 
ATOM     31  C   LIG    1        4.228  12.895   0.105  0.00  0.00    +0.110 A 
ATOM     32  F   LIG    1        4.773  12.533   1.287  0.00  0.00    -0.130 F 
ENDBRANCH  22  25
ENDBRANCH  20  21
ENDBRANCH  19  20
ENDBRANCH   5  19
TORSDOF 8
