REMARK  Name = ZINCvU0000000Cb1.0
REMARK                            x       y       z     vdW  Elec       q    Type
REMARK                         _______ _______ _______ _____ _____    ______ ____
ROOT
ATOM      1  C   LIG    1       -0.361  -0.774   1.065  0.00  0.00    -0.150 A 
ATOM      2  C   LIG    1        0.467  -1.516   0.222  0.00  0.00    +0.110 A 
ATOM      3  C   LIG    1        0.500  -2.892   0.329  0.00  0.00    +0.010 A 
ATOM      4  C   LIG    1       -0.293  -3.535   1.262  0.00  0.00    +0.150 A 
ATOM      5  C   LIG    1       -1.121  -2.805   2.097  0.00  0.00    -0.680 A 
ATOM      6  C   LIG    1       -1.159  -1.429   2.004  0.00  0.00    +0.190 A 
ENDROOT
BRANCH   1  13
ATOM      7  C   LIG    1       -0.253   2.753  -0.367  0.00  0.00    +0.220 C 
ATOM      8  C   LIG    1       -1.376   3.247  -1.285  0.00  0.00    +0.020 C 
ATOM      9  C   LIG    1       -1.301   2.504  -2.621  0.00  0.00    +0.020 C 
ATOM     10  C   LIG    1       -1.494   1.004  -2.384  0.00  0.00    +0.010 C 
ATOM     11  C   LIG    1       -0.372   0.486  -1.479  0.00  0.00    +0.250 C 
ATOM     12  N   LIG    1       -0.341   1.291  -0.251  0.00  0.00    -0.600 N 
ATOM     13  C   LIG    1       -0.397   0.701   0.959  0.00  0.00    +0.560 C 
ATOM     14  O   LIG    1       -0.477   1.380   1.964  0.00  0.00    -0.520 OA
BRANCH   7  16
ATOM     15  C   LIG    1       -0.311   4.913   0.887  0.00  0.00    +0.000 C 
ATOM     16  C   LIG    1       -0.403   3.392   1.015  0.00  0.00    +0.050 C 
ENDBRANCH   7  16
ENDBRANCH   1  13
BRANCH   5  17
ATOM     17  S   LIG    1       -2.127  -3.634   3.282  0.00  0.00    +2.690 S 
ATOM     18  O   LIG    1       -2.406  -2.688   4.304  0.00  0.00    -0.930 OA
ATOM     19  O   LIG    1       -1.504  -4.887   3.531  0.00  0.00    -0.940 OA
BRANCH  17  20
ATOM     20  N   LIG    1       -3.573  -3.969   2.548  0.00  0.00    -1.050 N 
ATOM     21  H   LIG    1       -4.396  -3.602   2.908  0.00  0.00    +0.430 HD
BRANCH  20  22
ATOM     22  C   LIG    1       -3.608  -4.780   1.410  0.00  0.00    +0.170 A 
ATOM     23  C   LIG    1       -2.687  -5.808   1.259  0.00  0.00    +0.050 A 
ATOM     24  C   LIG    1       -2.725  -6.607   0.134  0.00  0.00    -0.150 A 
ATOM     25  C   LIG    1       -3.678  -6.386  -0.843  0.00  0.00    +0.080 A 
ATOM     26  C   LIG    1       -4.597  -5.363  -0.697  0.00  0.00    +0.070 A 
ATOM     27  C   LIG    1       -4.569  -4.562   0.429  0.00  0.00    -0.030 A 
ATOM     28 CL   LIG    1       -5.728  -3.283   0.615  0.00  0.00    -0.040 Cl
BRANCH  24  29
ATOM     29  C   LIG    1       -1.725  -7.723  -0.030  0.00  0.00    +0.510 C 
ATOM     30  F   LIG    1       -0.532  -7.379   0.614  0.00  0.00    -0.170 F 
ATOM     31  F   LIG    1       -1.477  -7.931  -1.391  0.00  0.00    -0.170 F 
ATOM     32  F   LIG    1       -2.239  -8.896   0.534  0.00  0.00    -0.170 F 
ENDBRANCH  24  29
ENDBRANCH  20  22
ENDBRANCH  17  20
ENDBRANCH   5  17
TORSDOF 6
