REMARK  Name = ZINCrg00000SjSrL.0
REMARK                            x       y       z     vdW  Elec       q    Type
REMARK                         _______ _______ _______ _____ _____    ______ ____
ROOT
ATOM      1  N   LIG    1       -0.750  -1.972  -1.379  0.00  0.00    -0.390 N 
ATOM      2  N   LIG    1       -1.499  -1.996  -2.568  0.00  0.00    -0.040 NA
ATOM      3  N   LIG    1       -1.691  -0.769  -2.914  0.00  0.00    -0.020 NA
ATOM      4  N   LIG    1       -1.145   0.024  -2.063  0.00  0.00    -0.360 NA
ATOM      5  C   LIG    1       -0.553  -0.661  -1.109  0.00  0.00    +0.410 A 
ENDROOT
BRANCH   5   6
ATOM      6  N   LIG    1        0.137  -0.139  -0.030  0.00  0.00    -0.440 N 
ATOM      7  C   LIG    1        1.525  -0.628  -0.005  0.00  0.00    +0.240 C 
ATOM      8  C   LIG    1        2.405   0.560   0.430  0.00  0.00    -0.020 C 
ATOM      9  C   LIG    1        1.606   1.800  -0.041  0.00  0.00    +0.030 C 
ATOM     10  C   LIG    1        2.353   1.642  -1.396  0.00  0.00    +0.060 C 
ATOM     11  C   LIG    1        3.471   0.934  -0.614  0.00  0.00    +0.270 C 
ATOM     12  F   LIG    1        4.011  -0.170  -1.282  0.00  0.00    -0.190 F 
ATOM     13  F   LIG    1        4.450   1.805  -0.125  0.00  0.00    -0.170 F 
ATOM     14  C   LIG    1        0.143   1.332  -0.070  0.00  0.00    +0.270 C 
ENDBRANCH   5   6
BRANCH   1  15
ATOM     15  C   LIG    1       -0.283  -3.121  -0.599  0.00  0.00    +0.390 C 
BRANCH  15  21
ATOM     16  C   LIG    1       -2.357  -4.214   0.278  0.00  0.00    -0.650 A 
ATOM     17  C   LIG    1       -3.252  -4.479   1.297  0.00  0.00    +0.100 A 
ATOM     18  C   LIG    1       -3.056  -3.926   2.549  0.00  0.00    +0.020 A 
ATOM     19  C   LIG    1       -1.963  -3.112   2.782  0.00  0.00    +0.070 A 
ATOM     20  C   LIG    1       -1.066  -2.852   1.764  0.00  0.00    +0.040 A 
ATOM     21  C   LIG    1       -1.261  -3.405   0.512  0.00  0.00    -0.030 A 
BRANCH  16  22
ATOM     22  S   LIG    1       -2.611  -4.914  -1.320  0.00  0.00    +2.680 S 
ATOM     23  O   LIG    1       -1.397  -5.564  -1.670  0.00  0.00    -0.950 OA
ATOM     24  O   LIG    1       -3.204  -3.896  -2.114  0.00  0.00    -0.920 OA
BRANCH  22  26
ATOM     25  C   LIG    1       -5.174  -5.769  -1.220  0.00  0.00    +0.300 C 
ATOM     26  N   LIG    1       -3.749  -6.105  -1.158  0.00  0.00    -1.010 NA
ATOM     27  C   LIG    1       -3.332  -7.494  -0.954  0.00  0.00    +0.310 C 
ENDBRANCH  22  26
ENDBRANCH  16  22
ENDBRANCH  15  21
ENDBRANCH   1  15
TORSDOF 5
