REMARK  Name = ZINCvU0000000AMf.0
REMARK                            x       y       z     vdW  Elec       q    Type
REMARK                         _______ _______ _______ _____ _____    ______ ____
ROOT
ATOM      1  C   LIG    1        1.054  -2.774  -1.181  0.00  0.00    +0.600 C 
ATOM      2  N   LIG    1        1.502  -1.923  -0.236  0.00  0.00    -0.720 N 
ATOM      3  H   LIG    1        1.899  -2.269   0.578  0.00  0.00    +0.410 HD
ATOM      4  O   LIG    1        0.557  -2.340  -2.203  0.00  0.00    -0.520 OA
ENDROOT
BRANCH   1   6
ATOM      5  C   LIG    1        0.254  -5.045  -0.385  0.00  0.00    +0.100 A 
ATOM      6  C   LIG    1        1.166  -4.226  -0.976  0.00  0.00    -0.230 A 
ATOM      7  C   LIG    1        2.294  -5.096  -1.363  0.00  0.00    -0.100 A 
ATOM      8  C   LIG    1        3.516  -4.880  -1.990  0.00  0.00    +0.060 A 
ATOM      9  C   LIG    1        4.368  -5.943  -2.208  0.00  0.00    +0.010 A 
ATOM     10  C   LIG    1        4.007  -7.220  -1.807  0.00  0.00    +0.050 A 
ATOM     11  C   LIG    1        2.797  -7.445  -1.185  0.00  0.00    +0.040 A 
ATOM     12  C   LIG    1        1.926  -6.387  -0.956  0.00  0.00    +0.050 A 
ATOM     13  O   LIG    1        0.707  -6.304  -0.384  0.00  0.00    -0.180 OA
BRANCH   5  14
ATOM     14  C   LIG    1       -1.070  -4.600   0.181  0.00  0.00    +0.150 C 
BRANCH  14  15
ATOM     15  C   LIG    1       -2.142  -4.679  -0.907  0.00  0.00    +0.020 C 
BRANCH  15  17
ATOM     16  C   LIG    1       -4.559  -4.306  -1.421  0.00  0.00    +0.030 C 
ATOM     17  C   LIG    1       -3.486  -4.228  -0.332  0.00  0.00    +0.010 C 
ENDBRANCH  15  17
ENDBRANCH  14  15
ENDBRANCH   5  14
ENDBRANCH   1   6
BRANCH   2  18
ATOM     18  C   LIG    1        1.391  -0.477  -0.441  0.00  0.00    +0.230 C 
ATOM     19  C   LIG    1        2.462   0.239   0.387  0.00  0.00    +0.040 C 
ATOM     20  C   LIG    1        2.500   1.721  -0.009  0.00  0.00    +0.180 C 
ATOM     21  C   LIG    1        1.084   2.249   0.004  0.00  0.00    +0.210 A 
ATOM     22  N   LIG    1        0.711   3.495   0.012  0.00  0.00    -0.470 NA
ATOM     23  C   LIG    1       -0.638   3.553   0.026  0.00  0.00    +0.040 A 
ATOM     24  C   LIG    1       -1.108   2.277   0.019  0.00  0.00    +0.150 A 
ATOM     25  N   LIG    1       -0.018   1.461   0.010  0.00  0.00    -0.450 N 
ATOM     26  C   LIG    1        0.002  -0.004   0.002  0.00  0.00    +0.280 C 
BRANCH  23  27
ATOM     27  C   LIG    1       -1.460   4.788   0.039  0.00  0.00    -0.000 A 
ATOM     28  C   LIG    1       -2.851   4.702   0.046  0.00  0.00    +0.010 A 
ATOM     29  C   LIG    1       -3.610   5.854   0.065  0.00  0.00    +0.000 A 
ATOM     30  C   LIG    1       -2.994   7.093   0.064  0.00  0.00    +0.000 A 
ATOM     31  C   LIG    1       -1.613   7.184   0.050  0.00  0.00    +0.000 A 
ATOM     32  C   LIG    1       -0.844   6.038   0.038  0.00  0.00    +0.030 A 
ENDBRANCH  23  27
ENDBRANCH   2  18
TORSDOF 6
