REMARK  Name = ZINCrD000000AjfA.0
REMARK                            x       y       z     vdW  Elec       q    Type
REMARK                         _______ _______ _______ _____ _____    ______ ____
ROOT
ATOM      1  O   LIG    1        9.905  -0.769   0.297  0.00  0.00    -0.530 OA
ATOM      2  C   LIG    1        9.310  -0.822   1.352  0.00  0.00    +0.530 C 
ATOM      3  N   LIG    1        9.992  -0.776   2.514  0.00  0.00    -0.610 N 
ATOM      4  C   LIG    1        9.301  -0.838   3.809  0.00  0.00    +0.330 C 
ATOM      5  C   LIG    1        9.902   0.180   4.739  0.00  0.00    -0.050 C 
ATOM      6  C   LIG    1       11.013   0.827   4.480  0.00  0.00    -0.070 C 
ATOM      7  C   LIG    1       11.820   0.657   3.227  0.00  0.00    +0.070 C 
ATOM      8  C   LIG    1       11.461  -0.666   2.535  0.00  0.00    +0.290 C 
ENDROOT
BRANCH   6   9
ATOM      9  C   LIG    1       11.502   1.789   5.490  0.00  0.00    -0.060 A 
ATOM     10  C   LIG    1       11.562   3.150   5.190  0.00  0.00    +0.010 A 
ATOM     11  C   LIG    1       12.015   4.043   6.139  0.00  0.00    +0.000 A 
ATOM     12  C   LIG    1       12.418   3.591   7.383  0.00  0.00    +0.000 A 
ATOM     13  C   LIG    1       12.366   2.241   7.685  0.00  0.00    +0.000 A 
ATOM     14  C   LIG    1       11.910   1.339   6.746  0.00  0.00    +0.010 A 
ENDBRANCH   6   9
BRANCH   2  15
ATOM     15  C   LIG    1        7.807  -0.941   1.365  0.00  0.00    +0.080 C 
BRANCH  15  16
ATOM     16  C   LIG    1        7.286  -0.973  -0.072  0.00  0.00    +0.230 C 
BRANCH  16  17
ATOM     17  C   LIG    1        5.784  -1.091  -0.059  0.00  0.00    +0.190 A 
ATOM     18  N   LIG    1        4.925  -0.102  -0.046  0.00  0.00    -0.470 NA
ATOM     19  C   LIG    1        3.704  -0.681  -0.037  0.00  0.00    +0.210 A 
ATOM     20  N   LIG    1        3.890  -1.975  -0.041  0.00  0.00    -0.360 NA
ATOM     21  O   LIG    1        5.076  -2.226  -0.058  0.00  0.00    +0.090 OA
BRANCH  19  22
ATOM     22  C   LIG    1        2.395   0.021  -0.021  0.00  0.00    +0.020 A 
ATOM     23  C   LIG    1        1.196  -0.696  -0.013  0.00  0.00    +0.000 A 
ATOM     24  C   LIG    1        0.002  -0.004   0.002  0.00  0.00    +0.270 A 
ATOM     25  N   LIG    1       -0.016   1.315   0.009  0.00  0.00    -0.470 NA
ATOM     26  C   LIG    1        1.093   2.029   0.003  0.00  0.00    +0.270 A 
ATOM     27  C   LIG    1        2.330   1.416  -0.013  0.00  0.00    +0.020 A 
ENDBRANCH  19  22
ENDBRANCH  16  17
ENDBRANCH  15  16
ENDBRANCH   2  15
TORSDOF 5
