REMARK  Name = ZINC5a0000002pGH.0
REMARK                            x       y       z     vdW  Elec       q    Type
REMARK                         _______ _______ _______ _____ _____    ______ ____
ROOT
ATOM      1  C   LIG    1       -0.015   1.215   0.009  0.00  0.00    +0.490 C 
ATOM      2  O   LIG    1        1.033   1.839   0.002  0.00  0.00    -0.710 OA
ATOM      3  O   LIG    1        0.002  -0.004   0.002  0.00  0.00    -0.700 OA
ENDROOT
BRANCH   1   5
ATOM      4  C   LIG    1       -2.479   0.941   0.019  0.00  0.00    +0.010 C 
ATOM      5  C   LIG    1       -1.330   1.951   0.019  0.00  0.00    -0.090 C 
ENDBRANCH   1   5
TORSDOF 1
