REMARK  Name = ZINCpk00000xI30p.0
REMARK                            x       y       z     vdW  Elec       q    Type
REMARK                         _______ _______ _______ _____ _____    ______ ____
ROOT
ATOM      1  C   LIG    1        0.126   3.019   4.505  0.00  0.00    +0.210 C 
ENDROOT
BRANCH   1   4
ATOM      2  N   LIG    1        1.234   5.231   4.523  0.00  0.00    -0.730 N 
ATOM      3  H   LIG    1        1.775   4.921   5.266  0.00  0.00    +0.400 HD
ATOM      4  C   LIG    1        0.356   4.395   3.934  0.00  0.00    +0.510 C 
ATOM      5  O   LIG    1       -0.250   4.750   2.945  0.00  0.00    -0.490 OA
BRANCH   2   7
ATOM      6  C   LIG    1        1.869   6.577   2.594  0.00  0.00    +0.060 C 
ATOM      7  C   LIG    1        1.372   6.607   4.040  0.00  0.00    +0.190 C 
ATOM      8  C   LIG    1        2.399   7.332   4.901  0.00  0.00    +0.080 C 
ATOM      9  C   LIG    1        1.806   8.573   5.599  0.00  0.00    -0.300 C 
ATOM     10  S   LIG    1        0.014   8.174   5.689  0.00  0.00    +2.370 S 
ATOM     11  O   LIG    1       -0.750   9.369   5.595  0.00  0.00    -0.930 OA
ATOM     12  O   LIG    1       -0.223   7.254   6.746  0.00  0.00    -0.920 OA
ATOM     13  C   LIG    1       -0.010   7.291   4.077  0.00  0.00    -0.280 C 
ENDBRANCH   2   7
ENDBRANCH   1   4
BRANCH   1  14
ATOM     14  N   LIG    1       -0.869   2.311   3.688  0.00  0.00    -0.510 NA
BRANCH  14  15
ATOM     15  C   LIG    1       -0.285   1.867   2.415  0.00  0.00    +0.210 C 
BRANCH  15  16
ATOM     16  C   LIG    1       -1.397   1.360   1.494  0.00  0.00    +0.150 C 
ATOM     17  C   LIG    1       -0.795   0.772   0.199  0.00  0.00    +0.010 C 
ATOM     18  C   LIG    1       -1.791   1.192  -0.906  0.00  0.00    +0.000 C 
ATOM     19  C   LIG    1       -2.880   1.983  -0.148  0.00  0.00    +0.190 C 
ATOM     20  O   LIG    1       -2.226   2.458   1.048  0.00  0.00    -0.340 OA
ENDBRANCH  15  16
ENDBRANCH  14  15
BRANCH  14  21
ATOM     21  C   LIG    1       -1.445   1.179   4.426  0.00  0.00    +0.270 C 
BRANCH  21  22
ATOM     22  C   LIG    1       -2.369   1.696   5.498  0.00  0.00    -0.180 A 
ATOM     23  C   LIG    1       -3.651   2.021   5.317  0.00  0.00    +0.030 A 
ATOM     24  C   LIG    1       -4.303   2.472   6.452  0.00  0.00    +0.000 A 
ATOM     25  C   LIG    1       -3.550   2.522   7.551  0.00  0.00    -0.040 A 
ATOM     26  S   LIG    1       -1.922   1.971   7.177  0.00  0.00    +0.080 S 
ENDBRANCH  21  22
ENDBRANCH  14  21
ENDBRANCH   1  14
TORSDOF 7
