REMARK  Name = ZINCpe00000gMYjQ.1
REMARK                            x       y       z     vdW  Elec       q    Type
REMARK                         _______ _______ _______ _____ _____    ______ ____
ROOT
ATOM      1  C   LIG    1        1.671   4.662   2.918  0.00  0.00    +0.180 C 
ATOM      2  C   LIG    1        1.017   3.700   3.877  0.00  0.00    +0.120 A 
ATOM      3  N   LIG    1        0.719   3.939   5.122  0.00  0.00    -0.230 NA
ATOM      4  N   LIG    1        0.123   2.813   5.698  0.00  0.00    -0.390 N 
ATOM      5  C   LIG    1        0.043   1.817   4.766  0.00  0.00    +0.340 A 
ATOM      6  N   LIG    1       -0.427   0.574   4.799  0.00  0.00    -0.500 NA
ATOM      7  C   LIG    1       -0.394  -0.207   3.745  0.00  0.00    +0.410 A 
ATOM      8  C   LIG    1        0.151   0.230   2.530  0.00  0.00    -0.230 A 
ATOM      9  C   LIG    1        0.659   1.527   2.439  0.00  0.00    +0.190 A 
ATOM     10  C   LIG    1        0.604   2.333   3.578  0.00  0.00    -0.230 A 
ENDROOT
BRANCH   8  11
ATOM     11  C   LIG    1        0.183  -0.669   1.359  0.00  0.00    +0.570 C 
ATOM     12  N   LIG    1       -0.010  -0.170   0.121  0.00  0.00    -0.600 N 
ATOM     13  C   LIG    1       -0.172   1.273  -0.070  0.00  0.00    +0.290 C 
ATOM     14  O   LIG    1        0.384  -1.858   1.510  0.00  0.00    -0.530 OA
BRANCH  12  15
ATOM     15  C   LIG    1       -0.059  -1.072  -1.032  0.00  0.00    +0.220 C 
ATOM     16  C   LIG    1       -1.328  -0.799  -1.844  0.00  0.00    +0.220 C 
ATOM     17  N   LIG    1       -0.958  -0.395  -3.207  0.00  0.00    -0.530 NA
ATOM     18  C   LIG    1       -0.177   0.850  -3.194  0.00  0.00    +0.210 C 
ATOM     19  C   LIG    1        1.125   0.625  -2.421  0.00  0.00    -0.020 C 
ATOM     20  C   LIG    1       -0.227  -1.467  -3.896  0.00  0.00    +0.210 C 
ATOM     21  C   LIG    1        1.074  -1.760  -3.142  0.00  0.00    -0.010 C 
ATOM     22  C   LIG    1        1.163  -0.827  -1.927  0.00  0.00    -0.020 C 
ENDBRANCH  12  15
ENDBRANCH   8  11
BRANCH   4  23
ATOM     23  C   LIG    1       -0.343   2.716   7.083  0.00  0.00    +0.360 C 
BRANCH  23  24
ATOM     24  C   LIG    1       -1.805   3.163   7.162  0.00  0.00    +0.160 C 
BRANCH  24  25
ATOM     25  O   LIG    1       -2.259   3.069   8.514  0.00  0.00    -0.570 OA
ATOM     26  H   LIG    1       -3.180   3.338   8.638  0.00  0.00    +0.390 HD
ENDBRANCH  24  25
ENDBRANCH  23  24
ENDBRANCH   4  23
TORSDOF 5
