REMARK  Name = ZINCrD00000i9TkJ.0
REMARK                            x       y       z     vdW  Elec       q    Type
REMARK                         _______ _______ _______ _____ _____    ______ ____
ROOT
ATOM      1  C   LIG    1       -1.381   6.053  -0.068  0.00  0.00    +0.280 C 
ENDROOT
BRANCH   1   2
ATOM      2  C   LIG    1       -1.951   5.883  -1.452  0.00  0.00    -0.100 A 
ATOM      3  C   LIG    1       -1.412   6.587  -2.513  0.00  0.00    +0.020 A 
ATOM      4  C   LIG    1       -1.931   6.427  -3.784  0.00  0.00    +0.010 A 
ATOM      5  C   LIG    1       -2.996   5.571  -3.993  0.00  0.00    +0.020 A 
ATOM      6  C   LIG    1       -3.539   4.871  -2.931  0.00  0.00    +0.010 A 
ATOM      7  C   LIG    1       -3.017   5.027  -1.661  0.00  0.00    +0.040 A 
ENDBRANCH   1   2
BRANCH   1   8
ATOM      8  N   LIG    1       -1.192   7.479   0.211  0.00  0.00    -0.700 N 
ATOM      9  H   LIG    1       -0.329   7.894   0.056  0.00  0.00    +0.420 HD
ATOM     10  C   LIG    1       -2.218   8.215   0.682  0.00  0.00    +0.500 C 
ATOM     11  O   LIG    1       -3.298   7.697   0.876  0.00  0.00    -0.440 OA
BRANCH  10  12
ATOM     12  C   LIG    1       -2.024   9.682   0.969  0.00  0.00    +0.370 C 
ATOM     13  F   LIG    1       -2.213  10.416  -0.207  0.00  0.00    -0.160 F 
ATOM     14  F   LIG    1       -0.727   9.896   1.448  0.00  0.00    -0.170 F 
BRANCH  12  15
ATOM     15  C   LIG    1       -3.023  10.128   2.006  0.00  0.00    +0.250 A 
ATOM     16  N   LIG    1       -3.878   9.251   2.491  0.00  0.00    -0.450 NA
ATOM     17  C   LIG    1       -4.766   9.605   3.407  0.00  0.00    +0.330 A 
ATOM     18  C   LIG    1       -4.794  10.919   3.845  0.00  0.00    -0.040 A 
ATOM     19  C   LIG    1       -3.882  11.814   3.308  0.00  0.00    +0.330 A 
ATOM     20  N   LIG    1       -3.021  11.386   2.399  0.00  0.00    -0.480 NA
ENDBRANCH  12  15
ENDBRANCH  10  12
ENDBRANCH   1   8
BRANCH   1  22
ATOM     21  O   LIG    1        0.977   5.975  -0.074  0.00  0.00    -0.440 OA
ATOM     22  C   LIG    1       -0.054   5.344   0.021  0.00  0.00    +0.400 C 
BRANCH  22  23
ATOM     23  C   LIG    1       -0.011   3.887   0.221  0.00  0.00    -0.170 A 
ATOM     24  C   LIG    1        1.212   3.209   0.189  0.00  0.00    +0.080 A 
ATOM     25  C   LIG    1        1.245   1.844   0.377  0.00  0.00    +0.000 A 
ATOM     26  C   LIG    1        0.071   1.144   0.598  0.00  0.00    +0.050 A 
ATOM     27  C   LIG    1       -1.143   1.807   0.626  0.00  0.00    +0.000 A 
ATOM     28  C   LIG    1       -1.192   3.173   0.444  0.00  0.00    +0.060 A 
ENDBRANCH  22  23
ENDBRANCH   1  22
TORSDOF 6
