REMARK  Name = ZINCrg00000fRjO3.2
REMARK                            x       y       z     vdW  Elec       q    Type
REMARK                         _______ _______ _______ _____ _____    ______ ____
ROOT
ATOM      1  N   LIG    1       -0.643   3.044   1.328  0.00  0.00    -0.490 NA
ATOM      2  C   LIG    1       -1.322   3.557   2.538  0.00  0.00    +0.190 C 
ATOM      3  C   LIG    1       -1.947   4.914   2.164  0.00  0.00    +0.000 C 
ATOM      4  C   LIG    1       -1.607   5.117   0.670  0.00  0.00    +0.080 C 
ATOM      5  C   LIG    1       -1.339   3.673   0.176  0.00  0.00    +0.180 C 
ENDROOT
BRANCH   4   6
ATOM      6  C   LIG    1       -2.775   5.723  -0.065  0.00  0.00    -0.230 A 
ATOM      7  C   LIG    1       -2.775   6.907  -0.720  0.00  0.00    +0.230 A 
ATOM      8  N   LIG    1       -4.006   7.087  -1.244  0.00  0.00    -0.370 N 
ATOM      9  N   LIG    1       -4.791   5.981  -0.891  0.00  0.00    -0.300 NA
ATOM     10  C   LIG    1       -4.052   5.165  -0.184  0.00  0.00    +0.240 A 
BRANCH   8  11
ATOM     11  C   LIG    1       -4.446   8.238  -2.036  0.00  0.00    +0.250 C 
ATOM     12  C   LIG    1       -3.289   8.729  -2.908  0.00  0.00    +0.060 C 
ATOM     13  C   LIG    1       -4.891   9.362  -1.099  0.00  0.00    +0.040 C 
ENDBRANCH   8  11
ENDBRANCH   4   6
BRANCH   1  14
ATOM     14  C   LIG    1       -0.729   1.579   1.259  0.00  0.00    +0.160 C 
ATOM     15  C   LIG    1       -0.020   1.087  -0.005  0.00  0.00    +0.070 C 
BRANCH  14  21
ATOM     16  N   LIG    1       -3.257  -2.614   2.304  0.00  0.00    -0.540 NA
ATOM     17  C   LIG    1       -4.245  -1.527   2.252  0.00  0.00    +0.170 C 
ATOM     18  C   LIG    1       -3.897  -0.581   1.097  0.00  0.00    +0.290 C 
ATOM     19  N   LIG    1       -2.501  -0.146   1.253  0.00  0.00    -0.610 N 
ATOM     20  C   LIG    1       -1.468  -1.176   1.443  0.00  0.00    +0.280 C 
ATOM     21  C   LIG    1       -2.176   1.161   1.218  0.00  0.00    +0.490 C 
ATOM     22  O   LIG    1       -3.048   2.002   1.154  0.00  0.00    -0.530 OA
ATOM     23  C   LIG    1       -1.912  -2.098   2.590  0.00  0.00    +0.170 C 
BRANCH  16  25
ATOM     24  C   LIG    1       -2.492  -4.612   3.494  0.00  0.00    +0.030 C 
ATOM     25  C   LIG    1       -3.650  -3.634   3.285  0.00  0.00    +0.160 C 
ENDBRANCH  16  25
ENDBRANCH  14  21
ENDBRANCH   1  14
BRANCH   3  26
ATOM     26  C   LIG    1       -1.329   6.033   3.006  0.00  0.00    +0.180 C 
BRANCH  26  27
ATOM     27  O   LIG    1       -1.696   5.856   4.376  0.00  0.00    -0.570 OA
ATOM     28  H   LIG    1       -1.338   6.531   4.969  0.00  0.00    +0.380 HD
ENDBRANCH  26  27
ENDBRANCH   3  26
TORSDOF 7
