REMARK  Name = ZINCpe00000MJJWF.0
REMARK                            x       y       z     vdW  Elec       q    Type
REMARK                         _______ _______ _______ _____ _____    ______ ____
ROOT
ATOM      1  C   LIG    1       -5.131  -1.797   2.916  0.00  0.00    +0.230 C 
ATOM      2  C   LIG    1       -4.990  -1.872   1.399  0.00  0.00    +0.030 C 
ATOM      3  C   LIG    1       -5.883  -0.836   0.762  0.00  0.00    +0.030 C 
ATOM      4  C   LIG    1       -5.105   0.480   0.548  0.00  0.00    +0.250 C 
ATOM      5  N   LIG    1       -4.224   0.791   1.690  0.00  0.00    -0.600 N 
ATOM      6  C   LIG    1       -4.640   0.628   3.065  0.00  0.00    +0.290 C 
ATOM      7  C   LIG    1       -2.982   1.253   1.442  0.00  0.00    +0.490 C 
ATOM      8  O   LIG    1       -2.239   1.521   2.362  0.00  0.00    -0.520 OA
ATOM      9  C   LIG    1       -4.267  -0.793   3.555  0.00  0.00    +0.000 C 
ENDROOT
BRANCH   1  10
ATOM     10  N   LIG    1       -4.811  -3.112   3.478  0.00  0.00    -0.750 N 
ATOM     11  H   LIG    1       -4.180  -3.693   3.025  0.00  0.00    +0.400 HD
BRANCH  10  15
ATOM     12  C   LIG    1       -6.634  -4.271   6.992  0.00  0.00    +0.350 A 
ATOM     13  C   LIG    1       -5.739  -5.150   6.391  0.00  0.00    -0.060 A 
ATOM     14  C   LIG    1       -5.118  -4.778   5.212  0.00  0.00    +0.020 A 
ATOM     15  C   LIG    1       -5.416  -3.530   4.670  0.00  0.00    +0.110 A 
ATOM     16  C   LIG    1       -6.314  -2.703   5.328  0.00  0.00    +0.220 A 
ATOM     17  N   LIG    1       -6.893  -3.092   6.449  0.00  0.00    -0.510 NA
BRANCH  12  18
ATOM     18  N   LIG    1       -7.265  -4.636   8.179  0.00  0.00    -0.860 N 
ATOM     19  H   LIG    1       -7.890  -4.027   8.603  0.00  0.00    +0.400 HD
ATOM     20  H   LIG    1       -7.079  -5.498   8.582  0.00  0.00    +0.400 HD
ENDBRANCH  12  18
ENDBRANCH  10  15
ENDBRANCH   1  10
BRANCH   7  21
ATOM     21  C   LIG    1       -2.517   1.435   0.020  0.00  0.00    +0.370 C 
BRANCH  21  22
ATOM     22  N   LIG    1       -1.143   1.944   0.018  0.00  0.00    -0.610 N 
ATOM     23  C   LIG    1       -0.727   3.357   0.027  0.00  0.00    +0.320 C 
ATOM     24  C   LIG    1        0.787   3.284   0.012  0.00  0.00    +0.530 C 
ATOM     25  N   LIG    1        1.087   1.970   0.002  0.00  0.00    -0.680 N 
ATOM     26  H   LIG    1        1.991   1.618  -0.008  0.00  0.00    +0.430 HD
ATOM     27  O   LIG    1        1.565   4.213   0.010  0.00  0.00    -0.470 OA
ATOM     28  C   LIG    1       -0.014   1.211   0.009  0.00  0.00    +0.710 C 
ATOM     29  O   LIG    1        0.002  -0.004   0.002  0.00  0.00    -0.540 OA
ENDBRANCH  21  22
ENDBRANCH   7  21
TORSDOF 5
