REMARK  Name = ZINCrH000004v6Bm.0
REMARK                            x       y       z     vdW  Elec       q    Type
REMARK                         _______ _______ _______ _____ _____    ______ ____
ROOT
ATOM      1  O   LIG    1       -1.204   2.839   0.034  0.00  0.00    -0.570 OA
ATOM      2  C   LIG    1       -1.187   1.624   0.018  0.00  0.00    +0.710 C 
ATOM      3  N   LIG    1       -0.011   0.966   0.002  0.00  0.00    -0.730 N 
ATOM      4  H   LIG    1        0.002  -0.004  -0.011  0.00  0.00    +0.400 HD
ATOM      5  N   LIG    1       -2.345   0.934   0.018  0.00  0.00    -0.690 N 
ATOM      6  H   LIG    1       -2.334  -0.033  -0.062  0.00  0.00    +0.410 HD
ENDROOT
BRANCH   3   7
ATOM      7  C   LIG    1        1.248   1.715  -0.004  0.00  0.00    +0.250 C 
ATOM      8  C   LIG    1        1.648   2.056   1.434  0.00  0.00    -0.010 C 
ATOM      9  C   LIG    1        2.997   2.780   1.425  0.00  0.00    +0.220 C 
ATOM     10  O   LIG    1        3.978   1.948   0.799  0.00  0.00    -0.360 OA
ATOM     11  C   LIG    1        3.678   1.606  -0.548  0.00  0.00    +0.090 C 
ATOM     12  C   LIG    1        3.637   2.872  -1.425  0.00  0.00    -0.020 C 
ATOM     13  C   LIG    1        4.760   2.641  -2.462  0.00  0.00    +0.220 C 
ATOM     14  O   LIG    1        4.921   1.207  -2.519  0.00  0.00    -0.370 OA
ATOM     15  C   LIG    1        4.810   0.754  -1.150  0.00  0.00    +0.240 C 
ATOM     16  C   LIG    1        2.351   0.861  -0.639  0.00  0.00    +0.020 C 
ENDBRANCH   3   7
BRANCH   5  17
ATOM     17  C   LIG    1       -3.566   1.614   0.134  0.00  0.00    +0.170 A 
ATOM     18  C   LIG    1       -3.722   2.863  -0.451  0.00  0.00    +0.040 A 
ATOM     19  C   LIG    1       -4.924   3.534  -0.337  0.00  0.00    +0.010 A 
ATOM     20  C   LIG    1       -5.977   2.958   0.361  0.00  0.00    +0.080 A 
ATOM     21  C   LIG    1       -5.821   1.707   0.946  0.00  0.00    +0.010 A 
ATOM     22 CL   LIG    1       -7.137   0.987   1.819  0.00  0.00    -0.050 Cl
ATOM     23  C   LIG    1       -4.620   1.035   0.827  0.00  0.00    +0.000 A 
BRANCH  20  24
ATOM     24  N   LIG    1       -7.196   3.638   0.476  0.00  0.00    -0.490 N 
ATOM     25  C   LIG    1       -7.828   3.810  -0.838  0.00  0.00    +0.180 C 
ATOM     26  C   LIG    1       -9.219   4.424  -0.660  0.00  0.00    +0.020 C 
ATOM     27  C   LIG    1       -9.088   5.776   0.045  0.00  0.00    +0.010 C 
ATOM     28  C   LIG    1       -8.383   5.576   1.390  0.00  0.00    +0.020 C 
ATOM     29  C   LIG    1       -7.017   4.929   1.152  0.00  0.00    +0.180 C 
ENDBRANCH  20  24
ENDBRANCH   5  17
TORSDOF 3
