REMARK  Name = ZINCnE000001OPCq.0
REMARK                            x       y       z     vdW  Elec       q    Type
REMARK                         _______ _______ _______ _____ _____    ______ ____
ROOT
ATOM      1  S   LIG    1       -4.546   3.054   2.523  0.00  0.00    +2.690 S 
ATOM      2  O   LIG    1       -5.018   3.789   1.402  0.00  0.00    -0.960 OA
ATOM      3  O   LIG    1       -4.571   3.561   3.850  0.00  0.00    -0.940 OA
ENDROOT
BRANCH   1   9
ATOM      4  C   LIG    1       -0.752   1.651  -0.787  0.00  0.00    +0.090 C 
ATOM      5  C   LIG    1       -1.169   2.001   0.618  0.00  0.00    -0.120 A 
ATOM      6  C   LIG    1       -0.234   1.999   1.637  0.00  0.00    +0.080 A 
ATOM      7  C   LIG    1       -0.617   2.320   2.926  0.00  0.00    -0.110 A 
ATOM      8  C   LIG    1       -1.933   2.642   3.196  0.00  0.00    +0.030 A 
ATOM      9  C   LIG    1       -2.868   2.644   2.178  0.00  0.00    -0.680 A 
ATOM     10  C   LIG    1       -2.350   2.992   4.602  0.00  0.00    +0.120 C 
ATOM     11  C   LIG    1        0.402   2.318   4.036  0.00  0.00    +0.100 C 
ATOM     12  C   LIG    1       -2.485   2.329   0.888  0.00  0.00    +0.020 A 
ATOM     13  C   LIG    1       -3.502   2.337  -0.224  0.00  0.00    +0.090 C 
ENDBRANCH   1   9
BRANCH   1  14
ATOM     14  N   LIG    1       -5.402   1.637   2.548  0.00  0.00    -1.050 N 
ATOM     15  H   LIG    1       -6.035   1.440   1.840  0.00  0.00    +0.420 HD
BRANCH  14  16
ATOM     16  C   LIG    1       -5.215   0.730   3.583  0.00  0.00    +0.140 A 
ATOM     17  C   LIG    1       -3.925   0.401   3.992  0.00  0.00    -0.050 A 
ATOM     18  C   LIG    1       -3.736  -0.487   5.013  0.00  0.00    +0.070 A 
ATOM     19  C   LIG    1       -4.841  -1.073   5.641  0.00  0.00    -0.140 A 
ATOM     20  C   LIG    1       -6.136  -0.744   5.224  0.00  0.00    +0.060 A 
ATOM     21  C   LIG    1       -6.316   0.148   4.205  0.00  0.00    -0.020 A 
BRANCH  19  22
ATOM     22  C   LIG    1       -4.642  -2.034   6.737  0.00  0.00    +0.520 C 
ATOM     23  O   LIG    1       -3.509  -2.321   7.101  0.00  0.00    -0.690 OA
ATOM     24  O   LIG    1       -5.608  -2.547   7.285  0.00  0.00    -0.690 OA
ENDBRANCH  19  22
ENDBRANCH  14  16
ENDBRANCH   1  14
TORSDOF 4
