REMARK  Name = ZINCrg00000IYGbZ.0
REMARK                            x       y       z     vdW  Elec       q    Type
REMARK                         _______ _______ _______ _____ _____    ______ ____
ROOT
ATOM      1  C   LIG    1        6.871  -0.471   0.091  0.00  0.00    +0.250 C 
ATOM      2  C   LIG    1        5.743  -0.207  -0.919  0.00  0.00    +0.300 C 
ATOM      3  N   LIG    1        4.463  -0.229  -0.194  0.00  0.00    -0.610 N 
ATOM      4  C   LIG    1        4.181  -1.381   0.677  0.00  0.00    +0.250 C 
ATOM      5  C   LIG    1        5.383  -1.591   1.606  0.00  0.00    +0.230 C 
ATOM      6  C   LIG    1        3.572   0.773  -0.328  0.00  0.00    +0.530 C 
ATOM      7  O   LIG    1        3.823   1.714  -1.051  0.00  0.00    -0.520 OA
ATOM      8  O   LIG    1        6.576  -1.664   0.822  0.00  0.00    -0.360 OA
ENDROOT
BRANCH   1  13
ATOM      9  C   LIG    1       11.654   0.028  -1.457  0.00  0.00    +0.200 C 
ATOM     10  C   LIG    1       10.225  -0.427  -1.307  0.00  0.00    +0.190 A 
ATOM     11  N   LIG    1        9.632  -1.357  -2.005  0.00  0.00    -0.290 NA
ATOM     12  N   LIG    1        8.416  -1.488  -1.607  0.00  0.00    -0.260 NA
ATOM     13  C   LIG    1        8.175  -0.641  -0.644  0.00  0.00    +0.170 A 
ATOM     14  N   LIG    1        9.317   0.054  -0.424  0.00  0.00    -0.570 N 
ATOM     15  H   LIG    1        9.457   0.754   0.233  0.00  0.00    +0.430 HD
ENDBRANCH   1  13
BRANCH   6  16
ATOM     16  C   LIG    1        2.265   0.725   0.420  0.00  0.00    +0.000 C 
ATOM     17  C   LIG    1        1.429  -0.505  -0.004  0.00  0.00    +0.070 C 
ATOM     18  C   LIG    1        0.002  -0.004   0.002  0.00  0.00    +0.520 C 
ATOM     19  N   LIG    1       -0.016   1.340   0.009  0.00  0.00    -0.610 N 
ATOM     20  O   LIG    1       -0.983  -0.712   0.001  0.00  0.00    -0.520 OA
ATOM     21  C   LIG    1        1.344   1.892  -0.001  0.00  0.00    +0.300 C 
BRANCH  19  22
ATOM     22  C   LIG    1       -1.237   2.150   0.020  0.00  0.00    +0.350 C 
BRANCH  22  23
ATOM     23  C   LIG    1       -1.648   2.421   1.444  0.00  0.00    -0.110 A 
ATOM     24  C   LIG    1       -2.503   1.550   2.094  0.00  0.00    +0.030 A 
ATOM     25  C   LIG    1       -2.876   1.796   3.402  0.00  0.00    +0.000 A 
ATOM     26  C   LIG    1       -2.403   2.917   4.057  0.00  0.00    +0.010 A 
ATOM     27  C   LIG    1       -1.552   3.791   3.405  0.00  0.00    +0.000 A 
ATOM     28  C   LIG    1       -1.175   3.542   2.099  0.00  0.00    +0.010 A 
ENDBRANCH  22  23
ENDBRANCH  19  22
ENDBRANCH   6  16
TORSDOF 4
