REMARK  Name = ZINCrg00000IYGbZ.1
REMARK                            x       y       z     vdW  Elec       q    Type
REMARK                         _______ _______ _______ _____ _____    ______ ____
ROOT
ATOM      1  C   LIG    1        5.775   3.324  -7.822  0.00  0.00    +0.280 C 
ATOM      2  C   LIG    1        6.103   3.973  -6.468  0.00  0.00    +0.280 C 
ATOM      3  N   LIG    1        4.856   4.069  -5.692  0.00  0.00    -0.610 N 
ATOM      4  C   LIG    1        3.683   4.677  -6.339  0.00  0.00    +0.250 C 
ATOM      5  C   LIG    1        3.475   3.998  -7.698  0.00  0.00    +0.230 C 
ATOM      6  C   LIG    1        4.793   3.618  -4.423  0.00  0.00    +0.530 C 
ATOM      7  O   LIG    1        5.771   3.120  -3.907  0.00  0.00    -0.520 OA
ATOM      8  O   LIG    1        4.699   4.037  -8.436  0.00  0.00    -0.360 OA
ENDROOT
BRANCH   1  12
ATOM      9  C   LIG    1        9.837   1.876 -10.368  0.00  0.00    +0.210 C 
ATOM     10  C   LIG    1        8.741   2.745  -9.807  0.00  0.00    +0.290 A 
ATOM     11  N   LIG    1        7.780   2.351  -9.011  0.00  0.00    -0.530 NA
ATOM     12  C   LIG    1        6.989   3.381  -8.713  0.00  0.00    +0.230 A 
ATOM     13  N   LIG    1        7.434   4.448  -9.323  0.00  0.00    -0.280 NA
ATOM     14  N   LIG    1        8.579   4.059 -10.038  0.00  0.00    -0.480 N 
ATOM     15  H   LIG    1        9.139   4.625 -10.592  0.00  0.00    +0.440 HD
ENDBRANCH   1  12
BRANCH   6  16
ATOM     16  C   LIG    1        3.507   3.733  -3.646  0.00  0.00    +0.000 C 
ATOM     17  C   LIG    1        3.090   5.213  -3.482  0.00  0.00    +0.070 C 
ATOM     18  C   LIG    1        2.501   5.280  -2.091  0.00  0.00    +0.520 C 
ATOM     19  N   LIG    1        2.858   4.194  -1.384  0.00  0.00    -0.610 N 
ATOM     20  O   LIG    1        1.808   6.183  -1.672  0.00  0.00    -0.520 OA
ATOM     21  C   LIG    1        3.712   3.300  -2.176  0.00  0.00    +0.300 C 
BRANCH  19  22
ATOM     22  C   LIG    1        2.451   3.937  -0.001  0.00  0.00    +0.350 C 
BRANCH  22  23
ATOM     23  C   LIG    1        1.156   3.165   0.008  0.00  0.00    -0.110 A 
ATOM     24  C   LIG    1        1.175   1.783   0.000  0.00  0.00    +0.010 A 
ATOM     25  C   LIG    1       -0.013   1.076   0.008  0.00  0.00    +0.000 A 
ATOM     26  C   LIG    1       -1.219   1.751   0.017  0.00  0.00    +0.010 A 
ATOM     27  C   LIG    1       -1.238   3.133   0.030  0.00  0.00    +0.000 A 
ATOM     28  C   LIG    1       -0.050   3.840   0.023  0.00  0.00    +0.030 A 
ENDBRANCH  22  23
ENDBRANCH  19  22
ENDBRANCH   6  16
TORSDOF 4
