REMARK  Name = ZINCqH0000036465.0
REMARK                            x       y       z     vdW  Elec       q    Type
REMARK                         _______ _______ _______ _____ _____    ______ ____
ROOT
ATOM      1  N   LIG    1       -0.017   1.396   0.010  0.00  0.00    -1.040 N 
ATOM      2  H   LIG    1        0.794   1.876  -0.222  0.00  0.00    +0.440 HD
ENDROOT
BRANCH   1   3
ATOM      3  C   LIG    1        0.019   0.008   0.193  0.00  0.00    +0.200 A 
ATOM      4  C   LIG    1       -1.055  -0.773  -0.203  0.00  0.00    +0.010 A 
ATOM      5  C   LIG    1       -1.015  -2.145  -0.026  0.00  0.00    -0.000 A 
ATOM      6  C   LIG    1        0.090  -2.739   0.556  0.00  0.00    +0.030 A 
ATOM      7  C   LIG    1        1.164  -1.965   0.957  0.00  0.00    +0.030 A 
ATOM      8 CL   LIG    1       -2.359  -3.123  -0.528  0.00  0.00    -0.050 Cl
ATOM      9  C   LIG    1        1.134  -0.591   0.778  0.00  0.00    +0.070 A 
BRANCH   9  10
ATOM     10  N   LIG    1        2.221   0.194   1.185  0.00  0.00    -0.500 N 
ATOM     11  C   LIG    1        3.431  -0.145   0.420  0.00  0.00    +0.160 C 
ATOM     12  C   LIG    1        4.576   0.774   0.853  0.00  0.00    +0.220 C 
ATOM     13  O   LIG    1        4.774   0.649   2.264  0.00  0.00    -0.380 OA
ATOM     14  C   LIG    1        3.616   0.972   3.039  0.00  0.00    +0.220 C 
ATOM     15  C   LIG    1        2.461   0.054   2.628  0.00  0.00    +0.160 C 
ENDBRANCH   9  10
ENDBRANCH   1   3
BRANCH   1  16
ATOM     16  S   LIG    1       -1.445   2.217   0.182  0.00  0.00    +2.690 S 
ATOM     17  O   LIG    1       -2.385   1.569  -0.663  0.00  0.00    -0.940 OA
ATOM     18  O   LIG    1       -1.129   3.598   0.078  0.00  0.00    -0.940 OA
BRANCH  16  22
ATOM     19  C   LIG    1       -2.870   1.550   4.429  0.00  0.00    +0.210 A 
ATOM     20  C   LIG    1       -2.048   2.627   4.133  0.00  0.00    -0.070 A 
ATOM     21  C   LIG    1       -1.614   2.828   2.837  0.00  0.00    +0.190 A 
ATOM     22  C   LIG    1       -1.999   1.957   1.835  0.00  0.00    -0.710 A 
ATOM     23  C   LIG    1       -2.823   0.885   2.126  0.00  0.00    +0.200 A 
ATOM     24  C   LIG    1       -3.255   0.676   3.422  0.00  0.00    -0.150 A 
ATOM     25 BR   LIG    1       -4.376  -0.793   3.821  0.00  0.00    -0.020 Br
BRANCH  19  27
ATOM     26  C   LIG    1       -2.861   2.289   6.689  0.00  0.00    +0.250 C 
ATOM     27  O   LIG    1       -3.297   1.351   5.704  0.00  0.00    -0.290 OA
ENDBRANCH  19  27
ENDBRANCH  16  22
ENDBRANCH   1  16
TORSDOF 5
