REMARK  Name = ZINCrH000004qKjw.1
REMARK                            x       y       z     vdW  Elec       q    Type
REMARK                         _______ _______ _______ _____ _____    ______ ____
ROOT
ATOM      1  N   LIG    1       -3.739   6.153  -3.286  0.00  0.00    -0.470 N 
ATOM      2  C   LIG    1       -4.674   5.115  -2.829  0.00  0.00    +0.220 C 
ATOM      3  C   LIG    1       -4.342   4.734  -1.385  0.00  0.00    +0.190 C 
ATOM      4  N   LIG    1       -2.954   4.258  -1.313  0.00  0.00    -0.530 NA
ATOM      5  C   LIG    1       -2.019   5.295  -1.770  0.00  0.00    +0.210 C 
ATOM      6  C   LIG    1       -2.351   5.677  -3.215  0.00  0.00    +0.200 C 
ENDROOT
BRANCH   1  10
ATOM      7  C   LIG    1       -2.854   9.007  -7.198  0.00  0.00    +0.140 C 
ATOM      8  C   LIG    1       -3.645   7.948  -6.475  0.00  0.00    +0.190 A 
ATOM      9  C   LIG    1       -3.294   7.565  -5.196  0.00  0.00    -0.110 A 
ATOM     10  C   LIG    1       -4.054   6.575  -4.568  0.00  0.00    +0.360 A 
ATOM     11  N   LIG    1       -5.087   6.048  -5.218  0.00  0.00    -0.560 NA
ATOM     12  C   LIG    1       -5.389   6.448  -6.437  0.00  0.00    +0.360 A 
ATOM     13  N   LIG    1       -4.689   7.375  -7.058  0.00  0.00    -0.530 NA
BRANCH  12  14
ATOM     14  C   LIG    1       -6.568   5.826  -7.140  0.00  0.00    +0.060 C 
ATOM     15  C   LIG    1       -6.095   5.150  -8.428  0.00  0.00    +0.050 C 
ATOM     16  C   LIG    1       -7.590   6.913  -7.480  0.00  0.00    +0.050 C 
ENDBRANCH  12  14
ENDBRANCH   1  10
BRANCH   4  17
ATOM     17  C   LIG    1       -2.621   3.810   0.046  0.00  0.00    +0.240 C 
BRANCH  17  18
ATOM     18  C   LIG    1       -1.288   3.107   0.031  0.00  0.00    -0.060 A 
ATOM     19  C   LIG    1       -1.234   1.747   0.017  0.00  0.00    +0.050 A 
ATOM     20  C   LIG    1       -0.013   1.076   0.008  0.00  0.00    +0.020 A 
ATOM     21  C   LIG    1        1.162   1.764   0.000  0.00  0.00    +0.030 A 
ATOM     22  C   LIG    1        1.144   3.168   0.008  0.00  0.00    -0.100 A 
ATOM     23  C   LIG    1        2.336   3.916  -0.000  0.00  0.00    +0.080 A 
ATOM     24  C   LIG    1        2.242   5.279   0.007  0.00  0.00    -0.040 A 
ATOM     25  C   LIG    1        0.990   5.889   0.022  0.00  0.00    +0.290 A 
ATOM     26  N   LIG    1       -0.118   5.189   0.030  0.00  0.00    -0.470 NA
ATOM     27  C   LIG    1       -0.096   3.852   0.023  0.00  0.00    +0.130 A 
ENDBRANCH  17  18
ENDBRANCH   4  17
TORSDOF 4
