REMARK  Name = ZINCnE000001GCNA.2
REMARK                            x       y       z     vdW  Elec       q    Type
REMARK                         _______ _______ _______ _____ _____    ______ ____
ROOT
ATOM      1  C   UNK    1       -0.125   1.743  -1.032  0.00  0.00    +0.150 C 
ATOM      2  C   UNK    1       -0.591   2.980  -0.245  0.00  0.00    +0.020 C 
ATOM      3  C   UNK    1       -0.694   2.063   0.986  0.00  0.00    +0.140 C 
ATOM      4  C   UNK    1        0.355   1.172   0.309  0.00  0.00    -0.060 C 
ATOM      5  C   UNK    1        1.793   1.553   0.654  0.00  0.00    +0.060 C 
ATOM      6  C   UNK    1        2.754   0.730  -0.209  0.00  0.00    +0.000 C 
ATOM      7  C   UNK    1        2.500  -0.760   0.026  0.00  0.00    +0.000 C 
ATOM      8  C   UNK    1        1.071  -1.112  -0.392  0.00  0.00    +0.010 C 
ATOM      9  C   UNK    1        0.080  -0.322   0.468  0.00  0.00    +0.030 C 
ENDROOT
BRANCH   3  10
ATOM     10  N   UNK    1       -0.221   2.689   2.228  0.00  0.00    -0.520 NA
ATOM     11  C   UNK    1       -0.030   1.686   3.284  0.00  0.00    +0.170 C 
BRANCH  10  12
ATOM     12  C   UNK    1       -1.141   3.747   2.667  0.00  0.00    +0.290 C 
BRANCH  12  13
ATOM     13  C   UNK    1       -0.510   4.526   3.792  0.00  0.00    +0.020 A 
ATOM     14  N   UNK    1        0.225   5.568   3.635  0.00  0.00    -0.400 NA
ATOM     15  C   UNK    1        0.696   6.124   4.756  0.00  0.00    +0.020 A 
ATOM     16  C   UNK    1        0.305   5.473   5.890  0.00  0.00    -0.070 A 
ATOM     17  S   UNK    1       -0.681   4.148   5.448  0.00  0.00    +0.100 S 
BRANCH  15  18
ATOM     18  C   UNK    1        1.551   7.318   4.767  0.00  0.00    +0.550 C 
ATOM     19  O   UNK    1        1.949   7.777   5.829  0.00  0.00    -0.680 OA
ATOM     20  O   UNK    1        1.866   7.854   3.712  0.00  0.00    -0.660 OA
ENDBRANCH  15  18
ENDBRANCH  12  13
ENDBRANCH  10  12
ENDBRANCH   3  10
BRANCH   1  21
ATOM     21  O   UNK    1       -1.195   1.001  -1.620  0.00  0.00    -0.360 OA
BRANCH  21  23
ATOM     22  C   UNK    1       -2.395   0.218  -3.567  0.00  0.00    +0.040 C 
ATOM     23  C   UNK    1       -1.214   1.041  -3.049  0.00  0.00    +0.160 C 
ENDBRANCH  21  23
ENDBRANCH   1  21
TORSDOF 6
