REMARK  Name = ZINCrH00000No4FD.0
REMARK                            x       y       z     vdW  Elec       q    Type
REMARK                         _______ _______ _______ _____ _____    ______ ____
ROOT
ATOM      1  N   LIG    1       -2.970   4.418  -1.328  0.00  0.00    -0.980 NA
ENDROOT
BRANCH   1   2
ATOM      2  S   LIG    1       -2.654   5.868  -2.062  0.00  0.00    +2.680 S 
ATOM      3  O   LIG    1       -2.475   6.816  -1.019  0.00  0.00    -0.940 OA
ATOM      4  O   LIG    1       -3.625   6.018  -3.089  0.00  0.00    -0.950 OA
BRANCH   2   5
ATOM      5  C   LIG    1       -1.095   5.716  -2.869  0.00  0.00    -0.590 C 
ATOM      6  C   LIG    1       -1.024   5.784  -4.191  0.00  0.00    +0.200 C 
BRANCH   6   7
ATOM      7  C   LIG    1        0.284   5.657  -4.868  0.00  0.00    -0.100 A 
ATOM      8  C   LIG    1        1.446   5.470  -4.119  0.00  0.00    +0.040 A 
ATOM      9  C   LIG    1        2.662   5.345  -4.757  0.00  0.00    +0.000 A 
ATOM     10  C   LIG    1        2.734   5.417  -6.137  0.00  0.00    +0.030 A 
ATOM     11  C   LIG    1        1.586   5.608  -6.886  0.00  0.00    +0.000 A 
ATOM     12  C   LIG    1        0.362   5.728  -6.260  0.00  0.00    +0.040 A 
ENDBRANCH   6   7
ENDBRANCH   2   5
ENDBRANCH   1   2
BRANCH   1  13
ATOM     13  C   LIG    1       -2.526   4.182   0.048  0.00  0.00    +0.410 C 
BRANCH  13  19
ATOM     14  C   LIG    1        0.002  -0.004   0.002  0.00  0.00    +0.140 C 
ATOM     15  C   LIG    1       -0.018   1.503   0.010  0.00  0.00    +0.180 A 
ATOM     16  C   LIG    1        1.167   2.221   0.003  0.00  0.00    -0.070 A 
ATOM     17  C   LIG    1        1.098   3.606   0.011  0.00  0.00    +0.320 A 
ATOM     18  N   LIG    1       -0.088   4.191   0.025  0.00  0.00    -0.510 NA
ATOM     19  C   LIG    1       -1.195   3.475   0.032  0.00  0.00    +0.300 A 
ATOM     20  N   LIG    1       -1.168   2.158   0.019  0.00  0.00    -0.500 NA
ENDBRANCH  13  19
ENDBRANCH   1  13
BRANCH   1  21
ATOM     21  C   LIG    1       -3.693   3.371  -2.054  0.00  0.00    +0.350 C 
BRANCH  21  22
ATOM     22  C   LIG    1       -5.160   3.450  -1.720  0.00  0.00    -0.120 A 
ATOM     23  C   LIG    1       -5.666   2.730  -0.653  0.00  0.00    +0.020 A 
ATOM     24  C   LIG    1       -7.011   2.807  -0.344  0.00  0.00    -0.010 A 
ATOM     25  C   LIG    1       -7.853   3.595  -1.107  0.00  0.00    +0.010 A 
ATOM     26  C   LIG    1       -7.348   4.310  -2.177  0.00  0.00    +0.000 A 
ATOM     27  C   LIG    1       -6.002   4.238  -2.483  0.00  0.00    +0.040 A 
ENDBRANCH  21  22
ENDBRANCH   1  21
TORSDOF 7
