REMARK  Name = ZINCqH0000004Uo4.0
REMARK                            x       y       z     vdW  Elec       q    Type
REMARK                         _______ _______ _______ _____ _____    ______ ____
ROOT
ATOM      1  N   LIG    1        4.913  -3.428   1.622  0.00  0.00    -0.660 N 
ATOM      2  H   LIG    1        5.308  -2.780   2.226  0.00  0.00    +0.410 HD
ATOM      3  C   LIG    1        5.625  -4.500   1.224  0.00  0.00    +0.550 C 
ATOM      4  O   LIG    1        5.104  -5.356   0.536  0.00  0.00    -0.480 OA
ENDROOT
BRANCH   3   5
ATOM      5  C   LIG    1        7.041  -4.637   1.625  0.00  0.00    -0.080 A 
ATOM      6  C   LIG    1        7.645  -3.654   2.411  0.00  0.00    +0.090 A 
ATOM      7  C   LIG    1        8.965  -3.790   2.787  0.00  0.00    +0.110 A 
ATOM      8  C   LIG    1        9.695  -4.892   2.377  0.00  0.00    -0.010 A 
ATOM      9  C   LIG    1        9.105  -5.868   1.594  0.00  0.00    +0.120 A 
ATOM     10  C   LIG    1        7.783  -5.748   1.215  0.00  0.00    +0.010 A 
ATOM     11 CL   LIG    1        7.044  -6.973   0.231  0.00  0.00    +0.010 Cl
BRANCH   8  12
ATOM     12  N   LIG    1       11.113  -5.028   2.780  0.00  0.00    +0.020 N 
ATOM     13  O   LIG    1       11.634  -4.171   3.470  0.00  0.00    -0.140 OA
ATOM     14  O   LIG    1       11.758  -5.997   2.421  0.00  0.00    -0.140 OA
ENDBRANCH   8  12
ENDBRANCH   3   5
BRANCH   1  19
ATOM     15  C   LIG    1        1.820  -1.800   0.453  0.00  0.00    +0.000 A 
ATOM     16  C   LIG    1        1.002  -2.913   0.254  0.00  0.00    +0.060 A 
ATOM     17  C   LIG    1        1.487  -4.180   0.509  0.00  0.00    +0.040 A 
ATOM     18  C   LIG    1        2.781  -4.352   0.962  0.00  0.00    +0.050 A 
ATOM     19  C   LIG    1        3.603  -3.249   1.164  0.00  0.00    +0.140 A 
ATOM     20  C   LIG    1        3.128  -1.973   0.904  0.00  0.00    +0.000 A 
BRANCH  15  25
ATOM     21  N   LIG    1        1.830   0.737   0.635  0.00  0.00    -0.470 N 
ATOM     22  C   LIG    1        1.030   1.718   0.136  0.00  0.00    +0.380 A 
ATOM     23  N   LIG    1        0.094   1.140  -0.568  0.00  0.00    -0.290 NA
ATOM     24  N   LIG    1        0.251  -0.136  -0.545  0.00  0.00    -0.270 NA
ATOM     25  C   LIG    1        1.303  -0.441   0.180  0.00  0.00    +0.220 A 
BRANCH  21  27
ATOM     26  C   LIG    1        4.261   1.006   0.607  0.00  0.00    +0.040 C 
ATOM     27  C   LIG    1        3.011   0.907   1.485  0.00  0.00    +0.290 C 
ENDBRANCH  21  27
ENDBRANCH  15  25
ENDBRANCH   1  19
TORSDOF 5
