REMARK  Name = ZINCrg00000b4Td2.1
REMARK                            x       y       z     vdW  Elec       q    Type
REMARK                         _______ _______ _______ _____ _____    ______ ____
ROOT
ATOM      1  N   LIG    1        0.053  -0.093   0.044  0.00  0.00    -0.600 N 
ATOM      2  C   LIG    1       -0.053  -0.826   1.169  0.00  0.00    +0.510 C 
ATOM      3  O   LIG    1       -0.283  -2.015   1.099  0.00  0.00    -0.500 OA
ATOM      4  C   LIG    1        0.331   1.343   0.128  0.00  0.00    +0.280 C 
ENDROOT
BRANCH   1   5
ATOM      5  C   LIG    1       -0.111  -0.731  -1.265  0.00  0.00    +0.300 C 
ATOM      6  C   LIG    1       -1.364  -0.180  -1.948  0.00  0.00    +0.040 C 
BRANCH   5  12
ATOM      7  C   LIG    1        2.289  -1.111  -1.887  0.00  0.00    +0.140 A 
ATOM      8  C   LIG    1        3.398  -0.843  -2.676  0.00  0.00    -0.080 A 
ATOM      9  C   LIG    1        3.312   0.091  -3.691  0.00  0.00    +0.060 A 
ATOM     10  C   LIG    1        2.123   0.758  -3.920  0.00  0.00    -0.030 A 
ATOM     11  C   LIG    1        1.014   0.488  -3.138  0.00  0.00    +0.060 A 
ATOM     12  C   LIG    1        1.096  -0.441  -2.119  0.00  0.00    -0.140 A 
BRANCH   7  14
ATOM     13  C   LIG    1        3.629  -2.681  -0.708  0.00  0.00    +0.240 C 
ATOM     14  O   LIG    1        2.370  -2.030  -0.889  0.00  0.00    -0.310 OA
ENDBRANCH   7  14
ENDBRANCH   5  12
ENDBRANCH   1   5
BRANCH   2  15
ATOM     15  C   LIG    1        0.115  -0.170   2.515  0.00  0.00    +0.360 C 
BRANCH  15  16
ATOM     16  N   LIG    1       -0.044  -1.172   3.571  0.00  0.00    -0.290 N 
ATOM     17  C   LIG    1        0.850  -1.442   4.551  0.00  0.00    +0.130 A 
ATOM     18  C   LIG    1        0.303  -2.428   5.300  0.00  0.00    -0.010 A 
ATOM     19  N   LIG    1       -0.883  -2.710   4.749  0.00  0.00    -0.230 NA
ATOM     20  N   LIG    1       -1.061  -1.945   3.730  0.00  0.00    -0.060 NA
BRANCH  18  21
ATOM     21  C   LIG    1        0.911  -3.079   6.515  0.00  0.00    +0.140 C 
BRANCH  21  22
ATOM     22  C   LIG    1       -0.064  -2.975   7.690  0.00  0.00    +0.150 C 
ATOM     23  C   LIG    1        0.599  -3.530   8.954  0.00  0.00    +0.170 C 
ATOM     24  O   LIG    1       -0.341  -3.499  10.031  0.00  0.00    -0.380 OA
ATOM     25  C   LIG    1       -1.531  -4.250   9.778  0.00  0.00    +0.170 C 
ATOM     26  C   LIG    1       -2.216  -3.704   8.522  0.00  0.00    +0.190 C 
ATOM     27  N   LIG    1       -1.274  -3.756   7.395  0.00  0.00    -0.660 NA
ATOM     28  H   LIG    1       -1.041  -4.710   7.163  0.00  0.00    +0.340 HD
ENDBRANCH  21  22
ENDBRANCH  18  21
ENDBRANCH  15  16
ENDBRANCH   2  15
TORSDOF 7
