REMARK  Name = ZINCpe000000YkYO.0
REMARK                            x       y       z     vdW  Elec       q    Type
REMARK                         _______ _______ _______ _____ _____    ______ ____
ROOT
ATOM      1  C   LIG    1       -0.445   3.700   0.290  0.00  0.00    +0.170 A 
ATOM      2  C   LIG    1        0.917   3.427   0.269  0.00  0.00    -0.030 A 
ATOM      3  C   LIG    1        1.361   2.146   0.001  0.00  0.00    +0.060 A 
ATOM      4  C   LIG    1        0.454   1.134  -0.246  0.00  0.00    -0.060 A 
ATOM      5  C   LIG    1       -0.909   1.403  -0.232  0.00  0.00    +0.120 A 
ATOM      6  C   LIG    1       -1.359   2.686   0.043  0.00  0.00    +0.010 A 
ENDROOT
BRANCH   5   7
ATOM      7  N   LIG    1       -1.826   0.380  -0.488  0.00  0.00    -0.510 N 
ATOM      8  C   LIG    1       -1.165  -0.927  -0.497  0.00  0.00    +0.240 C 
ATOM      9  C   LIG    1       -2.209  -2.039  -0.355  0.00  0.00    -0.310 C 
ATOM     10  S   LIG    1       -3.323  -1.980  -1.791  0.00  0.00    +2.410 S 
ATOM     11  C   LIG    1       -3.828  -0.234  -1.767  0.00  0.00    -0.310 C 
ATOM     12  O   LIG    1       -2.565  -2.219  -2.969  0.00  0.00    -0.940 OA
ATOM     13  O   LIG    1       -4.460  -2.787  -1.519  0.00  0.00    -0.940 OA
ATOM     14  C   LIG    1       -2.570   0.640  -1.723  0.00  0.00    +0.240 C 
ENDBRANCH   5   7
BRANCH   1  16
ATOM     15  C   LIG    1       -2.047   5.184   1.232  0.00  0.00    +0.580 C 
ATOM     16  N   LIG    1       -0.894   4.997   0.561  0.00  0.00    -0.660 N 
ATOM     17  H   LIG    1       -0.376   5.761   0.265  0.00  0.00    +0.430 HD
ATOM     18  O   LIG    1       -2.649   4.229   1.687  0.00  0.00    -0.530 OA
BRANCH  15  24
ATOM     19  C   LIG    1       -1.814  10.030   0.309  0.00  0.00    +0.330 C 
ATOM     20  N   LIG    1       -2.459   8.890   0.965  0.00  0.00    -0.490 N 
ATOM     21  C   LIG    1       -3.548   9.097   1.742  0.00  0.00    +0.340 A 
ATOM     22  C   LIG    1       -4.174   8.067   2.366  0.00  0.00    -0.080 A 
ATOM     23  C   LIG    1       -3.699   6.764   2.215  0.00  0.00    +0.220 A 
ATOM     24  C   LIG    1       -2.579   6.543   1.417  0.00  0.00    -0.290 A 
ATOM     25  C   LIG    1       -1.956   7.653   0.789  0.00  0.00    +0.530 A 
ATOM     26  O   LIG    1       -0.972   7.487   0.089  0.00  0.00    -0.540 OA
ENDBRANCH  15  24
ENDBRANCH   1  16
TORSDOF 3
