REMARK  Name = ZINCpk00000y6xGP.0
REMARK                            x       y       z     vdW  Elec       q    Type
REMARK                         _______ _______ _______ _____ _____    ______ ____
ROOT
ATOM      1  N   LIG    1        2.714   3.845  -0.666  0.00  0.00    -0.680 N 
ATOM      2  H   LIG    1        3.343   3.567   0.018  0.00  0.00    +0.410 HD
ATOM      3  C   LIG    1        1.652   3.069  -0.961  0.00  0.00    +0.710 C 
ATOM      4  N   LIG    1        1.402   1.964  -0.231  0.00  0.00    -0.610 N 
ATOM      5  C   LIG    1        0.180   1.207  -0.477  0.00  0.00    +0.300 C 
ATOM      6  C   LIG    1       -0.548   1.033   0.858  0.00  0.00    +0.030 C 
ATOM      7  C   LIG    1        0.355   0.289   1.842  0.00  0.00    +0.020 C 
ATOM      8  C   LIG    1       -0.280   0.436   3.248  0.00  0.00    +0.060 C 
ATOM      9  C   LIG    1        0.308   1.734   3.763  0.00  0.00    +0.520 C 
ATOM     10  N   LIG    1        1.405   2.058   3.047  0.00  0.00    -0.730 N 
ATOM     11  H   LIG    1        1.934   2.861   3.176  0.00  0.00    +0.410 HD
ATOM     12  O   LIG    1       -0.140   2.384   4.683  0.00  0.00    -0.530 OA
ATOM     13  C   LIG    1        1.681   1.026   2.050  0.00  0.00    +0.220 C 
ATOM     14  C   LIG    1        2.337   1.551   0.806  0.00  0.00    +0.280 C 
ATOM     15  O   LIG    1        0.920   3.366  -1.885  0.00  0.00    -0.560 OA
ENDROOT
BRANCH   1  20
ATOM     16  C   LIG    1        4.355   6.852  -2.046  0.00  0.00    -0.160 A 
ATOM     17  C   LIG    1        3.277   7.452  -2.707  0.00  0.00    +0.150 A 
ATOM     18  C   LIG    1        2.033   6.850  -2.683  0.00  0.00    +0.030 A 
ATOM     19  C   LIG    1        1.849   5.655  -2.013  0.00  0.00    +0.130 A 
ATOM     20  C   LIG    1        2.910   5.054  -1.348  0.00  0.00    +0.130 A 
ATOM     21  F   LIG    1        3.452   8.617  -3.369  0.00  0.00    -0.120 F 
ATOM     22  C   LIG    1        4.165   5.646  -1.364  0.00  0.00    +0.130 A 
ATOM     23  F   LIG    1        5.199   5.059  -0.723  0.00  0.00    -0.120 F 
BRANCH  16  24
ATOM     24  C   LIG    1        5.684   7.490  -2.068  0.00  0.00    +0.520 C 
ATOM     25  O   LIG    1        6.473   7.220  -2.951  0.00  0.00    -0.480 OA
BRANCH  24  27
ATOM     26  C   LIG    1        7.349   8.960  -1.192  0.00  0.00    +0.280 C 
ATOM     27  O   LIG    1        6.024   8.372  -1.107  0.00  0.00    -0.350 OA
ENDBRANCH  24  27
ENDBRANCH  16  24
ENDBRANCH   1  20
TORSDOF 3
