REMARK  Name = ZINCqH0000006T7r.0
REMARK                            x       y       z     vdW  Elec       q    Type
REMARK                         _______ _______ _______ _____ _____    ______ ____
ROOT
ATOM      1  C   LIG    1       -6.277   6.040   0.280  0.00  0.00    +0.250 C 
ATOM      2  C   LIG    1       -7.011   5.556   1.533  0.00  0.00    +0.050 C 
ENDROOT
BRANCH   1   3
ATOM      3  C   LIG    1       -4.962   5.313   0.157  0.00  0.00    +0.520 C 
ATOM      4  N   LIG    1       -4.942   3.970   0.048  0.00  0.00    -0.670 N 
ATOM      5  H   LIG    1       -5.774   3.477  -0.019  0.00  0.00    +0.420 HD
ATOM      6  O   LIG    1       -3.922   5.938   0.155  0.00  0.00    -0.500 OA
BRANCH   4   7
ATOM      7  C   LIG    1       -3.721   3.288   0.030  0.00  0.00    +0.200 A 
ATOM      8  C   LIG    1       -2.613   3.859  -0.581  0.00  0.00    +0.040 A 
ATOM      9  C   LIG    1       -1.408   3.183  -0.596  0.00  0.00    +0.130 A 
ATOM     10  C   LIG    1       -1.305   1.938  -0.003  0.00  0.00    -0.060 A 
ATOM     11  C   LIG    1       -2.408   1.364   0.602  0.00  0.00    +0.130 A 
ATOM     12  C   LIG    1       -3.614   2.038   0.625  0.00  0.00    +0.010 A 
BRANCH  10  13
ATOM     13  N   LIG    1       -0.013   1.216  -0.021  0.00  0.00    +0.030 N 
ATOM     14  O   LIG    1        0.080   0.122   0.505  0.00  0.00    -0.160 OA
ATOM     15  O   LIG    1        0.958   1.719  -0.558  0.00  0.00    -0.160 OA
ENDBRANCH  10  13
ENDBRANCH   4   7
ENDBRANCH   1   3
BRANCH   1  16
ATOM     16  N   LIG    1       -6.031   7.480   0.384  0.00  0.00    -0.730 N 
ATOM     17  H   LIG    1       -5.182   7.804   0.725  0.00  0.00    +0.420 HD
BRANCH  16  21
ATOM     18  C   LIG    1       -8.982  10.192  -0.785  0.00  0.00    +0.130 A 
ATOM     19  C   LIG    1       -7.770  10.658  -0.299  0.00  0.00    -0.100 A 
ATOM     20  C   LIG    1       -6.791   9.760   0.095  0.00  0.00    +0.110 A 
ATOM     21  C   LIG    1       -7.022   8.391  -0.009  0.00  0.00    +0.170 A 
ATOM     22  C   LIG    1       -8.235   7.929  -0.496  0.00  0.00    +0.020 A 
ATOM     23  C   LIG    1       -9.213   8.827  -0.883  0.00  0.00    -0.060 A 
ATOM     24 CL   LIG    1      -10.731   8.247  -1.492  0.00  0.00    -0.050 Cl
BRANCH  18  26
ATOM     25  C   LIG    1       -9.639  12.463  -1.040  0.00  0.00    +0.250 C 
ATOM     26  O   LIG    1       -9.944  11.073  -1.168  0.00  0.00    -0.300 OA
ENDBRANCH  18  26
BRANCH  20  27
ATOM     27  O   LIG    1       -5.603  10.216   0.577  0.00  0.00    -0.310 OA
ATOM     28  C   LIG    1       -5.436  11.633   0.656  0.00  0.00    +0.250 C 
ENDBRANCH  20  27
ENDBRANCH  16  21
ENDBRANCH   1  16
TORSDOF 7
