REMARK  Name = ZINCvU00000008Bl.0
REMARK                            x       y       z     vdW  Elec       q    Type
REMARK                         _______ _______ _______ _____ _____    ______ ____
ROOT
ATOM      1  C   LIG    1        0.341   6.743   0.035  0.00  0.00    +0.580 C 
ATOM      2  N   LIG    1        1.077   5.614   0.022  0.00  0.00    -0.460 N 
ATOM      3  N   LIG    1        0.569   4.316   0.014  0.00  0.00    -0.230 NA
ATOM      4  C   LIG    1        1.476   3.397   0.006  0.00  0.00    +0.180 C 
ATOM      5  C   LIG    1        2.845   4.038  -0.003  0.00  0.00    +0.110 C 
ATOM      6  C   LIG    1        2.547   5.551   0.008  0.00  0.00    +0.330 C 
ATOM      7  O   LIG    1        0.890   7.825   0.036  0.00  0.00    -0.490 OA
ENDROOT
BRANCH   4   8
ATOM      8  C   LIG    1        1.217   1.953   0.001  0.00  0.00    -0.160 A 
ATOM      9  C   LIG    1       -0.017   1.373   0.010  0.00  0.00    +0.070 A 
ATOM     10  C   LIG    1        0.002  -0.004   0.002  0.00  0.00    +0.010 A 
ATOM     11  C   LIG    1        1.219  -0.557  -0.013  0.00  0.00    -0.020 A 
ATOM     12  S   LIG    1        2.450   0.699  -0.018  0.00  0.00    +0.160 S 
ENDBRANCH   4   8
BRANCH   6  13
ATOM     13  C   LIG    1        3.117   6.194   1.245  0.00  0.00    -0.030 A 
ATOM     14  C   LIG    1        4.270   6.884   1.313  0.00  0.00    -0.030 A 
ATOM     15  C   LIG    1        4.417   7.306   2.654  0.00  0.00    -0.060 A 
ATOM     16  C   LIG    1        3.344   6.850   3.326  0.00  0.00    +0.180 A 
ATOM     17  O   LIG    1        2.558   6.182   2.466  0.00  0.00    -0.170 OA
ENDBRANCH   6  13
BRANCH   1  18
ATOM     18  C   LIG    1       -1.164   6.662   0.049  0.00  0.00    +0.130 C 
BRANCH  18  19
ATOM     19  S   LIG    1       -1.858   8.334   0.065  0.00  0.00    +0.150 S 
BRANCH  19  23
ATOM     20  C   LIG    1       -5.731   8.110   0.100  0.00  0.00    +0.220 A 
ATOM     21  N   LIG    1       -5.389   6.845   0.091  0.00  0.00    -0.270 NA
ATOM     22  N   LIG    1       -4.106   6.748   0.078  0.00  0.00    -0.280 NA
ATOM     23  C   LIG    1       -3.578   7.950   0.079  0.00  0.00    +0.120 A 
ATOM     24  O   LIG    1       -4.592   8.836   0.099  0.00  0.00    -0.200 OA
BRANCH  20  29
ATOM     25  C   LIG    1      -11.096  10.187   0.162  0.00  0.00    +0.100 C 
ATOM     26  C   LIG    1       -9.691   9.643   0.145  0.00  0.00    -0.060 A 
ATOM     27  C   LIG    1       -9.482   8.275   0.136  0.00  0.00    +0.020 A 
ATOM     28  C   LIG    1       -8.199   7.771   0.121  0.00  0.00    +0.080 A 
ATOM     29  C   LIG    1       -7.109   8.643   0.116  0.00  0.00    -0.040 A 
ATOM     30  C   LIG    1       -7.327  10.022   0.131  0.00  0.00    +0.050 A 
ATOM     31  C   LIG    1       -8.616  10.514   0.140  0.00  0.00    +0.010 A 
ENDBRANCH  20  29
ENDBRANCH  19  23
ENDBRANCH  18  19
ENDBRANCH   1  18
TORSDOF 6
