REMARK  Name = ZINCrD0000071VA9.0
REMARK                            x       y       z     vdW  Elec       q    Type
REMARK                         _______ _______ _______ _____ _____    ______ ____
ROOT
ATOM      1  C   LIG    1        9.564   2.220   2.453  0.00  0.00    -0.180 A 
ATOM      2  C   LIG    1        9.959   1.183   1.663  0.00  0.00    +0.100 A 
ATOM      3  O   LIG    1        8.899   0.427   1.347  0.00  0.00    -0.160 OA
ATOM      4  C   LIG    1        7.771   0.908   1.896  0.00  0.00    +0.340 A 
ATOM      5  N   LIG    1        6.497   0.520   1.882  0.00  0.00    -0.520 NA
ATOM      6  C   LIG    1        5.577   1.207   2.525  0.00  0.00    +0.400 A 
ATOM      7  N   LIG    1        5.855   2.295   3.220  0.00  0.00    -0.560 NA
ATOM      8  C   LIG    1        7.102   2.756   3.297  0.00  0.00    +0.500 A 
ATOM      9  C   LIG    1       11.373   0.927   1.212  0.00  0.00    +0.210 C 
ATOM     10  C   LIG    1        8.109   2.058   2.623  0.00  0.00    -0.250 A 
ENDROOT
BRANCH   8  11
ATOM     11  N   LIG    1        7.393   3.896   4.025  0.00  0.00    -0.820 N 
ATOM     12  H   LIG    1        8.306   4.221   4.072  0.00  0.00    +0.410 HD
ATOM     13  H   LIG    1        6.684   4.370   4.487  0.00  0.00    +0.420 HD
ENDBRANCH   8  11
BRANCH   1  14
ATOM     14  C   LIG    1       10.412   3.279   3.018  0.00  0.00    +0.540 C 
ATOM     15  O   LIG    1       10.928   3.127   4.108  0.00  0.00    -0.480 OA
BRANCH  14  16
ATOM     16  O   LIG    1       10.617   4.419   2.328  0.00  0.00    -0.350 OA
BRANCH  16  18
ATOM     17  C   LIG    1       11.581   6.634   2.023  0.00  0.00    +0.070 C 
ATOM     18  C   LIG    1       11.466   5.421   2.948  0.00  0.00    +0.210 C 
ENDBRANCH  16  18
ENDBRANCH  14  16
ENDBRANCH   1  14
BRANCH   6  19
ATOM     19  C   LIG    1        4.149   0.729   2.472  0.00  0.00    +0.360 C 
BRANCH  19  20
ATOM     20  O   LIG    1        3.476   1.342   1.341  0.00  0.00    -0.350 OA
BRANCH  20  21
ATOM     21  C   LIG    1        2.187   1.018   1.151  0.00  0.00    +0.470 C 
ATOM     22  O   LIG    1        1.640   0.248   1.904  0.00  0.00    -0.500 OA
BRANCH  21  23
ATOM     23  C   LIG    1        1.423   1.615  -0.003  0.00  0.00    +0.110 C 
BRANCH  23  24
ATOM     24  C   LIG    1       -0.013   1.086   0.008  0.00  0.00    +0.000 C 
ATOM     25  C   LIG    1       -0.729   1.579   1.267  0.00  0.00    +0.020 C 
ATOM     26  C   LIG    1       -2.164   1.050   1.278  0.00  0.00    +0.000 C 
ATOM     27  C   LIG    1       -2.904   1.556   0.038  0.00  0.00    +0.000 C 
ATOM     28  C   LIG    1       -2.188   1.063  -1.221  0.00  0.00    +0.000 C 
ATOM     29  C   LIG    1       -0.753   1.593  -1.232  0.00  0.00    +0.010 C 
ENDBRANCH  23  24
ENDBRANCH  21  23
ENDBRANCH  20  21
ENDBRANCH  19  20
ENDBRANCH   6  19
TORSDOF 9
