REMARK  Name = ZINCrD00000l4csH.0
REMARK                            x       y       z     vdW  Elec       q    Type
REMARK                         _______ _______ _______ _____ _____    ______ ____
ROOT
ATOM      1  C   LIG    1       -1.571   2.658  -1.501  0.00  0.00    -0.680 A 
ATOM      2  C   LIG    1       -1.089   3.952  -1.586  0.00  0.00    +0.180 A 
ATOM      3  C   LIG    1       -1.169   4.652  -2.776  0.00  0.00    +0.040 A 
ATOM      4  C   LIG    1       -1.744   4.066  -3.887  0.00  0.00    +0.010 A 
ATOM      5  C   LIG    1       -2.239   2.761  -3.807  0.00  0.00    -0.120 A 
ATOM      6 BR   LIG    1       -1.861   5.026  -5.511  0.00  0.00    +0.010 Br
ATOM      7  C   LIG    1       -2.148   2.060  -2.603  0.00  0.00    +0.220 A 
ENDROOT
BRANCH   1   8
ATOM      8  S   LIG    1       -1.456   1.774   0.019  0.00  0.00    +2.690 S 
ATOM      9  O   LIG    1       -1.361   2.752   1.045  0.00  0.00    -0.940 OA
ATOM     10  O   LIG    1       -2.472   0.781  -0.017  0.00  0.00    -0.950 OA
BRANCH   8  11
ATOM     11  N   LIG    1       -0.011   0.966   0.007  0.00  0.00    -1.110 NA
ATOM     12  H   LIG    1        0.002  -0.004   0.002  0.00  0.00    +0.420 HD
BRANCH  11  14
ATOM     13  C   LIG    1        1.764   1.861   1.432  0.00  0.00    +0.020 C 
ATOM     14  C   LIG    1        1.248   1.716  -0.001  0.00  0.00    +0.230 C 
ATOM     15  C   LIG    1        2.282   0.966  -0.842  0.00  0.00    +0.040 C 
ENDBRANCH  11  14
ENDBRANCH   8  11
ENDBRANCH   1   8
BRANCH   5  16
ATOM     16  C   LIG    1       -2.854   2.127  -4.990  0.00  0.00    +0.500 C 
ATOM     17  O   LIG    1       -2.931   2.740  -6.036  0.00  0.00    -0.470 OA
BRANCH  16  18
ATOM     18  O   LIG    1       -3.329   0.869  -4.909  0.00  0.00    -0.330 OA
BRANCH  18  19
ATOM     19  C   LIG    1       -3.921   0.310  -6.112  0.00  0.00    +0.240 C 
BRANCH  19  20
ATOM     20  C   LIG    1       -4.393  -1.094  -5.833  0.00  0.00    +0.400 C 
ATOM     21  O   LIG    1       -4.246  -1.575  -4.729  0.00  0.00    -0.420 OA
BRANCH  20  22
ATOM     22  C   LIG    1       -5.033  -1.879  -6.898  0.00  0.00    -0.180 A 
ATOM     23  C   LIG    1       -5.210  -1.325  -8.171  0.00  0.00    +0.100 A 
ATOM     24  C   LIG    1       -5.805  -2.068  -9.166  0.00  0.00    -0.010 A 
ATOM     25  C   LIG    1       -6.238  -3.360  -8.906  0.00  0.00    +0.140 A 
ATOM     26  C   LIG    1       -6.071  -3.913  -7.645  0.00  0.00    -0.010 A 
ATOM     27  F   LIG    1       -6.827  -4.081  -9.885  0.00  0.00    -0.130 F 
ATOM     28  C   LIG    1       -5.473  -3.183  -6.643  0.00  0.00    +0.120 A 
ENDBRANCH  20  22
ENDBRANCH  19  20
ENDBRANCH  18  19
ENDBRANCH  16  18
ENDBRANCH   5  16
TORSDOF 8
