REMARK  Name = ZINCrD00000l5wfN.0
REMARK                            x       y       z     vdW  Elec       q    Type
REMARK                         _______ _______ _______ _____ _____    ______ ____
ROOT
ATOM      1  O   LIG    1        6.019  -2.007  -0.093  0.00  0.00    -0.530 OA
ATOM      2  C   LIG    1        5.464  -1.606  -1.098  0.00  0.00    +0.590 C 
ATOM      3  N   LIG    1        4.289  -0.953  -1.003  0.00  0.00    -0.730 N 
ATOM      4  H   LIG    1        3.845  -0.634  -1.805  0.00  0.00    +0.400 HD
ENDROOT
BRANCH   2   5
ATOM      5  C   LIG    1        6.076  -1.834  -2.418  0.00  0.00    -0.290 A 
ATOM      6  C   LIG    1        5.568  -1.448  -3.642  0.00  0.00    +0.300 A 
ATOM      7  N   LIG    1        6.431  -1.845  -4.589  0.00  0.00    -0.460 N 
ATOM      8  H   LIG    1        6.321  -1.700  -5.542  0.00  0.00    +0.450 HD
ATOM      9  N   LIG    1        7.512  -2.504  -3.996  0.00  0.00    -0.280 NA
ATOM     10  C   LIG    1        7.341  -2.522  -2.693  0.00  0.00    +0.180 A 
BRANCH  10  11
ATOM     11  C   LIG    1        8.255  -3.122  -1.692  0.00  0.00    -0.040 A 
ATOM     12  C   LIG    1        8.418  -2.521  -0.445  0.00  0.00    +0.090 A 
ATOM     13  C   LIG    1        9.265  -3.088   0.486  0.00  0.00    -0.010 A 
ATOM     14  C   LIG    1        9.960  -4.244   0.179  0.00  0.00    +0.020 A 
ATOM     15  C   LIG    1        9.807  -4.841  -1.059  0.00  0.00    -0.010 A 
ATOM     16  C   LIG    1        8.958  -4.287  -1.995  0.00  0.00    +0.030 A 
ENDBRANCH  10  11
ENDBRANCH   2   5
BRANCH   3  17
ATOM     17  C   LIG    1        3.680  -0.727   0.310  0.00  0.00    +0.330 C 
BRANCH  17  18
ATOM     18  C   LIG    1        2.382   0.019   0.140  0.00  0.00    -0.090 A 
ATOM     19  C   LIG    1        1.201  -0.681  -0.029  0.00  0.00    +0.020 A 
ATOM     20  C   LIG    1        0.007  -0.000  -0.186  0.00  0.00    +0.030 A 
ATOM     21  C   LIG    1       -0.009   1.381  -0.174  0.00  0.00    +0.030 A 
ATOM     22  C   LIG    1        1.175   2.086  -0.003  0.00  0.00    +0.150 A 
ATOM     23  C   LIG    1        2.372   1.400   0.153  0.00  0.00    +0.000 A 
BRANCH  22  24
ATOM     24  N   LIG    1        1.162   3.485   0.009  0.00  0.00    -0.670 N 
ATOM     25  H   LIG    1        1.916   3.980  -0.347  0.00  0.00    +0.410 HD
ATOM     26  C   LIG    1        0.101   4.145   0.516  0.00  0.00    +0.540 C 
ATOM     27  O   LIG    1       -0.798   3.529   1.047  0.00  0.00    -0.520 OA
BRANCH  26  28
ATOM     28  C   LIG    1        0.033   5.647   0.422  0.00  0.00    -0.070 C 
ATOM     29  C   LIG    1        0.156   6.443   1.723  0.00  0.00    +0.060 C 
ATOM     30  C   LIG    1       -1.196   6.337   1.016  0.00  0.00    +0.080 C 
ENDBRANCH  26  28
ENDBRANCH  22  24
ENDBRANCH  17  18
ENDBRANCH   3  17
TORSDOF 6
