REMARK  Name = ZINCpe000000SE3h.0
REMARK                            x       y       z     vdW  Elec       q    Type
REMARK                         _______ _______ _______ _____ _____    ______ ____
ROOT
ATOM      1  N   LIG    1        2.386   1.121  -0.384  0.00  0.00    -0.310 N 
ATOM      2  N   LIG    1        2.733  -0.165   0.065  0.00  0.00    -0.060 NA
ATOM      3  N   LIG    1        3.938  -0.388  -0.333  0.00  0.00    -0.030 NA
ATOM      4  N   LIG    1        4.391   0.621  -0.986  0.00  0.00    -0.320 NA
ATOM      5  C   LIG    1        3.483   1.571  -1.054  0.00  0.00    +0.200 A 
ENDROOT
BRANCH   1  10
ATOM      6  C   LIG    1       -1.222   1.753   0.012  0.00  0.00    +0.170 A 
ATOM      7  C   LIG    1       -1.226   3.129   0.198  0.00  0.00    +0.010 A 
ATOM      8  C   LIG    1       -0.037   3.833   0.186  0.00  0.00    +0.080 A 
ATOM      9  C   LIG    1        1.159   3.170  -0.007  0.00  0.00    +0.010 A 
ATOM     10  C   LIG    1        1.171   1.793  -0.189  0.00  0.00    +0.140 A 
ATOM     11  C   LIG    1       -0.021   1.083  -0.176  0.00  0.00    +0.050 A 
BRANCH   6  14
ATOM     12  C   LIG    1       -3.731  -1.024   0.407  0.00  0.00    +0.110 C 
ATOM     13  C   LIG    1       -2.464  -0.215   0.507  0.00  0.00    +0.510 C 
ATOM     14  N   LIG    1       -2.426   1.041   0.020  0.00  0.00    -0.680 N 
ATOM     15  H   LIG    1       -3.235   1.452  -0.326  0.00  0.00    +0.420 HD
ATOM     16  O   LIG    1       -1.478  -0.694   1.026  0.00  0.00    -0.510 OA
ENDBRANCH   6  14
ENDBRANCH   1  10
BRANCH   5  17
ATOM     17  S   LIG    1        3.656   3.131  -1.856  0.00  0.00    +0.120 S 
BRANCH  17  18
ATOM     18  C   LIG    1        5.344   2.973  -2.489  0.00  0.00    +0.130 C 
BRANCH  18  19
ATOM     19  C   LIG    1        5.720   4.228  -3.234  0.00  0.00    +0.550 C 
ATOM     20  N   LIG    1        6.940   4.338  -3.796  0.00  0.00    -0.580 N 
ATOM     21  C   LIG    1        7.403   5.511  -4.546  0.00  0.00    +0.280 C 
ATOM     22  C   LIG    1        8.943   5.378  -4.607  0.00  0.00    +0.060 C 
ATOM     23  C   LIG    1        9.130   3.848  -4.474  0.00  0.00    +0.080 C 
ATOM     24  C   LIG    1        7.886   3.385  -3.748  0.00  0.00    +0.520 C 
ATOM     25  O   LIG    1        7.761   2.309  -3.202  0.00  0.00    -0.480 OA
ATOM     26  O   LIG    1        4.926   5.139  -3.327  0.00  0.00    -0.480 OA
ENDBRANCH  18  19
ENDBRANCH  17  18
ENDBRANCH   5  17
TORSDOF 5
