REMARK  Name = ZINCqH0000050GSF.0
REMARK                            x       y       z     vdW  Elec       q    Type
REMARK                         _______ _______ _______ _____ _____    ______ ____
ROOT
ATOM      1  C   LIG    1        1.020   1.918   5.761  0.00  0.00    +0.590 C 
ATOM      2  N   LIG    1        2.046   2.756   5.512  0.00  0.00    -0.670 N 
ATOM      3  H   LIG    1        2.606   2.619   4.733  0.00  0.00    +0.410 HD
ATOM      4  O   LIG    1        0.370   2.038   6.783  0.00  0.00    -0.500 OA
ENDROOT
BRANCH   2   5
ATOM      5  C   LIG    1        2.302   3.824   6.378  0.00  0.00    +0.160 A 
ATOM      6  C   LIG    1        2.767   5.032   5.874  0.00  0.00    -0.020 A 
ATOM      7  C   LIG    1        3.015   6.089   6.729  0.00  0.00    +0.060 A 
ATOM      8  C   LIG    1        2.813   5.946   8.087  0.00  0.00    -0.010 A 
ATOM      9  C   LIG    1        2.353   4.738   8.599  0.00  0.00    +0.160 A 
ATOM     10  C   LIG    1        2.098   3.676   7.743  0.00  0.00    +0.020 A 
BRANCH   9  11
ATOM     11  N   LIG    1        2.149   4.593   9.973  0.00  0.00    -1.060 N 
ATOM     12  H   LIG    1        1.341   4.169  10.301  0.00  0.00    +0.430 HD
BRANCH  11  13
ATOM     13  S   LIG    1        3.288   5.144  11.042  0.00  0.00    +2.610 S 
ATOM     14  O   LIG    1        2.768   4.796  12.318  0.00  0.00    -0.950 OA
ATOM     15  O   LIG    1        3.484   6.503  10.675  0.00  0.00    -0.950 OA
ATOM     16  C   LIG    1        4.769   4.165  10.670  0.00  0.00    -0.280 C 
ENDBRANCH  11  13
ENDBRANCH   9  11
ENDBRANCH   2   5
BRANCH   1  20
ATOM     17  C   LIG    1        0.466  -0.781   2.914  0.00  0.00    -0.120 A 
ATOM     18  C   LIG    1       -0.446  -0.938   3.917  0.00  0.00    +0.020 A 
ATOM     19  C   LIG    1       -0.326  -0.043   4.945  0.00  0.00    +0.120 A 
ATOM     20  C   LIG    1        0.688   0.862   4.801  0.00  0.00    -0.260 A 
ATOM     21  S   LIG    1        1.537   0.562   3.290  0.00  0.00    +0.180 S 
BRANCH  17  28
ATOM     22  C   LIG    1        0.603   0.462   0.270  0.00  0.00    +0.110 C 
ATOM     23  C   LIG    1        0.612  -1.037   0.427  0.00  0.00    -0.120 A 
ATOM     24  C   LIG    1        0.681  -1.856  -0.680  0.00  0.00    +0.270 A 
ATOM     25  N   LIG    1        0.695  -3.169  -0.552  0.00  0.00    -0.480 NA
ATOM     26  C   LIG    1        0.634  -3.758   0.627  0.00  0.00    +0.260 A 
ATOM     27  C   LIG    1        0.558  -3.016   1.787  0.00  0.00    +0.000 A 
ATOM     28  C   LIG    1        0.546  -1.619   1.699  0.00  0.00    +0.010 A 
ENDBRANCH  17  28
ENDBRANCH   1  20
TORSDOF 5
