REMARK  Name = ZINCrg00000J1CVY.0
REMARK                            x       y       z     vdW  Elec       q    Type
REMARK                         _______ _______ _______ _____ _____    ______ ____
ROOT
ATOM      1  C   LIG    1       -6.798   1.523   2.709  0.00  0.00    -0.160 A 
ATOM      2  C   LIG    1       -6.423   0.477   1.862  0.00  0.00    +0.130 A 
ATOM      3  C   LIG    1       -5.184   0.479   1.260  0.00  0.00    -0.010 A 
ATOM      4  C   LIG    1       -4.302   1.527   1.503  0.00  0.00    +0.230 A 
ATOM      5  C   LIG    1       -4.666   2.549   2.369  0.00  0.00    -0.710 A 
ATOM      6  S   LIG    1       -3.459   3.792   2.706  0.00  0.00    +2.630 S 
ATOM      7  N   LIG    1       -2.019   3.102   2.274  0.00  0.00    -0.940 NA
ATOM      8  C   LIG    1       -1.962   2.082   1.459  0.00  0.00    +0.560 C 
ATOM      9  C   LIG    1       -0.620   1.519   1.265  0.00  0.00    +0.110 C 
ATOM     10  C   LIG    1       -0.013   1.086   0.008  0.00  0.00    +0.060 C 
ATOM     11  C   LIG    1       -0.661   1.545  -1.266  0.00  0.00    +0.020 C 
ATOM     12  C   LIG    1       -2.110   1.312  -1.490  0.00  0.00    +0.030 C 
ATOM     13  C   LIG    1       -3.061   0.922  -0.447  0.00  0.00    +0.280 C 
ATOM     14  O   LIG    1       -3.427   3.963   4.116  0.00  0.00    -0.930 OA
ATOM     15  O   LIG    1       -3.696   4.854   1.792  0.00  0.00    -0.950 OA
ATOM     16  N   LIG    1       -3.043   1.541   0.862  0.00  0.00    -0.570 N 
ATOM     17  C   LIG    1       -5.901   2.570   2.961  0.00  0.00    +0.230 A 
ENDROOT
BRANCH   1  19
ATOM     18  O   LIG    1       -8.458   2.438   4.072  0.00  0.00    -0.520 OA
ATOM     19  C   LIG    1       -8.134   1.527   3.335  0.00  0.00    +0.560 C 
ATOM     20  N   LIG    1       -8.995   0.519   3.091  0.00  0.00    -0.710 N 
ATOM     21  H   LIG    1       -8.737  -0.208   2.503  0.00  0.00    +0.400 HD
BRANCH  20  22
ATOM     22  C   LIG    1      -10.322   0.523   3.713  0.00  0.00    +0.270 C 
ATOM     23  C   LIG    1      -10.258  -0.155   5.093  0.00  0.00    +0.060 C 
ATOM     24  C   LIG    1      -11.696  -0.443   5.569  0.00  0.00    -0.310 C 
ATOM     25  S   LIG    1      -12.673  -0.646   4.036  0.00  0.00    +2.400 S 
ATOM     26  O   LIG    1      -13.078  -2.003   3.912  0.00  0.00    -0.930 OA
ATOM     27  O   LIG    1      -13.639   0.393   3.952  0.00  0.00    -0.930 OA
ATOM     28  C   LIG    1      -11.312  -0.307   2.856  0.00  0.00    -0.310 C 
ENDBRANCH  20  22
ENDBRANCH   1  19
TORSDOF 2
