REMARK  Name = ZINCrD00000F5Loh.0
REMARK                            x       y       z     vdW  Elec       q    Type
REMARK                         _______ _______ _______ _____ _____    ______ ____
ROOT
ATOM      1  C   LIG    1       -3.747  -1.092   0.013  0.00  0.00    +0.260 C 
ATOM      2  C   LIG    1       -4.233  -1.314  -1.433  0.00  0.00    -0.030 C 
ATOM      3  C   LIG    1       -4.311  -2.841  -1.643  0.00  0.00    +0.020 C 
ATOM      4  C   LIG    1       -3.331  -3.424  -0.591  0.00  0.00    +0.040 C 
ATOM      5  C   LIG    1       -3.531  -2.486   0.612  0.00  0.00    -0.090 C 
ATOM      6  C   LIG    1       -4.569  -2.940   1.635  0.00  0.00    +0.030 C 
ATOM      7  C   LIG    1       -3.404  -3.608   2.389  0.00  0.00    +0.010 C 
ATOM      8  C   LIG    1       -2.474  -2.586   1.708  0.00  0.00    +0.020 C 
ENDROOT
BRANCH   1  10
ATOM      9  C   LIG    1       -2.503   1.003   0.019  0.00  0.00    +0.560 C 
ATOM     10  N   LIG    1       -2.487  -0.345   0.011  0.00  0.00    -0.720 N 
ATOM     11  H   LIG    1       -1.641  -0.820   0.004  0.00  0.00    +0.400 HD
ATOM     12  O   LIG    1       -3.563   1.598   0.027  0.00  0.00    -0.520 OA
BRANCH   9  17
ATOM     13  C   LIG    1       -0.048   3.852   0.023  0.00  0.00    -0.100 A 
ATOM     14  C   LIG    1        1.160   3.164   0.008  0.00  0.00    +0.020 A 
ATOM     15  C   LIG    1        1.173   1.782   0.000  0.00  0.00    +0.040 A 
ATOM     16  C   LIG    1       -0.013   1.076   0.008  0.00  0.00    +0.040 A 
ATOM     17  C   LIG    1       -1.231   1.757   0.017  0.00  0.00    -0.110 A 
ATOM     18  C   LIG    1       -1.245   3.151   0.031  0.00  0.00    +0.100 A 
BRANCH  13  19
ATOM     19  S   LIG    1       -0.058   5.614   0.033  0.00  0.00    -0.080 S 
BRANCH  19  20
ATOM     20  C   LIG    1        1.707   6.033   0.019  0.00  0.00    +0.220 C 
BRANCH  20  22
ATOM     21  C   LIG    1        1.990   8.664   0.032  0.00  0.00    +0.080 C 
ATOM     22  C   LIG    1        1.865   7.496   0.026  0.00  0.00    -0.200 C 
ENDBRANCH  20  22
ENDBRANCH  19  20
ENDBRANCH  13  19
ENDBRANCH   9  17
ENDBRANCH   1  10
BRANCH   2  23
ATOM     23  C   LIG    1       -5.616  -0.688  -1.623  0.00  0.00    +0.280 C 
BRANCH  23  24
ATOM     24  N   LIG    1       -6.014  -0.800  -3.029  0.00  0.00    -0.720 N 
ATOM     25  H   LIG    1       -5.421  -1.225  -3.668  0.00  0.00    +0.400 HD
ATOM     26  C   LIG    1       -7.204  -0.313  -3.433  0.00  0.00    +0.540 C 
ATOM     27  O   LIG    1       -7.947   0.219  -2.631  0.00  0.00    -0.540 OA
BRANCH  26  28
ATOM     28  C   LIG    1       -7.603  -0.426  -4.844  0.00  0.00    -0.090 C 
ATOM     29  C   LIG    1       -8.777   0.054  -5.244  0.00  0.00    +0.140 C 
ENDBRANCH  26  28
ENDBRANCH  23  24
ENDBRANCH   2  23
TORSDOF 8
