REMARK  Name = ZINCpk00000y6tKu.1
REMARK                            x       y       z     vdW  Elec       q    Type
REMARK                         _______ _______ _______ _____ _____    ______ ____
ROOT
ATOM      1  C   LIG    1       -2.744  -0.995  -1.455  0.00  0.00    +0.600 C 
ATOM      2  N   LIG    1       -2.406  -0.231  -0.398  0.00  0.00    -0.600 N 
ATOM      3  C   LIG    1       -3.123   1.020  -0.139  0.00  0.00    +0.300 C 
ATOM      4  O   LIG    1       -2.100  -1.996  -1.714  0.00  0.00    -0.550 OA
ENDROOT
BRANCH   1   9
ATOM      5  C   LIG    1       -4.500  -4.395  -5.606  0.00  0.00    +0.120 C 
ATOM      6  C   LIG    1       -4.832  -3.068  -4.973  0.00  0.00    -0.070 A 
ATOM      7  C   LIG    1       -4.094  -2.606  -3.924  0.00  0.00    +0.080 A 
ATOM      8  C   LIG    1       -4.420  -1.368  -3.351  0.00  0.00    +0.090 A 
ATOM      9  C   LIG    1       -3.883  -0.622  -2.293  0.00  0.00    -0.070 A 
ATOM     10  N   LIG    1       -4.620   0.504  -2.191  0.00  0.00    -0.410 NA
ATOM     11  C   LIG    1       -5.550   0.504  -3.102  0.00  0.00    +0.360 A 
ATOM     12  N   LIG    1       -5.471  -0.635  -3.844  0.00  0.00    -0.370 N 
ATOM     13  C   LIG    1       -6.202  -1.111  -4.895  0.00  0.00    +0.220 A 
ATOM     14  C   LIG    1       -5.901  -2.300  -5.459  0.00  0.00    +0.020 A 
ENDBRANCH   1   9
BRANCH   2  15
ATOM     15  C   LIG    1       -1.322  -0.651   0.494  0.00  0.00    +0.310 C 
BRANCH  15  16
ATOM     16  C   LIG    1        0.005  -0.084  -0.014  0.00  0.00    +0.160 C 
ATOM     17  O   LIG    1        0.011   1.356   0.095  0.00  0.00    -0.350 OA
ATOM     18  C   LIG    1        1.405   1.733   0.078  0.00  0.00    +0.200 C 
ATOM     19  C   LIG    1        2.112   0.670   0.948  0.00  0.00    +0.020 C 
ATOM     20  C   LIG    1        1.170  -0.553   0.885  0.00  0.00    +0.080 C 
BRANCH  20  21
ATOM     21  C   LIG    1        0.665  -0.905   2.261  0.00  0.00    +0.240 A 
ATOM     22  N   LIG    1        0.767  -2.078   2.830  0.00  0.00    -0.310 NA
ATOM     23  N   LIG    1        0.172  -1.967   4.097  0.00  0.00    -0.480 N 
ATOM     24  H   LIG    1        0.088  -2.667   4.764  0.00  0.00    +0.440 HD
ATOM     25  C   LIG    1       -0.259  -0.698   4.203  0.00  0.00    +0.480 A 
ATOM     26  N   LIG    1        0.049  -0.071   3.097  0.00  0.00    -0.530 NA
ENDBRANCH  20  21
ENDBRANCH  15  16
ENDBRANCH   2  15
TORSDOF 4
