REMARK  Name = ZINCpk00000y6tKu.0
REMARK                            x       y       z     vdW  Elec       q    Type
REMARK                         _______ _______ _______ _____ _____    ______ ____
ROOT
ATOM      1  C   LIG    1        0.291  -2.880   3.617  0.00  0.00    +0.610 C 
ATOM      2  N   LIG    1       -0.005  -3.919   4.423  0.00  0.00    -0.600 N 
ATOM      3  C   LIG    1        0.008  -5.284   3.893  0.00  0.00    +0.300 C 
ATOM      4  O   LIG    1        0.353  -1.753   4.074  0.00  0.00    -0.540 OA
ENDROOT
BRANCH   1   9
ATOM      5  C   LIG    1        1.062   1.469   0.101  0.00  0.00    +0.100 C 
ATOM      6  C   LIG    1        1.015  -0.037   0.092  0.00  0.00    -0.070 A 
ATOM      7  C   LIG    1        0.786  -0.723   1.248  0.00  0.00    +0.080 A 
ATOM      8  C   LIG    1        0.746  -2.123   1.216  0.00  0.00    +0.090 A 
ATOM      9  C   LIG    1        0.539  -3.107   2.193  0.00  0.00    -0.070 A 
ATOM     10  N   LIG    1        0.612  -4.302   1.572  0.00  0.00    -0.410 NA
ATOM     11  C   LIG    1        0.845  -4.124   0.303  0.00  0.00    +0.360 A 
ATOM     12  N   LIG    1        0.937  -2.792   0.033  0.00  0.00    -0.370 N 
ATOM     13  C   LIG    1        1.165  -2.093  -1.118  0.00  0.00    +0.220 A 
ATOM     14  C   LIG    1        1.202  -0.743  -1.106  0.00  0.00    +0.020 A 
ENDBRANCH   1   9
BRANCH   2  15
ATOM     15  C   LIG    1       -0.339  -3.682   5.830  0.00  0.00    +0.320 C 
BRANCH  15  16
ATOM     16  C   LIG    1       -1.848  -3.476   5.968  0.00  0.00    +0.160 C 
ATOM     17  O   LIG    1       -2.552  -4.705   5.683  0.00  0.00    -0.360 OA
ATOM     18  C   LIG    1       -3.847  -4.553   6.306  0.00  0.00    +0.210 C 
ATOM     19  C   LIG    1       -3.559  -3.864   7.658  0.00  0.00    +0.020 C 
ATOM     20  C   LIG    1       -2.213  -3.139   7.431  0.00  0.00    +0.100 C 
BRANCH  20  21
ATOM     21  C   LIG    1       -1.161  -3.665   8.372  0.00  0.00    +0.190 A 
ATOM     22  N   LIG    1       -0.146  -2.996   8.849  0.00  0.00    -0.280 NA
ATOM     23  N   LIG    1        0.547  -3.755   9.622  0.00  0.00    -0.290 NA
ATOM     24  C   LIG    1        0.007  -4.942   9.673  0.00  0.00    +0.380 A 
ATOM     25  N   LIG    1       -1.096  -4.917   8.885  0.00  0.00    -0.580 N 
ATOM     26  H   LIG    1       -1.712  -5.648   8.721  0.00  0.00    +0.430 HD
ENDBRANCH  20  21
ENDBRANCH  15  16
ENDBRANCH   2  15
TORSDOF 4
