REMARK  Name = ZINCqH0000007QGn.0
REMARK                            x       y       z     vdW  Elec       q    Type
REMARK                         _______ _______ _______ _____ _____    ______ ____
ROOT
ATOM      1  C   LIG    1       -0.448  -6.798  -0.206  0.00  0.00    +0.510 C 
ATOM      2  N   LIG    1       -0.460  -6.184   0.993  0.00  0.00    -0.670 N 
ATOM      3  H   LIG    1        0.014  -5.346   1.114  0.00  0.00    +0.420 HD
ATOM      4  O   LIG    1       -0.970  -7.886  -0.335  0.00  0.00    -0.490 OA
ENDROOT
BRANCH   2   5
ATOM      5  C   LIG    1       -1.158  -6.754   2.066  0.00  0.00    +0.160 A 
ATOM      6  C   LIG    1       -1.794  -5.938   2.992  0.00  0.00    +0.010 A 
ATOM      7  C   LIG    1       -2.488  -6.499   4.048  0.00  0.00    +0.060 A 
ATOM      8  C   LIG    1       -2.539  -7.874   4.191  0.00  0.00    +0.020 A 
ATOM      9  O   LIG    1       -3.139  -8.672   5.131  0.00  0.00    -0.290 OA
ATOM     10  C   LIG    1       -3.259  -9.943   4.477  0.00  0.00    +0.250 C 
ATOM     11  O   LIG    1       -2.100 -10.000   3.634  0.00  0.00    -0.290 OA
ATOM     12  C   LIG    1       -3.263 -11.091   5.493  0.00  0.00    +0.070 C 
ATOM     13  C   LIG    1       -4.765 -11.447   5.648  0.00  0.00    +0.040 C 
ATOM     14  C   LIG    1       -5.315 -11.264   4.211  0.00  0.00    +0.040 C 
ATOM     15  C   LIG    1       -4.550 -10.037   3.665  0.00  0.00    +0.020 C 
ATOM     16  C   LIG    1       -1.897  -8.696   3.265  0.00  0.00    +0.050 A 
ATOM     17  C   LIG    1       -1.208  -8.135   2.206  0.00  0.00    +0.050 A 
ENDBRANCH   2   5
BRANCH   1  18
ATOM     18  C   LIG    1        0.214  -6.135  -1.386  0.00  0.00    +0.240 C 
BRANCH  18  19
ATOM     19  O   LIG    1        0.095  -6.978  -2.534  0.00  0.00    -0.280 OA
BRANCH  19  25
ATOM     20  C   LIG    1        0.566  -7.293  -4.850  0.00  0.00    +0.110 A 
ATOM     21  C   LIG    1        1.121  -6.823  -6.029  0.00  0.00    -0.030 A 
ATOM     22  C   LIG    1        1.757  -5.595  -6.053  0.00  0.00    +0.020 A 
ATOM     23  C   LIG    1        1.840  -4.834  -4.902  0.00  0.00    +0.010 A 
ATOM     24  C   LIG    1        1.288  -5.297  -3.722  0.00  0.00    -0.030 A 
ATOM     25  C   LIG    1        0.644  -6.523  -3.693  0.00  0.00    +0.100 A 
BRANCH  20  27
ATOM     26  C   LIG    1       -0.107  -9.232  -6.052  0.00  0.00    +0.250 C 
ATOM     27  O   LIG    1       -0.060  -8.500  -4.825  0.00  0.00    -0.300 OA
ENDBRANCH  20  27
ENDBRANCH  19  25
ENDBRANCH  18  19
ENDBRANCH   1  18
TORSDOF 5
