REMARK  Name = ZINCpk00000y6tKL.0
REMARK                            x       y       z     vdW  Elec       q    Type
REMARK                         _______ _______ _______ _____ _____    ______ ____
ROOT
ATOM      1  C   LIG    1       -4.234   1.140   3.215  0.00  0.00    +0.450 A 
ATOM      2  C   LIG    1       -3.896   2.336   3.840  0.00  0.00    -0.180 A 
ATOM      3  C   LIG    1       -4.837   3.362   3.852  0.00  0.00    +0.380 A 
ATOM      4  N   LIG    1       -6.022   3.158   3.280  0.00  0.00    -0.600 NA
ATOM      5  C   LIG    1       -6.306   2.008   2.703  0.00  0.00    +0.560 A 
ATOM      6  N   LIG    1       -5.441   1.016   2.665  0.00  0.00    -0.600 NA
ENDROOT
BRANCH   3   7
ATOM      7  N   LIG    1       -4.547   4.575   4.458  0.00  0.00    -0.470 N 
ATOM      8  C   LIG    1       -3.328   5.167   3.891  0.00  0.00    +0.210 C 
ATOM      9  C   LIG    1       -2.959   6.427   4.678  0.00  0.00    +0.060 C 
ATOM     10  C   LIG    1       -4.116   7.426   4.606  0.00  0.00    -0.020 C 
ATOM     11  C   LIG    1       -5.384   6.768   5.157  0.00  0.00    +0.060 C 
ATOM     12  C   LIG    1       -5.684   5.499   4.356  0.00  0.00    +0.210 C 
BRANCH  10  13
ATOM     13  C   LIG    1       -3.784   8.645   5.427  0.00  0.00    +0.530 C 
ATOM     14  N   LIG    1       -3.202   9.712   4.845  0.00  0.00    -0.620 N 
ATOM     15  C   LIG    1       -2.736  10.920   5.541  0.00  0.00    +0.240 C 
ATOM     16  C   LIG    1       -2.166  11.875   4.471  0.00  0.00    +0.030 C 
ATOM     17  C   LIG    1       -2.865  11.394   3.172  0.00  0.00    +0.040 C 
ATOM     18  C   LIG    1       -2.933   9.864   3.403  0.00  0.00    +0.250 C 
ATOM     19  O   LIG    1       -4.039   8.665   6.613  0.00  0.00    -0.530 OA
ENDBRANCH  10  13
ENDBRANCH   3   7
BRANCH   1  20
ATOM     20  N   LIG    1       -3.330   0.090   3.171  0.00  0.00    -0.700 N 
ATOM     21  H   LIG    1       -3.574  -0.743   2.737  0.00  0.00    +0.410 HD
BRANCH  20  22
ATOM     22  CA  LIG    1       -2.005   0.238   3.779  0.00  0.00    +0.250 C 
BRANCH  22  24
ATOM     23  C   LIG    1       -0.844  -0.313   1.636  0.00  0.00    +0.020 C 
ATOM     24  C   LIG    1       -1.023  -0.719   3.100  0.00  0.00    +0.030 C 
ENDBRANCH  22  24
BRANCH  22  25
ATOM     25  C   LIG    1       -2.089  -0.091   5.271  0.00  0.00    +0.170 C 
BRANCH  25  26
ATOM     26  O   LIG    1       -2.429  -1.469   5.436  0.00  0.00    -0.570 OA
ATOM     27  H   LIG    1       -2.500  -1.748   6.359  0.00  0.00    +0.380 HD
ENDBRANCH  25  26
ENDBRANCH  22  25
ENDBRANCH  20  22
ENDBRANCH   1  20
TORSDOF 7
