REMARK  Name = ZINCtV000002EB9I.0
REMARK                            x       y       z     vdW  Elec       q    Type
REMARK                         _______ _______ _______ _____ _____    ______ ____
ROOT
ATOM      1  C   LIG    1        0.002  -0.004   0.002  0.00  0.00    +0.460 A 
ATOM      2  N   LIG    1        0.938  -0.614  -0.670  0.00  0.00    -0.560 NA
ATOM      3  C   LIG    1        1.010  -1.955  -0.710  0.00  0.00    +0.540 A 
ATOM      4  C   LIG    1       -0.003  -2.743   0.017  0.00  0.00    -0.210 A 
ATOM      5  C   LIG    1       -0.975  -2.043   0.709  0.00  0.00    +0.050 A 
ATOM      6  S   LIG    1       -2.075  -3.162   1.500  0.00  0.00    +0.220 S 
ATOM      7  C   LIG    1       -1.208  -4.558   0.888  0.00  0.00    -0.010 A 
ATOM      8  C   LIG    1       -0.166  -4.186   0.141  0.00  0.00    +0.040 A 
ATOM      9  O   LIG    1        1.895  -2.511  -1.341  0.00  0.00    -0.460 OA
ATOM     10  N   LIG    1       -0.947  -0.665   0.683  0.00  0.00    -0.580 N 
ATOM     11  H   LIG    1       -1.624  -0.165   1.165  0.00  0.00    +0.430 HD
ENDROOT
BRANCH   8  12
ATOM     12  C   LIG    1        0.743  -5.154  -0.505  0.00  0.00    +0.040 A 
ATOM     13  C   LIG    1        1.354  -6.205   0.104  0.00  0.00    -0.030 A 
ATOM     14  C   LIG    1        2.122  -6.856  -0.883  0.00  0.00    -0.070 A 
ATOM     15  C   LIG    1        1.951  -6.174  -2.030  0.00  0.00    +0.180 A 
ATOM     16  O   LIG    1        1.117  -5.145  -1.799  0.00  0.00    -0.150 OA
ENDBRANCH   8  12
BRANCH   1  18
ATOM     17  C   LIG    1       -0.758   2.010  -1.229  0.00  0.00    +0.100 C 
ATOM     18  C   LIG    1       -0.018   1.503   0.010  0.00  0.00    +0.070 C 
BRANCH  18  19
ATOM     19  S   LIG    1        1.683   2.131  -0.003  0.00  0.00    +0.090 S 
BRANCH  19  20
ATOM     20  C   LIG    1        1.465   3.872   0.159  0.00  0.00    +0.130 A 
ATOM     21  N   LIG    1        0.243   4.374   0.251  0.00  0.00    -0.480 NA
ATOM     22  C   LIG    1        0.036   5.672   0.373  0.00  0.00    +0.360 A 
ATOM     23  C   LIG    1        1.093   6.558   0.408  0.00  0.00    -0.240 A 
ATOM     24  C   LIG    1        2.392   6.073   0.314  0.00  0.00    +0.170 A 
ATOM     25  C   LIG    1        2.579   4.707   0.193  0.00  0.00    -0.080 A 
ATOM     26 CL   LIG    1        4.180   4.045   0.079  0.00  0.00    -0.010 Cl
BRANCH  23  27
ATOM     27  C   LIG    1        0.842   8.037   0.548  0.00  0.00    +0.520 C 
ATOM     28  F   LIG    1        1.369   8.707  -0.561  0.00  0.00    -0.170 F 
ATOM     29  F   LIG    1        1.460   8.507   1.712  0.00  0.00    -0.170 F 
ATOM     30  F   LIG    1       -0.535   8.271   0.624  0.00  0.00    -0.170 F 
ENDBRANCH  23  27
ENDBRANCH  19  20
ENDBRANCH  18  19
ENDBRANCH   1  18
TORSDOF 5
