REMARK  Name = ZINCrD0000071Tv4.0
REMARK                            x       y       z     vdW  Elec       q    Type
REMARK                         _______ _______ _______ _____ _____    ______ ____
ROOT
ATOM      1  C   LIG    1       -0.013   1.086   0.008  0.00  0.00    +0.300 C 
ENDROOT
BRANCH   1   2
ATOM      2  N   LIG    1       -0.721   1.571  -1.179  0.00  0.00    -0.700 N 
ATOM      3  H   LIG    1       -1.263   2.374  -1.126  0.00  0.00    +0.410 HD
ATOM      4  C   LIG    1       -0.620   0.902  -2.344  0.00  0.00    +0.560 C 
ATOM      5  O   LIG    1        0.059  -0.105  -2.411  0.00  0.00    -0.540 OA
BRANCH   4   6
ATOM      6  C   LIG    1       -1.329   1.387  -3.531  0.00  0.00    -0.080 C 
ATOM      7  C   LIG    1       -1.228   0.718  -4.697  0.00  0.00    +0.130 C 
BRANCH   7   8
ATOM      8  C   LIG    1       -1.940   1.206  -5.889  0.00  0.00    -0.040 A 
ATOM      9  C   LIG    1       -2.721   2.363  -5.816  0.00  0.00    -0.010 A 
ATOM     10  C   LIG    1       -3.386   2.816  -6.936  0.00  0.00    +0.050 A 
ATOM     11  C   LIG    1       -3.283   2.130  -8.133  0.00  0.00    -0.070 A 
ATOM     12  C   LIG    1       -2.509   0.980  -8.216  0.00  0.00    +0.130 A 
ATOM     13  C   LIG    1       -1.833   0.517  -7.101  0.00  0.00    +0.010 A 
BRANCH  12  14
ATOM     14  O   LIG    1       -2.412   0.311  -9.395  0.00  0.00    -0.320 OA
ATOM     15  C   LIG    1       -3.131   0.848 -10.507  0.00  0.00    +0.250 C 
ENDBRANCH  12  14
ENDBRANCH   7   8
ENDBRANCH   4   6
ENDBRANCH   1   2
BRANCH   1  16
ATOM     16  C   LIG    1        1.401   1.607  -0.003  0.00  0.00    +0.450 C 
ATOM     17  O   LIG    1        1.778   2.312  -0.909  0.00  0.00    -0.490 OA
BRANCH  16  18
ATOM     18  O   LIG    1        2.241   1.289   0.994  0.00  0.00    -0.360 OA
BRANCH  18  20
ATOM     19  C   LIG    1        4.393   1.360   2.133  0.00  0.00    +0.070 C 
ATOM     20  C   LIG    1        3.588   1.827   0.919  0.00  0.00    +0.200 C 
ENDBRANCH  18  20
ENDBRANCH  16  18
ENDBRANCH   1  16
BRANCH   1  21
ATOM     21  C   LIG    1       -0.729   1.579   1.267  0.00  0.00    +0.120 C 
BRANCH  21  22
ATOM     22  C   LIG    1       -2.100   0.959   1.340  0.00  0.00    -0.090 A 
ATOM     23  C   LIG    1       -3.180   1.600   0.761  0.00  0.00    +0.010 A 
ATOM     24  C   LIG    1       -4.437   1.028   0.824  0.00  0.00    +0.000 A 
ATOM     25  C   LIG    1       -4.617  -0.178   1.475  0.00  0.00    -0.080 A 
ATOM     26  C   LIG    1       -3.538  -0.816   2.058  0.00  0.00    +0.000 A 
ATOM     27  C   LIG    1       -5.989  -0.797   1.549  0.00  0.00    +0.090 C 
ATOM     28  C   LIG    1       -2.280  -0.247   1.991  0.00  0.00    +0.020 A 
ENDBRANCH  21  22
ENDBRANCH   1  21
TORSDOF 9
