REMARK  Name = ZINCkj000005fXij.0
REMARK                            x       y       z     vdW  Elec       q    Type
REMARK                         _______ _______ _______ _____ _____    ______ ____
ROOT
ATOM      1  C   LIG    1       -0.930   1.894   1.440  0.00  0.00    -0.670 A 
ATOM      2  C   LIG    1       -0.728   3.140   2.004  0.00  0.00    +0.120 A 
ATOM      3  C   LIG    1       -1.447   3.516   3.123  0.00  0.00    +0.010 A 
ATOM      4  C   LIG    1       -2.361   2.643   3.683  0.00  0.00    -0.030 A 
ATOM      5  C   LIG    1       -2.559   1.395   3.122  0.00  0.00    +0.000 A 
ATOM      6  C   LIG    1       -1.843   1.021   2.000  0.00  0.00    +0.130 A 
ENDROOT
BRANCH   1   7
ATOM      7  S   LIG    1       -0.017   1.417   0.010  0.00  0.00    +2.690 S 
ATOM      8  O   LIG    1        1.162   2.210   0.003  0.00  0.00    -0.950 OA
ATOM      9  O   LIG    1        0.002  -0.004   0.002  0.00  0.00    -0.950 OA
BRANCH   7  10
ATOM     10  N   LIG    1       -0.900   1.880  -1.312  0.00  0.00    -0.990 NA
BRANCH  10  12
ATOM     11  C   LIG    1        0.296   3.114  -3.052  0.00  0.00    +0.010 C 
ATOM     12  C   LIG    1       -0.702   3.208  -1.897  0.00  0.00    +0.280 C 
ENDBRANCH  10  12
BRANCH  10  13
ATOM     13  C   LIG    1       -1.879   0.961  -1.898  0.00  0.00    +0.300 C 
ATOM     14  C   LIG    1       -3.266   1.259  -1.323  0.00  0.00    +0.000 C 
ENDBRANCH  10  13
ENDBRANCH   7  10
ENDBRANCH   1   7
BRANCH   4  15
ATOM     15  C   LIG    1       -3.140   3.051   4.907  0.00  0.00    +0.220 C 
ATOM     16  C   LIG    1       -2.267   2.875   6.150  0.00  0.00    +0.030 C 
BRANCH  15  17
ATOM     17  N   LIG    1       -3.542   4.459   4.785  0.00  0.00    -0.680 NA
ATOM     18  H   LIG    1       -2.784   5.074   5.041  0.00  0.00    +0.350 HD
BRANCH  17  19
ATOM     19  C   LIG    1       -4.740   4.736   5.588  0.00  0.00    +0.190 C 
BRANCH  19  20
ATOM     20  C   LIG    1       -5.126   6.209   5.436  0.00  0.00    +0.260 C 
BRANCH  20  21
ATOM     21  N   LIG    1       -6.324   6.486   6.240  0.00  0.00    -0.640 N 
ATOM     22  H   LIG    1       -7.085   5.904   5.922  0.00  0.00    +0.440 HD
ATOM     23  H   LIG    1       -6.579   7.457   6.139  0.00  0.00    +0.440 HD
ATOM     24  H   LIG    1       -6.132   6.287   7.210  0.00  0.00    +0.440 HD
ENDBRANCH  20  21
ENDBRANCH  19  20
ENDBRANCH  17  19
ENDBRANCH  15  17
ENDBRANCH   4  15
TORSDOF 9
