REMARK  Name = ZINCpk00000FcHoU.0
REMARK                            x       y       z     vdW  Elec       q    Type
REMARK                         _______ _______ _______ _____ _____    ______ ____
ROOT
ATOM      1  C   LIG    1        6.003   1.994  -0.954  0.00  0.00    +0.390 C 
ENDROOT
BRANCH   1   2
ATOM      2  C   LIG    1        6.624   2.454   0.366  0.00  0.00    -0.010 C 
ATOM      3  C   LIG    1        6.900   1.236   1.254  0.00  0.00    -0.010 C 
ATOM      4  C   LIG    1        7.446   1.712   2.603  0.00  0.00    +0.210 C 
ATOM      5  O   LIG    1        6.508   2.604   3.209  0.00  0.00    -0.380 OA
ATOM      6  C   LIG    1        6.249   3.784   2.445  0.00  0.00    +0.210 C 
ATOM      7  C   LIG    1        5.653   3.392   1.090  0.00  0.00    +0.030 C 
ENDBRANCH   1   2
BRANCH   1  11
ATOM      8  C   LIG    1        8.378   0.234  -2.990  0.00  0.00    +0.180 A 
ATOM      9  N   LIG    1        8.030  -0.663  -2.117  0.00  0.00    -0.370 NA
ATOM     10  O   LIG    1        7.215  -0.204  -1.345  0.00  0.00    +0.090 OA
ATOM     11  C   LIG    1        6.957   1.068  -1.663  0.00  0.00    +0.170 A 
ATOM     12  N   LIG    1        7.690   1.355  -2.712  0.00  0.00    -0.460 NA
BRANCH   8  14
ATOM     13  C   LIG    1       10.734  -0.319  -3.532  0.00  0.00    +0.040 C 
ATOM     14  C   LIG    1        9.367   0.050  -4.112  0.00  0.00    +0.090 C 
ATOM     15  C   LIG    1        8.887  -1.070  -5.038  0.00  0.00    +0.040 C 
ENDBRANCH   8  14
ENDBRANCH   1  11
BRANCH   1  16
ATOM     16  N   LIG    1        4.748   1.288  -0.684  0.00  0.00    -0.710 N 
ATOM     17  H   LIG    1        4.741   0.321  -0.612  0.00  0.00    +0.420 HD
ATOM     18  C   LIG    1        3.602   1.983  -0.536  0.00  0.00    +0.600 C 
ATOM     19  O   LIG    1        3.611   3.195  -0.627  0.00  0.00    -0.530 OA
BRANCH  18  20
ATOM     20  C   LIG    1        2.337   1.271  -0.264  0.00  0.00    -0.050 A 
ATOM     21  N   LIG    1        2.341  -0.042  -0.052  0.00  0.00    -0.370 NA
ATOM     22  C   LIG    1        1.210  -0.673   0.191  0.00  0.00    +0.170 A 
ATOM     23  C   LIG    1        0.011   0.025   0.228  0.00  0.00    +0.320 A 
ATOM     24  N   LIG    1       -0.008   1.328   0.020  0.00  0.00    -0.500 NA
ATOM     25  C   LIG    1        1.123   1.978  -0.226  0.00  0.00    +0.410 A 
BRANCH  25  26
ATOM     26  N   LIG    1        1.107   3.343  -0.445  0.00  0.00    -0.820 N 
ATOM     27  H   LIG    1        1.829   3.764  -0.939  0.00  0.00    +0.430 HD
ATOM     28  H   LIG    1        0.375   3.881  -0.105  0.00  0.00    +0.410 HD
ENDBRANCH  25  26
ENDBRANCH  18  20
ENDBRANCH   1  16
TORSDOF 6
