REMARK  Name = ZINCvU0000000JWz.0
REMARK                            x       y       z     vdW  Elec       q    Type
REMARK                         _______ _______ _______ _____ _____    ______ ____
ROOT
ATOM      1  C   LIG    1       -1.106  -2.133  -0.115  0.00  0.00    +0.280 C 
ATOM      2  C   LIG    1       -1.146  -2.529  -1.606  0.00  0.00    +0.020 C 
ATOM      3  C   LIG    1       -2.484  -2.283  -2.164  0.00  0.00    +0.000 C 
ATOM      4  C   LIG    1       -2.912  -0.819  -2.148  0.00  0.00    +0.010 C 
ATOM      5  C   LIG    1       -3.514  -0.488  -0.805  0.00  0.00    +0.020 C 
ATOM      6  C   LIG    1       -2.426   0.050   0.143  0.00  0.00    +0.250 C 
ATOM      7  N   LIG    1       -1.158  -0.694   0.014  0.00  0.00    -0.600 N 
ATOM      8  C   LIG    1       -0.001  -0.003   0.010  0.00  0.00    +0.510 C 
ATOM      9  O   LIG    1        1.058  -0.593  -0.019  0.00  0.00    -0.500 OA
ENDROOT
BRANCH   1  13
ATOM     10  C   LIG    1        2.515  -3.588   1.628  0.00  0.00    +0.120 A 
ATOM     11  C   LIG    1        2.295  -3.725   0.265  0.00  0.00    -0.020 A 
ATOM     12  C   LIG    1        1.124  -3.255  -0.296  0.00  0.00    +0.070 A 
ATOM     13  C   LIG    1        0.171  -2.646   0.499  0.00  0.00    -0.090 A 
ATOM     14  C   LIG    1        0.390  -2.503   1.857  0.00  0.00    +0.040 A 
ATOM     15  C   LIG    1        1.557  -2.977   2.424  0.00  0.00    -0.080 A 
BRANCH  10  17
ATOM     16  C   LIG    1        3.824  -3.874   3.591  0.00  0.00    +0.230 C 
ATOM     17  O   LIG    1        3.666  -4.051   2.182  0.00  0.00    -0.320 OA
ENDBRANCH  10  17
ENDBRANCH   1  13
BRANCH   8  18
ATOM     18  C   LIG    1       -0.024   1.504   0.042  0.00  0.00    +0.060 C 
BRANCH  18  19
ATOM     19  C   LIG    1        1.411   2.035   0.030  0.00  0.00    +0.220 C 
BRANCH  19  20
ATOM     20  C   LIG    1        1.388   3.542   0.062  0.00  0.00    +0.170 A 
ATOM     21  N   LIG    1        1.394   4.290   1.130  0.00  0.00    -0.280 NA
ATOM     22  N   LIG    1        1.370   5.529   0.788  0.00  0.00    -0.280 NA
ATOM     23  C   LIG    1        1.348   5.616  -0.522  0.00  0.00    +0.210 A 
ATOM     24  O   LIG    1        1.365   4.358  -1.006  0.00  0.00    -0.220 OA
BRANCH  23  25
ATOM     25  C   LIG    1        1.317   6.862  -1.318  0.00  0.00    -0.040 A 
ATOM     26  C   LIG    1        1.303   6.802  -2.712  0.00  0.00    +0.050 A 
ATOM     27  C   LIG    1        1.269   7.968  -3.449  0.00  0.00    +0.010 A 
ATOM     28  C   LIG    1        1.260   9.194  -2.809  0.00  0.00    -0.060 A 
ATOM     29  C   LIG    1        1.280   9.261  -1.427  0.00  0.00    +0.020 A 
ATOM     30  C   LIG    1        1.230  10.464  -3.620  0.00  0.00    +0.100 C 
ATOM     31  C   LIG    1        1.308   8.102  -0.678  0.00  0.00    +0.080 A 
ENDBRANCH  23  25
ENDBRANCH  19  20
ENDBRANCH  18  19
ENDBRANCH   8  18
TORSDOF 6
