REMARK  Name = ZINCrD0000074StV.0
REMARK                            x       y       z     vdW  Elec       q    Type
REMARK                         _______ _______ _______ _____ _____    ______ ____
ROOT
ATOM      1  C   LIG    1        5.445  -2.285  -3.063  0.00  0.00    -0.020 C 
ATOM      2  C   LIG    1        4.333  -3.217  -3.551  0.00  0.00    +0.040 C 
ATOM      3  C   LIG    1        4.625  -3.653  -4.989  0.00  0.00    +0.020 C 
ATOM      4  C   LIG    1        5.951  -4.420  -5.027  0.00  0.00    +0.290 C 
ATOM      5  N   LIG    1        6.998  -3.583  -4.426  0.00  0.00    -1.000 NA
ATOM      6  C   LIG    1        6.780  -3.037  -3.080  0.00  0.00    +0.330 C 
ENDROOT
BRANCH   1   9
ATOM      7  N   LIG    1        4.007  -1.148  -1.403  0.00  0.00    -0.720 N 
ATOM      8  H   LIG    1        3.388  -0.949  -2.122  0.00  0.00    +0.400 HD
ATOM      9  C   LIG    1        5.140  -1.831  -1.659  0.00  0.00    +0.520 C 
ATOM     10  O   LIG    1        5.915  -2.080  -0.760  0.00  0.00    -0.530 OA
BRANCH   7  11
ATOM     11  C   LIG    1        3.711  -0.707  -0.037  0.00  0.00    +0.320 C 
BRANCH  11  18
ATOM     12  C   LIG    1        1.229  -2.186  -0.021  0.00  0.00    +0.090 C 
ATOM     13  C   LIG    1        1.208  -0.679  -0.013  0.00  0.00    -0.070 A 
ATOM     14  C   LIG    1        0.002  -0.004   0.002  0.00  0.00    +0.000 A 
ATOM     15  C   LIG    1       -0.017   1.378   0.010  0.00  0.00    +0.010 A 
ATOM     16  C   LIG    1        1.171   2.086   0.002  0.00  0.00    -0.010 A 
ATOM     17  C   LIG    1        2.377   1.411  -0.015  0.00  0.00    +0.020 A 
ATOM     18  C   LIG    1        2.396   0.029  -0.021  0.00  0.00    -0.110 A 
ENDBRANCH  11  18
ENDBRANCH   7  11
ENDBRANCH   1   9
BRANCH   5  19
ATOM     19  S   LIG    1        8.399  -3.263  -5.250  0.00  0.00    +2.690 S 
ATOM     20  O   LIG    1        8.557  -4.312  -6.194  0.00  0.00    -0.950 OA
ATOM     21  O   LIG    1        9.377  -2.945  -4.269  0.00  0.00    -0.950 OA
BRANCH  19  22
ATOM     22  C   LIG    1        8.131  -1.791  -6.181  0.00  0.00    -0.680 A 
ATOM     23  C   LIG    1        7.639  -1.869  -7.470  0.00  0.00    +0.140 A 
ATOM     24  C   LIG    1        7.425  -0.715  -8.200  0.00  0.00    +0.020 A 
ATOM     25  C   LIG    1        7.713   0.518  -7.643  0.00  0.00    +0.020 A 
ATOM     26  C   LIG    1        8.210   0.595  -6.354  0.00  0.00    +0.010 A 
ATOM     27 CL   LIG    1        7.451   1.968  -8.561  0.00  0.00    -0.050 Cl
ATOM     28  C   LIG    1        8.419  -0.559  -5.624  0.00  0.00    +0.140 A 
ENDBRANCH  19  22
ENDBRANCH   5  19
TORSDOF 5
