REMARK  Name = ZINCqH0000007lbV.0
REMARK                            x       y       z     vdW  Elec       q    Type
REMARK                         _______ _______ _______ _____ _____    ______ ____
ROOT
ATOM      1  N   LIG    1        3.039   5.334   0.002  0.00  0.00    -0.660 N 
ATOM      2  H   LIG    1        2.296   5.954  -0.064  0.00  0.00    +0.420 HD
ATOM      3  C   LIG    1        2.811   4.006   0.001  0.00  0.00    +0.510 C 
ATOM      4  O   LIG    1        3.743   3.230  -0.019  0.00  0.00    -0.510 OA
ENDROOT
BRANCH   1   9
ATOM      5  C   LIG    1        6.634   5.525   0.778  0.00  0.00    +0.120 A 
ATOM      6  C   LIG    1        6.943   6.784   0.285  0.00  0.00    -0.060 A 
ATOM      7  C   LIG    1        5.961   7.561  -0.300  0.00  0.00    -0.010 A 
ATOM      8  C   LIG    1        4.664   7.084  -0.396  0.00  0.00    +0.060 A 
ATOM      9  C   LIG    1        4.350   5.819   0.098  0.00  0.00    +0.160 A 
ATOM     10  C   LIG    1        5.336   5.044   0.689  0.00  0.00    +0.030 A 
BRANCH   5  12
ATOM     11  C   LIG    1        8.916   5.324   1.417  0.00  0.00    +0.250 C 
ATOM     12  O   LIG    1        7.603   4.764   1.353  0.00  0.00    -0.310 OA
ENDBRANCH   5  12
BRANCH   8  13
ATOM     13  O   LIG    1        3.698   7.849  -0.972  0.00  0.00    -0.320 OA
ATOM     14  C   LIG    1        4.091   9.135  -1.456  0.00  0.00    +0.250 C 
ENDBRANCH   8  13
ENDBRANCH   1   9
BRANCH   3  15
ATOM     15  C   LIG    1        1.397   3.485   0.023  0.00  0.00    +0.060 C 
BRANCH  15  16
ATOM     16  C   LIG    1        1.417   1.955   0.017  0.00  0.00    +0.070 C 
BRANCH  16  17
ATOM     17  C   LIG    1       -0.018   1.425   0.040  0.00  0.00    +0.200 C 
BRANCH  17  18
ATOM     18  O   LIG    1        0.001  -0.003   0.034  0.00  0.00    -0.310 OA
BRANCH  18  19
ATOM     19  C   LIG    1       -1.199  -0.635   0.053  0.00  0.00    +0.170 A 
ATOM     20  C   LIG    1       -2.374   0.109   0.082  0.00  0.00    -0.090 A 
ATOM     21  C   LIG    1       -3.590  -0.525   0.095  0.00  0.00    +0.110 A 
ATOM     22  C   LIG    1       -3.647  -1.924   0.091  0.00  0.00    -0.220 A 
ATOM     23  C   LIG    1       -2.461  -2.669   0.068  0.00  0.00    +0.120 A 
ATOM     24  C   LIG    1       -1.251  -2.025   0.048  0.00  0.00    -0.030 A 
BRANCH  22  25
ATOM     25  C   LIG    1       -4.946  -2.609   0.112  0.00  0.00    +0.400 C 
ATOM     26  O   LIG    1       -4.994  -3.821   0.109  0.00  0.00    -0.460 OA
ATOM     27  C   LIG    1       -6.221  -1.805   0.138  0.00  0.00    +0.080 C 
ENDBRANCH  22  25
ENDBRANCH  18  19
ENDBRANCH  17  18
ENDBRANCH  16  17
ENDBRANCH  15  16
ENDBRANCH   3  15
TORSDOF 9
