REMARK  Name = ZINCrH000004ntKN.0
REMARK                            x       y       z     vdW  Elec       q    Type
REMARK                         _______ _______ _______ _____ _____    ______ ____
ROOT
ATOM      1  N   LIG    1       -0.472   8.278   0.456  0.00  0.00    -0.590 N 
ATOM      2  C   LIG    1       -1.143   9.446   0.393  0.00  0.00    +0.560 C 
ATOM      3  O   LIG    1       -2.348   9.464   0.553  0.00  0.00    -0.510 OA
ATOM      4  C   LIG    1        0.989   8.267   0.359  0.00  0.00    +0.290 C 
ENDROOT
BRANCH   2   5
ATOM      5  C   LIG    1       -0.413  10.704   0.131  0.00  0.00    -0.140 A 
ATOM      6  C   LIG    1        0.724  11.004   0.862  0.00  0.00    +0.150 A 
ATOM      7  C   LIG    1        1.417  12.198   0.604  0.00  0.00    +0.060 A 
ATOM      8  N   LIG    1        2.521  12.514   1.291  0.00  0.00    -0.410 NA
ATOM      9  C   LIG    1        3.147  13.639   1.035  0.00  0.00    +0.260 A 
ATOM     10  C   LIG    1        2.674  14.511   0.052  0.00  0.00    +0.280 A 
ATOM     11  N   LIG    1        1.593  14.224  -0.636  0.00  0.00    -0.430 NA
ATOM     12  C   LIG    1        0.935  13.084  -0.394  0.00  0.00    +0.120 A 
ATOM     13  C   LIG    1       -0.225  12.754  -1.116  0.00  0.00    +0.030 A 
ATOM     14  C   LIG    1       -0.881  11.591  -0.858  0.00  0.00    +0.170 A 
ATOM     15  F   LIG    1       -1.995  11.283  -1.557  0.00  0.00    -0.110 F 
ENDBRANCH   2   5
BRANCH   1  18
ATOM     16  C   LIG    1        0.244   5.600   1.228  0.00  0.00    +0.020 C 
ATOM     17  C   LIG    1       -0.540   5.823  -0.076  0.00  0.00    +0.040 C 
ATOM     18  C   LIG    1       -1.206   7.021   0.622  0.00  0.00    +0.230 C 
ATOM     19  C   LIG    1       -0.913   6.308   1.952  0.00  0.00    +0.040 C 
BRANCH  16  24
ATOM     20  C   LIG    1        1.702   2.360   2.516  0.00  0.00    +0.130 A 
ATOM     21  C   LIG    1        0.656   1.479   2.289  0.00  0.00    -0.080 A 
ATOM     22  C   LIG    1       -0.516   1.933   1.716  0.00  0.00    +0.050 A 
ATOM     23  C   LIG    1       -0.650   3.267   1.378  0.00  0.00    -0.020 A 
ATOM     24  C   LIG    1        0.392   4.147   1.603  0.00  0.00    -0.030 A 
ATOM     25  C   LIG    1        1.567   3.697   2.171  0.00  0.00    -0.020 A 
BRANCH  20  27
ATOM     26  C   LIG    1        2.927   0.526   3.404  0.00  0.00    +0.250 C 
ATOM     27  O   LIG    1        2.858   1.915   3.075  0.00  0.00    -0.320 OA
ENDBRANCH  20  27
ENDBRANCH  16  24
ENDBRANCH   1  18
TORSDOF 4
