REMARK  Name = ZINCkj000005m52W.2
REMARK                            x       y       z     vdW  Elec       q    Type
REMARK                         _______ _______ _______ _____ _____    ______ ____
ROOT
ATOM      1  O   LIG    1        4.151   0.046  -1.786  0.00  0.00    -0.520 OA
ATOM      2  C   LIG    1        3.087  -0.526  -1.675  0.00  0.00    +0.510 C 
ATOM      3  N   LIG    1        1.965   0.179  -1.430  0.00  0.00    -0.580 N 
ATOM      4  C   LIG    1        0.663  -0.493  -1.292  0.00  0.00    +0.250 C 
ATOM      5  C   LIG    1        0.002  -0.004   0.002  0.00  0.00    +0.230 C 
ATOM      6  O   LIG    1       -0.017   1.425   0.010  0.00  0.00    -0.360 OA
ATOM      7  C   LIG    1        1.279   2.028   0.001  0.00  0.00    +0.210 C 
ATOM      8  C   LIG    1        2.005   1.644  -1.293  0.00  0.00    +0.300 C 
ENDROOT
BRANCH   7   9
ATOM      9  C   LIG    1        1.137   3.527   0.072  0.00  0.00    -0.140 A 
ATOM     10  C   LIG    1       -0.021   4.134  -0.374  0.00  0.00    +0.080 A 
ATOM     11  C   LIG    1       -0.151   5.509  -0.309  0.00  0.00    +0.010 A 
ATOM     12  C   LIG    1        0.878   6.278   0.202  0.00  0.00    +0.060 A 
ATOM     13  C   LIG    1        2.037   5.673   0.650  0.00  0.00    -0.010 A 
ATOM     14  C   LIG    1        2.166   4.296   0.591  0.00  0.00    +0.110 A 
ATOM     15  F   LIG    1        3.296   3.703   1.033  0.00  0.00    -0.140 F 
ENDBRANCH   7   9
BRANCH   2  16
ATOM     16  C   LIG    1        3.020  -2.025  -1.811  0.00  0.00    +0.180 C 
ATOM     17  C   LIG    1        2.093  -2.397  -3.001  0.00  0.00    +0.190 C 
ATOM     18  S   LIG    1        2.662  -4.120  -3.318  0.00  0.00    -0.140 S 
ATOM     19  C   LIG    1        4.406  -3.798  -2.848  0.00  0.00    +0.350 C 
ATOM     20  N   LIG    1        4.365  -2.554  -2.057  0.00  0.00    -0.500 N 
ATOM     21  H   LIG    1        4.806  -2.729  -1.166  0.00  0.00    +0.440 HD
ATOM     22  H   LIG    1        4.900  -1.850  -2.543  0.00  0.00    +0.440 HD
ENDBRANCH   2  16
TORSDOF 2
