REMARK  Name = ZINCqH0000008w21.0
REMARK                            x       y       z     vdW  Elec       q    Type
REMARK                         _______ _______ _______ _____ _____    ______ ____
ROOT
ATOM      1  S   LIG    1       -2.428   1.544   1.230  0.00  0.00    +0.070 S 
ENDROOT
BRANCH   1   2
ATOM      2  C   LIG    1       -3.656   2.804   1.146  0.00  0.00    +0.150 A 
ATOM      3  N   LIG    1       -3.627   3.873   0.383  0.00  0.00    -0.290 NA
ATOM      4  N   LIG    1       -4.685   4.576   0.578  0.00  0.00    -0.280 NA
ATOM      5  C   LIG    1       -5.446   4.004   1.468  0.00  0.00    +0.200 A 
ATOM      6  N   LIG    1       -4.820   2.852   1.858  0.00  0.00    -0.570 N 
ATOM      7  H   LIG    1       -5.137   2.204   2.507  0.00  0.00    +0.430 HD
BRANCH   5   8
ATOM      8  C   LIG    1       -6.772   4.514   1.970  0.00  0.00    +0.150 C 
BRANCH   8   9
ATOM      9  C   LIG    1       -6.603   5.941   2.497  0.00  0.00    +0.040 C 
BRANCH   9  10
ATOM     10  C   LIG    1       -7.949   6.459   3.007  0.00  0.00    -0.020 C 
ATOM     11  C   LIG    1       -8.931   6.628   1.829  0.00  0.00    +0.010 C 
ATOM     12  C   LIG    1       -9.731   7.907   2.184  0.00  0.00    +0.010 C 
ATOM     13  C   LIG    1       -8.654   8.819   2.822  0.00  0.00    +0.000 C 
ATOM     14  C   LIG    1       -7.773   7.851   3.639  0.00  0.00    +0.010 C 
ENDBRANCH   9  10
ENDBRANCH   8   9
ENDBRANCH   5   8
ENDBRANCH   1   2
BRANCH   1  16
ATOM     15  C   LIG    1       -1.881   2.180  -1.370  0.00  0.00    +0.100 C 
ATOM     16  C   LIG    1       -1.241   2.180   0.020  0.00  0.00    +0.120 C 
BRANCH  16  17
ATOM     17  C   LIG    1       -0.016   1.303   0.009  0.00  0.00    +0.260 A 
ATOM     18  N   LIG    1        0.002  -0.004   0.002  0.00  0.00    -0.310 NA
ATOM     19  N   LIG    1        1.210  -0.441  -0.012  0.00  0.00    -0.030 NA
ATOM     20  N   LIG    1        2.040   0.546  -0.015  0.00  0.00    -0.070 NA
ATOM     21  N   LIG    1        1.268   1.722  -0.001  0.00  0.00    -0.320 N 
BRANCH  21  22
ATOM     22  C   LIG    1        1.733   3.045   0.002  0.00  0.00    +0.110 A 
ATOM     23  C   LIG    1        1.031   4.030  -0.681  0.00  0.00    +0.020 A 
ATOM     24  C   LIG    1        1.488   5.333  -0.672  0.00  0.00    +0.050 A 
ATOM     25  C   LIG    1        2.649   5.656   0.006  0.00  0.00    +0.040 A 
ATOM     26  C   LIG    1        3.353   4.676   0.682  0.00  0.00    +0.040 A 
ATOM     27  C   LIG    1        2.898   3.372   0.681  0.00  0.00    +0.050 A 
ENDBRANCH  21  22
ENDBRANCH  16  17
ENDBRANCH   1  16
TORSDOF 7
