REMARK  Name = ZINCqH0000008w21.2
REMARK                            x       y       z     vdW  Elec       q    Type
REMARK                         _______ _______ _______ _____ _____    ______ ____
ROOT
ATOM      1  S   LIG    1       -1.405   4.572   3.004  0.00  0.00    +0.080 S 
ENDROOT
BRANCH   1   2
ATOM      2  C   LIG    1       -0.062   5.355   3.834  0.00  0.00    +0.250 A 
ATOM      3  N   LIG    1        1.169   5.467   3.381  0.00  0.00    -0.530 NA
ATOM      4  C   LIG    1        1.916   6.121   4.271  0.00  0.00    +0.240 A 
ATOM      5  N   LIG    1        1.181   6.427   5.306  0.00  0.00    -0.300 NA
ATOM      6  N   LIG    1       -0.112   5.941   5.050  0.00  0.00    -0.460 N 
ATOM      7  H   LIG    1       -0.885   6.012   5.630  0.00  0.00    +0.450 HD
BRANCH   4   8
ATOM      8  C   LIG    1        3.378   6.449   4.111  0.00  0.00    +0.150 C 
BRANCH   8   9
ATOM      9  C   LIG    1        4.223   5.305   4.677  0.00  0.00    +0.040 C 
BRANCH   9  10
ATOM     10  C   LIG    1        5.707   5.638   4.514  0.00  0.00    -0.020 C 
ATOM     11  C   LIG    1        6.085   5.652   3.018  0.00  0.00    +0.020 C 
ATOM     12  C   LIG    1        7.510   5.046   2.981  0.00  0.00    +0.000 C 
ATOM     13  C   LIG    1        7.438   3.935   4.058  0.00  0.00    -0.010 C 
ATOM     14  C   LIG    1        6.567   4.547   5.175  0.00  0.00    +0.000 C 
ENDBRANCH   9  10
ENDBRANCH   8   9
ENDBRANCH   4   8
ENDBRANCH   1   2
BRANCH   1  16
ATOM     15  C   LIG    1       -0.135   5.286   0.693  0.00  0.00    +0.100 C 
ATOM     16  C   LIG    1       -0.575   4.051   1.483  0.00  0.00    +0.130 C 
BRANCH  16  17
ATOM     17  C   LIG    1       -1.524   3.232   0.647  0.00  0.00    +0.260 A 
ATOM     18  N   LIG    1       -2.775   3.515   0.392  0.00  0.00    -0.310 NA
ATOM     19  N   LIG    1       -3.303   2.608  -0.347  0.00  0.00    -0.030 NA
ATOM     20  N   LIG    1       -2.436   1.693  -0.618  0.00  0.00    -0.060 NA
ATOM     21  N   LIG    1       -1.240   2.070   0.019  0.00  0.00    -0.320 N 
BRANCH  21  22
ATOM     22  C   LIG    1       -0.017   1.384   0.010  0.00  0.00    +0.110 A 
ATOM     23  C   LIG    1        1.177   2.092   0.002  0.00  0.00    +0.020 A 
ATOM     24  C   LIG    1        2.381   1.413  -0.012  0.00  0.00    +0.050 A 
ATOM     25  C   LIG    1        2.396   0.031  -0.020  0.00  0.00    +0.040 A 
ATOM     26  C   LIG    1        1.208  -0.677  -0.013  0.00  0.00    +0.040 A 
ATOM     27  C   LIG    1        0.002  -0.004   0.002  0.00  0.00    +0.050 A 
ENDBRANCH  21  22
ENDBRANCH  16  17
ENDBRANCH   1  16
TORSDOF 7
