REMARK  Name = ZINCqH0000008w21.1
REMARK                            x       y       z     vdW  Elec       q    Type
REMARK                         _______ _______ _______ _____ _____    ______ ____
ROOT
ATOM      1  S   LIG    1       -6.864   5.660   4.583  0.00  0.00    +0.100 S 
ENDROOT
BRANCH   1   2
ATOM      2  C   LIG    1       -5.354   4.752   4.559  0.00  0.00    +0.200 A 
ATOM      3  N   LIG    1       -4.905   3.990   5.528  0.00  0.00    -0.320 NA
ATOM      4  N   LIG    1       -3.678   3.463   5.094  0.00  0.00    -0.470 N 
ATOM      5  H   LIG    1       -3.098   2.861   5.586  0.00  0.00    +0.440 HD
ATOM      6  C   LIG    1       -3.466   3.956   3.862  0.00  0.00    +0.300 A 
ATOM      7  N   LIG    1       -4.473   4.732   3.553  0.00  0.00    -0.510 NA
BRANCH   6   8
ATOM      8  C   LIG    1       -2.271   3.670   2.990  0.00  0.00    +0.150 C 
BRANCH   8   9
ATOM      9  C   LIG    1       -2.744   3.135   1.636  0.00  0.00    +0.050 C 
BRANCH   9  10
ATOM     10  C   LIG    1       -1.531   2.845   0.750  0.00  0.00    -0.010 C 
ATOM     11  C   LIG    1       -0.763   1.597   1.255  0.00  0.00    +0.010 C 
ATOM     12  C   LIG    1       -0.013   1.086   0.008  0.00  0.00    -0.010 C 
ATOM     13  C   LIG    1       -0.784   1.609  -1.216  0.00  0.00    -0.010 C 
ATOM     14  C   LIG    1       -1.978   2.421  -0.670  0.00  0.00    +0.020 C 
ENDBRANCH   9  10
ENDBRANCH   8   9
ENDBRANCH   6   8
ENDBRANCH   1   2
BRANCH   1  16
ATOM     15  C   LIG    1       -7.892   3.767   6.269  0.00  0.00    +0.100 C 
ATOM     16  C   LIG    1       -7.556   5.258   6.211  0.00  0.00    +0.100 C 
BRANCH  16  17
ATOM     17  C   LIG    1       -8.808   6.065   6.438  0.00  0.00    +0.260 A 
ATOM     18  N   LIG    1       -9.773   6.256   5.577  0.00  0.00    -0.300 NA
ATOM     19  N   LIG    1      -10.696   6.989   6.086  0.00  0.00    -0.030 NA
ATOM     20  N   LIG    1      -10.385   7.322   7.293  0.00  0.00    -0.070 NA
ATOM     21  N   LIG    1       -9.140   6.729   7.566  0.00  0.00    -0.320 N 
BRANCH  21  22
ATOM     22  C   LIG    1       -8.400   6.810   8.755  0.00  0.00    +0.120 A 
ATOM     23  C   LIG    1       -7.657   5.721   9.188  0.00  0.00    +0.020 A 
ATOM     24  C   LIG    1       -6.925   5.806  10.356  0.00  0.00    +0.040 A 
ATOM     25  C   LIG    1       -6.942   6.971  11.101  0.00  0.00    +0.040 A 
ATOM     26  C   LIG    1       -7.686   8.056  10.675  0.00  0.00    +0.040 A 
ATOM     27  C   LIG    1       -8.415   7.979   9.505  0.00  0.00    +0.050 A 
ENDBRANCH  21  22
ENDBRANCH  16  17
ENDBRANCH   1  16
TORSDOF 7
