REMARK  Name = ZINCvU0000000D4z.0
REMARK                            x       y       z     vdW  Elec       q    Type
REMARK                         _______ _______ _______ _____ _____    ______ ____
ROOT
ATOM      1  O   LIG    1        1.944  -3.986   1.592  0.00  0.00    -0.490 OA
ATOM      2  C   LIG    1        2.691  -3.128   2.011  0.00  0.00    +0.500 C 
ATOM      3  N   LIG    1        4.020  -3.349   2.045  0.00  0.00    -0.620 N 
ATOM      4  H   LIG    1        4.618  -2.663   2.380  0.00  0.00    +0.430 HD
ENDROOT
BRANCH   3   5
ATOM      5  C   LIG    1        4.534  -4.560   1.600  0.00  0.00    +0.270 A 
ATOM      6  N   LIG    1        5.791  -4.876   1.588  0.00  0.00    -0.490 NA
ATOM      7  C   LIG    1        6.111  -6.076   1.130  0.00  0.00    +0.170 A 
ATOM      8  C   LIG    1        5.042  -6.838   0.720  0.00  0.00    -0.190 A 
ATOM      9  S   LIG    1        3.575  -5.896   0.975  0.00  0.00    +0.250 S 
BRANCH   8  10
ATOM     10  C   LIG    1        5.111  -8.199   0.173  0.00  0.00    -0.120 A 
ATOM     11  C   LIG    1        4.436  -8.643  -0.925  0.00  0.00    +0.020 A 
ATOM     12  C   LIG    1        4.670  -9.965  -1.241  0.00  0.00    +0.010 A 
ATOM     13  C   LIG    1        5.510 -10.605  -0.423  0.00  0.00    -0.050 A 
ATOM     14  S   LIG    1        6.072  -9.514   0.836  0.00  0.00    +0.150 S 
ENDBRANCH   8  10
BRANCH   7  15
ATOM     15  C   LIG    1        7.504  -6.558   1.064  0.00  0.00    -0.130 A 
ATOM     16  C   LIG    1        8.037  -7.262   0.044  0.00  0.00    +0.040 A 
ATOM     17  C   LIG    1        9.365  -7.601   0.211  0.00  0.00    +0.010 A 
ATOM     18  C   LIG    1        9.917  -7.180   1.352  0.00  0.00    -0.040 A 
ATOM     19  S   LIG    1        8.728  -6.296   2.299  0.00  0.00    +0.150 S 
ENDBRANCH   7  15
ENDBRANCH   3   5
BRANCH   2  20
ATOM     20  C   LIG    1        2.133  -1.814   2.494  0.00  0.00    +0.360 C 
BRANCH  20  21
ATOM     21  N   LIG    1        0.675  -1.822   2.355  0.00  0.00    -0.540 N 
ATOM     22  C   LIG    1       -0.105  -2.264   3.366  0.00  0.00    +0.540 C 
ATOM     23  C   LIG    1       -1.598  -2.341   3.178  0.00  0.00    +0.040 C 
ATOM     24  C   LIG    1       -2.205  -0.940   3.222  0.00  0.00    +0.260 C 
ATOM     25  O   LIG    1       -1.417  -0.032   2.457  0.00  0.00    -0.330 OA
ATOM     26  C   LIG    1       -0.979  -0.460   1.244  0.00  0.00    +0.090 A 
ATOM     27  C   LIG    1       -1.575  -0.004   0.081  0.00  0.00    +0.030 A 
ATOM     28  C   LIG    1       -1.127  -0.455  -1.147  0.00  0.00    +0.020 A 
ATOM     29  C   LIG    1       -0.085  -1.362  -1.218  0.00  0.00    +0.030 A 
ATOM     30  C   LIG    1        0.517  -1.821  -0.061  0.00  0.00    +0.020 A 
ATOM     31  O   LIG    1        0.394  -2.597   4.420  0.00  0.00    -0.520 OA
ATOM     32  C   LIG    1        0.074  -1.371   1.172  0.00  0.00    +0.110 A 
ENDBRANCH  20  21
ENDBRANCH   2  20
TORSDOF 5
