REMARK  Name = ZINCvU0000000C2y.0
REMARK                            x       y       z     vdW  Elec       q    Type
REMARK                         _______ _______ _______ _____ _____    ______ ____
ROOT
ATOM      1  C   LIG    1        2.139   7.589   0.737  0.00  0.00    +0.470 C 
ATOM      2  O   LIG    1        2.514   7.542   1.885  0.00  0.00    -0.500 OA
ENDROOT
BRANCH   1   3
ATOM      3  O   LIG    1        1.817   8.769   0.184  0.00  0.00    -0.330 OA
BRANCH   3   4
ATOM      4  C   LIG    1        1.943   9.947   1.023  0.00  0.00    +0.270 C 
BRANCH   4   6
ATOM      5  O   LIG    1        1.184  11.058  -0.916  0.00  0.00    -0.490 OA
ATOM      6  C   LIG    1        1.542  11.169   0.238  0.00  0.00    +0.520 C 
ATOM      7  N   LIG    1        1.580  12.385   0.817  0.00  0.00    -0.670 N 
ATOM      8  H   LIG    1        1.802  12.467   1.758  0.00  0.00    +0.420 HD
BRANCH   7   9
ATOM      9  C   LIG    1        1.301  13.530   0.061  0.00  0.00    +0.160 A 
ATOM     10  C   LIG    1        0.347  13.481  -0.947  0.00  0.00    +0.060 A 
ATOM     11  C   LIG    1        0.072  14.612  -1.692  0.00  0.00    +0.050 A 
ATOM     12  C   LIG    1        0.746  15.793  -1.436  0.00  0.00    +0.060 A 
ATOM     13  C   LIG    1        1.700  15.844  -0.430  0.00  0.00    +0.090 A 
ATOM     14  F   LIG    1        2.357  16.998  -0.181  0.00  0.00    -0.120 F 
ATOM     15  F   LIG    1        0.475  16.896  -2.167  0.00  0.00    -0.130 F 
ATOM     16  C   LIG    1        1.973  14.716   0.322  0.00  0.00    +0.000 A 
ENDBRANCH   7   9
ENDBRANCH   4   6
ENDBRANCH   3   4
ENDBRANCH   1   3
BRANCH   1  17
ATOM     17  C   LIG    1        2.032   6.323  -0.073  0.00  0.00    +0.100 C 
BRANCH  17  18
ATOM     18  C   LIG    1        2.454   5.130   0.787  0.00  0.00    +0.340 C 
BRANCH  18  19
ATOM     19  N   LIG    1        2.350   3.899  -0.001  0.00  0.00    -0.580 N 
ATOM     20  C   LIG    1        1.148   3.183   0.003  0.00  0.00    +0.190 A 
ATOM     21  C   LIG    1       -0.064   3.855   0.011  0.00  0.00    -0.020 A 
ATOM     22  C   LIG    1       -1.251   3.142   0.010  0.00  0.00    +0.050 A 
ATOM     23  C   LIG    1       -1.236   1.760  -0.004  0.00  0.00    +0.000 A 
ATOM     24  C   LIG    1       -0.029   1.079  -0.005  0.00  0.00    +0.080 A 
ATOM     25  C   LIG    1        1.159   1.787  -0.004  0.00  0.00    -0.150 A 
ATOM     26  S   LIG    1        2.708   0.941  -0.009  0.00  0.00    +0.010 S 
ATOM     27  C   LIG    1        3.747   2.102  -0.839  0.00  0.00    -0.150 A 
ATOM     28  C   LIG    1        4.835   1.671  -1.575  0.00  0.00    +0.080 A 
ATOM     29  C   LIG    1        5.640   2.598  -2.217  0.00  0.00    +0.000 A 
ATOM     30  C   LIG    1        5.357   3.946  -2.121  0.00  0.00    +0.050 A 
ATOM     31  C   LIG    1        4.269   4.383  -1.386  0.00  0.00    -0.020 A 
ATOM     32  C   LIG    1        3.456   3.465  -0.740  0.00  0.00    +0.190 A 
ENDBRANCH  18  19
ENDBRANCH  17  18
ENDBRANCH   1  17
TORSDOF 7
