REMARK  Name = ZINCqH0000006NEO.0
REMARK                            x       y       z     vdW  Elec       q    Type
REMARK                         _______ _______ _______ _____ _____    ______ ____
ROOT
ATOM      1  C   LIG    1        5.017   5.378   3.040  0.00  0.00    +0.280 C 
ENDROOT
BRANCH   1   4
ATOM      2  C   LIG    1        5.045   9.149   3.246  0.00  0.00    +0.110 A 
ATOM      3  C   LIG    1        4.597   7.841   3.171  0.00  0.00    -0.010 A 
ATOM      4  C   LIG    1        5.506   6.800   3.121  0.00  0.00    -0.080 A 
ATOM      5  C   LIG    1        6.863   7.062   3.151  0.00  0.00    +0.050 A 
ATOM      6  C   LIG    1        7.317   8.367   3.221  0.00  0.00    -0.010 A 
ATOM      7  C   LIG    1        6.412   9.414   3.271  0.00  0.00    +0.090 A 
BRANCH   2   9
ATOM      8  C   LIG    1        2.766   9.828   3.265  0.00  0.00    +0.240 C 
ATOM      9  O   LIG    1        4.152  10.174   3.295  0.00  0.00    -0.300 OA
ENDBRANCH   2   9
BRANCH   7  10
ATOM     10  O   LIG    1        6.857  10.696   3.345  0.00  0.00    -0.310 OA
BRANCH  10  11
ATOM     11  C   LIG    1        8.272  10.892   3.367  0.00  0.00    +0.600 C 
ATOM     12  F   LIG    1        8.833  10.366   2.198  0.00  0.00    -0.200 F 
ATOM     13  F   LIG    1        8.816  10.241   4.479  0.00  0.00    -0.200 F 
ENDBRANCH  10  11
ENDBRANCH   7  10
ENDBRANCH   1   4
BRANCH   1  14
ATOM     14  O   LIG    1        4.870   4.995   1.647  0.00  0.00    -0.350 OA
BRANCH  14  15
ATOM     15  C   LIG    1        4.439   3.748   1.399  0.00  0.00    +0.470 C 
ATOM     16  O   LIG    1        4.193   3.001   2.317  0.00  0.00    -0.490 OA
BRANCH  15  17
ATOM     17  C   LIG    1        4.262   3.280  -0.022  0.00  0.00    +0.240 C 
BRANCH  17  18
ATOM     18  C   LIG    1        3.772   1.855  -0.024  0.00  0.00    +0.140 A 
ATOM     19  N   LIG    1        4.512   0.789  -0.037  0.00  0.00    -0.270 NA
ATOM     20  O   LIG    1        3.691  -0.362  -0.035  0.00  0.00    -0.080 OA
ATOM     21  C   LIG    1        2.396   0.013  -0.021  0.00  0.00    +0.090 A 
ATOM     22  C   LIG    1        1.198  -0.690  -0.013  0.00  0.00    +0.020 A 
ATOM     23  C   LIG    1        0.002  -0.004   0.002  0.00  0.00    +0.080 A 
ATOM     24  C   LIG    1       -0.017   1.383   0.010  0.00  0.00    -0.010 A 
ATOM     25  C   LIG    1        1.151   2.093   0.002  0.00  0.00    +0.090 A 
ATOM     26  C   LIG    1        2.373   1.418  -0.013  0.00  0.00    -0.190 A 
ENDBRANCH  17  18
ENDBRANCH  15  17
ENDBRANCH  14  15
ENDBRANCH   1  14
TORSDOF 8
