REMARK  Name = ZINCpe000000SEaI.0
REMARK                            x       y       z     vdW  Elec       q    Type
REMARK                         _______ _______ _______ _____ _____    ______ ____
ROOT
ATOM      1  N   LIG    1       -0.109   1.357   0.010  0.00  0.00    -0.670 N 
ATOM      2  H   LIG    1        0.755   1.798  -0.010  0.00  0.00    +0.410 HD
ATOM      3  C   LIG    1       -0.178   0.012   0.057  0.00  0.00    +0.510 C 
ATOM      4  O   LIG    1       -1.252  -0.536   0.185  0.00  0.00    -0.490 OA
ENDROOT
BRANCH   1   9
ATOM      5  C   LIG    1       -3.616   2.328  -0.545  0.00  0.00    +0.160 A 
ATOM      6  C   LIG    1       -3.605   3.630  -0.064  0.00  0.00    +0.000 A 
ATOM      7  C   LIG    1       -2.437   4.172   0.439  0.00  0.00    +0.050 A 
ATOM      8  C   LIG    1       -1.278   3.421   0.465  0.00  0.00    -0.030 A 
ATOM      9  C   LIG    1       -1.283   2.117  -0.016  0.00  0.00    +0.170 A 
ATOM     10  C   LIG    1       -2.452   1.572  -0.526  0.00  0.00    +0.000 A 
BRANCH   5  13
ATOM     11  C   LIG    1       -6.888   1.949  -2.368  0.00  0.00    +0.110 C 
ATOM     12  C   LIG    1       -5.667   2.559  -1.730  0.00  0.00    +0.510 C 
ATOM     13  N   LIG    1       -4.799   1.780  -1.054  0.00  0.00    -0.670 N 
ATOM     14  H   LIG    1       -4.994   0.839  -0.921  0.00  0.00    +0.410 HD
ATOM     15  O   LIG    1       -5.465   3.751  -1.823  0.00  0.00    -0.530 OA
ENDBRANCH   5  13
ENDBRANCH   1   9
BRANCH   3  16
ATOM     16  C   LIG    1        1.080  -0.812  -0.050  0.00  0.00    +0.220 C 
BRANCH  16  17
ATOM     17  N   LIG    1        0.739  -2.239   0.027  0.00  0.00    -0.510 NA
ATOM     18  C   LIG    1        0.208  -2.582   1.354  0.00  0.00    +0.210 C 
BRANCH  17  19
ATOM     19  C   LIG    1        1.898  -3.076  -0.308  0.00  0.00    +0.220 C 
BRANCH  19  20
ATOM     20  C   LIG    1        1.457  -4.508  -0.459  0.00  0.00    +0.520 C 
ATOM     21  N   LIG    1        2.357  -5.462  -0.768  0.00  0.00    -0.620 N 
ATOM     22  C   LIG    1        3.766  -5.106  -0.958  0.00  0.00    +0.280 C 
ATOM     23  O   LIG    1        0.291  -4.803  -0.302  0.00  0.00    -0.510 OA
BRANCH  21  24
ATOM     24  C   LIG    1        1.928  -6.855  -0.914  0.00  0.00    +0.300 C 
BRANCH  24  25
ATOM     25  C   LIG    1        1.533  -7.117  -2.369  0.00  0.00    +0.180 C 
BRANCH  25  26
ATOM     26  C   LIG    1        1.101  -8.517  -2.516  0.00  0.00    +0.210 C 
ATOM     27  N   LIG    1        0.768  -9.597  -2.629  0.00  0.00    -0.430 NA
ENDBRANCH  25  26
ENDBRANCH  24  25
ENDBRANCH  21  24
ENDBRANCH  19  20
ENDBRANCH  17  19
ENDBRANCH  16  17
ENDBRANCH   3  16
TORSDOF 9
