REMARK  Name = ZINCpk00000eb0vw.0
REMARK                            x       y       z     vdW  Elec       q    Type
REMARK                         _______ _______ _______ _____ _____    ______ ____
ROOT
ATOM      1  C   LIG    1       -5.418   6.159   3.242  0.00  0.00    +0.630 A 
ATOM      2  N   LIG    1       -4.343   5.377   3.171  0.00  0.00    -0.610 NA
ATOM      3  C   LIG    1       -3.352   5.685   2.353  0.00  0.00    +0.430 A 
ATOM      4  N   LIG    1       -3.421   6.773   1.607  0.00  0.00    -0.610 NA
ATOM      5  C   LIG    1       -4.495   7.558   1.668  0.00  0.00    +0.630 A 
ATOM      6  N   LIG    1       -5.493   7.251   2.489  0.00  0.00    -0.630 NA
ENDROOT
BRANCH   5   7
ATOM      7  N   LIG    1       -4.568   8.691   0.884  0.00  0.00    -0.800 N 
ATOM      8  H   LIG    1       -3.839   8.914   0.285  0.00  0.00    +0.420 HD
ATOM      9  H   LIG    1       -5.349   9.264   0.932  0.00  0.00    +0.420 HD
ENDBRANCH   5   7
BRANCH   1  10
ATOM     10  N   LIG    1       -6.454   5.836   4.097  0.00  0.00    -0.620 N 
ATOM     11  H   LIG    1       -6.435   4.998   4.587  0.00  0.00    +0.430 HD
BRANCH  10  16
ATOM     12  C   LIG    1      -10.815   9.405   4.746  0.00  0.00    +0.100 C 
ATOM     13  C   LIG    1       -9.656   8.456   4.574  0.00  0.00    -0.100 A 
ATOM     14  C   LIG    1       -9.864   7.091   4.652  0.00  0.00    +0.030 A 
ATOM     15  C   LIG    1       -8.804   6.220   4.495  0.00  0.00    -0.010 A 
ATOM     16  C   LIG    1       -7.529   6.715   4.257  0.00  0.00    +0.150 A 
ATOM     17  C   LIG    1       -7.322   8.087   4.184  0.00  0.00    +0.020 A 
ATOM     18  C   LIG    1       -8.387   8.953   4.337  0.00  0.00    +0.020 A 
ENDBRANCH  10  16
ENDBRANCH   1  10
BRANCH   3  19
ATOM     19  C   LIG    1       -2.137   4.796   2.277  0.00  0.00    +0.360 C 
BRANCH  19  20
ATOM     20  O   LIG    1       -2.342   3.783   1.257  0.00  0.00    -0.350 OA
BRANCH  20  21
ATOM     21  C   LIG    1       -1.346   2.905   1.062  0.00  0.00    +0.450 C 
ATOM     22  O   LIG    1       -0.336   2.981   1.721  0.00  0.00    -0.470 OA
BRANCH  21  23
ATOM     23  C   LIG    1       -1.486   1.825   0.020  0.00  0.00    +0.420 C 
BRANCH  23  24
ATOM     24  N   LIG    1       -0.274   1.004   0.002  0.00  0.00    -0.380 N 
ATOM     25  C   LIG    1       -0.221  -0.337   0.147  0.00  0.00    +0.240 A 
ATOM     26  C   LIG    1        1.077  -0.710   0.065  0.00  0.00    -0.110 A 
ATOM     27  C   LIG    1        1.844   0.443  -0.139  0.00  0.00    +0.240 A 
ATOM     28  N   LIG    1        1.035   1.470  -0.177  0.00  0.00    -0.270 NA
ENDBRANCH  23  24
ENDBRANCH  21  23
ENDBRANCH  20  21
ENDBRANCH  19  20
ENDBRANCH   3  19
TORSDOF 8
