REMARK  Name = ZINCtV000002IKwm.0
REMARK                            x       y       z     vdW  Elec       q    Type
REMARK                         _______ _______ _______ _____ _____    ______ ____
ROOT
ATOM      1  N   LIG    1       -0.017   1.397   0.010  0.00  0.00    -0.480 N 
ATOM      2  C   LIG    1       -1.201   2.052   0.019  0.00  0.00    +0.560 A 
ATOM      3  C   LIG    1       -1.165   3.521   0.032  0.00  0.00    -0.200 A 
ATOM      4  C   LIG    1       -2.332   4.284   0.048  0.00  0.00    +0.100 A 
ATOM      5  C   LIG    1       -2.244   5.658   0.055  0.00  0.00    +0.000 A 
ATOM      6  C   LIG    1       -1.006   6.288   0.046  0.00  0.00    +0.070 A 
ATOM      7  C   LIG    1        0.158   5.554   0.031  0.00  0.00    +0.030 A 
ATOM      8  C   LIG    1        0.097   4.158   0.024  0.00  0.00    +0.170 A 
ATOM      9  N   LIG    1        1.218   3.400   0.009  0.00  0.00    -0.530 NA
ATOM     10  O   LIG    1       -2.257   1.446   0.021  0.00  0.00    -0.490 OA
ATOM     11  C   LIG    1        1.161   2.091   0.002  0.00  0.00    +0.370 A 
ENDROOT
BRANCH   1  17
ATOM     12  C   LIG    1        0.016  -2.823  -2.515  0.00  0.00    +0.100 C 
ATOM     13  C   LIG    1        0.019  -2.074  -1.208  0.00  0.00    -0.080 A 
ATOM     14  C   LIG    1        0.040  -2.771  -0.013  0.00  0.00    +0.040 A 
ATOM     15  C   LIG    1        0.042  -2.087   1.189  0.00  0.00    +0.020 A 
ATOM     16  C   LIG    1        0.029  -0.706   1.200  0.00  0.00    +0.040 A 
ATOM     17  C   LIG    1        0.002  -0.004   0.002  0.00  0.00    +0.090 A 
ATOM     18  C   LIG    1        0.000  -0.693  -1.203  0.00  0.00    -0.050 A 
ATOM     19  C   LIG    1       -0.022   0.065  -2.506  0.00  0.00    +0.100 C 
ENDBRANCH   1  17
BRANCH  11  20
ATOM     20  S   LIG    1        2.672   1.184  -0.017  0.00  0.00    +0.030 S 
BRANCH  20  21
ATOM     21  C   LIG    1        3.859   2.550  -0.021  0.00  0.00    +0.170 C 
BRANCH  21  22
ATOM     22  C   LIG    1        5.261   1.998  -0.037  0.00  0.00    -0.120 A 
ATOM     23  C   LIG    1        5.918   1.743   1.155  0.00  0.00    +0.130 A 
ATOM     24  C   LIG    1        7.204   1.229   1.139  0.00  0.00    +0.000 A 
ATOM     25  C   LIG    1        7.835   0.982  -0.066  0.00  0.00    +0.080 A 
ATOM     26  C   LIG    1        7.180   1.242  -1.256  0.00  0.00    +0.030 A 
ATOM     27  F   LIG    1        5.303   1.990   2.332  0.00  0.00    -0.120 F 
ATOM     28  C   LIG    1        5.893   1.750  -1.242  0.00  0.00    +0.010 A 
ATOM     29 CL   LIG    1        5.072   2.076  -2.736  0.00  0.00    -0.040 Cl
ENDBRANCH  21  22
ENDBRANCH  20  21
ENDBRANCH  11  20
TORSDOF 4
