REMARK  Name = ZINCnE000001Q0Mg.1
REMARK                            x       y       z     vdW  Elec       q    Type
REMARK                         _______ _______ _______ _____ _____    ______ ____
ROOT
ATOM      1  N   LIG    1       -4.818   1.709   0.055  0.00  0.00    -0.690 NA
ATOM      2  C   LIG    1       -5.159   0.405   0.052  0.00  0.00    +0.450 C 
ATOM      3  O   LIG    1       -4.297  -0.448   0.041  0.00  0.00    -0.540 OA
ENDROOT
BRANCH   1  10
ATOM      4  C   LIG    1        2.476   3.913  -0.002  0.00  0.00    +0.080 C 
ATOM      5  C   LIG    1        1.170   3.160   0.007  0.00  0.00    -0.130 A 
ATOM      6  C   LIG    1        1.169   1.774   0.000  0.00  0.00    +0.020 A 
ATOM      7  C   LIG    1       -0.013   1.076   0.008  0.00  0.00    +0.010 A 
ATOM      8  C   LIG    1       -1.246   1.760   0.018  0.00  0.00    +0.150 A 
ATOM      9  N   LIG    1       -2.494   1.250   0.032  0.00  0.00    -0.560 NA
ATOM     10  C   LIG    1       -3.482   2.075   0.045  0.00  0.00    +0.400 A 
ATOM     11  S   LIG    1       -2.897   3.733   0.047  0.00  0.00    -0.030 S 
ATOM     12  C   LIG    1       -1.231   3.158   0.029  0.00  0.00    -0.210 A 
ATOM     13  C   LIG    1       -0.022   3.850   0.022  0.00  0.00    +0.060 A 
ENDBRANCH   1  10
BRANCH   2  14
ATOM     14  C   LIG    1       -6.613   0.006   0.062  0.00  0.00    +0.360 C 
BRANCH  14  15
ATOM     15  N   LIG    1       -6.718  -1.455   0.057  0.00  0.00    -0.330 N 
ATOM     16  C   LIG    1       -7.388  -2.206   0.956  0.00  0.00    +0.240 A 
ATOM     17  C   LIG    1       -7.245  -3.503   0.598  0.00  0.00    -0.090 A 
ATOM     18  C   LIG    1       -6.453  -3.547  -0.554  0.00  0.00    -0.040 A 
ATOM     19  N   LIG    1       -6.137  -2.320  -0.880  0.00  0.00    -0.200 NA
BRANCH  18  20
ATOM     20  C   LIG    1       -6.036  -4.792  -1.293  0.00  0.00    +0.560 C 
ATOM     21  F   LIG    1       -7.167  -5.417  -1.830  0.00  0.00    -0.170 F 
ATOM     22  F   LIG    1       -5.396  -5.667  -0.409  0.00  0.00    -0.170 F 
ATOM     23  F   LIG    1       -5.158  -4.449  -2.327  0.00  0.00    -0.170 F 
ENDBRANCH  18  20
ENDBRANCH  14  15
ENDBRANCH   2  14
TORSDOF 4
