REMARK  Name = ZINCpk00000eaAG5.0
REMARK                            x       y       z     vdW  Elec       q    Type
REMARK                         _______ _______ _______ _____ _____    ______ ____
ROOT
ATOM      1  C   LIG    1        0.825  -4.320  -0.779  0.00  0.00    +0.050 C 
ATOM      2  C   LIG    1        1.264  -4.311   0.704  0.00  0.00    +0.100 C 
ATOM      3  C   LIG    1        1.261  -2.847   1.084  0.00  0.00    +0.530 C 
ATOM      4  N   LIG    1        1.234  -2.082  -0.021  0.00  0.00    -0.580 N 
ATOM      5  O   LIG    1        1.279  -2.424   2.221  0.00  0.00    -0.500 OA
ATOM      6  C   LIG    1        1.235  -2.903  -1.238  0.00  0.00    +0.320 C 
ENDROOT
BRANCH   4   7
ATOM      7  C   LIG    1        1.213  -0.681  -0.013  0.00  0.00    +0.090 A 
ATOM      8  C   LIG    1        0.002  -0.004   0.002  0.00  0.00    +0.100 A 
ATOM      9  C   LIG    1       -0.017   1.378   0.010  0.00  0.00    +0.000 A 
ATOM     10  C   LIG    1        1.172   2.088   0.002  0.00  0.00    +0.140 A 
ATOM     11  C   LIG    1        2.382   1.416  -0.013  0.00  0.00    -0.030 A 
ATOM     12  F   LIG    1        1.150   3.439   0.009  0.00  0.00    -0.120 F 
ATOM     13  C   LIG    1        2.406   0.033  -0.021  0.00  0.00    +0.140 A 
ATOM     14  F   LIG    1        3.587  -0.623  -0.035  0.00  0.00    -0.120 F 
ENDBRANCH   4   7
BRANCH   1  15
ATOM     15  C   LIG    1        1.569  -5.375  -1.556  0.00  0.00    +0.480 C 
ATOM     16  O   LIG    1        2.364  -5.051  -2.406  0.00  0.00    -0.490 OA
BRANCH  15  17
ATOM     17  O   LIG    1        1.350  -6.675  -1.302  0.00  0.00    -0.320 OA
BRANCH  17  18
ATOM     18  C   LIG    1        2.102  -7.636  -2.089  0.00  0.00    +0.200 C 
BRANCH  18  19
ATOM     19  C   LIG    1        1.327  -7.984  -3.333  0.00  0.00    +0.510 C 
ATOM     20  O   LIG    1        0.247  -7.472  -3.538  0.00  0.00    -0.520 OA
ATOM     21  N   LIG    1        1.834  -8.863  -4.220  0.00  0.00    -0.850 N 
ATOM     22  H   LIG    1        1.335  -9.087  -5.021  0.00  0.00    +0.410 HD
ATOM     23  H   LIG    1        2.698  -9.273  -4.056  0.00  0.00    +0.400 HD
ENDBRANCH  18  19
BRANCH  18  24
ATOM     24  C   LIG    1        2.334  -8.902  -1.262  0.00  0.00    +0.100 C 
BRANCH  24  25
ATOM     25  C   LIG    1        3.226  -8.573  -0.063  0.00  0.00    +0.090 C 
BRANCH  25  27
ATOM     26  C   LIG    1        4.560  -9.492   2.269  0.00  0.00    +0.140 C 
ATOM     27  S   LIG    1        3.500 -10.075   0.917  0.00  0.00    -0.250 S 
ENDBRANCH  25  27
ENDBRANCH  24  25
ENDBRANCH  18  24
ENDBRANCH  17  18
ENDBRANCH  15  17
ENDBRANCH   1  15
TORSDOF 8
