REMARK  Name = ZINCqH0000007BUm.0
REMARK                            x       y       z     vdW  Elec       q    Type
REMARK                         _______ _______ _______ _____ _____    ______ ____
ROOT
ATOM      1  C   LIG    1        3.891   7.653   3.167  0.00  0.00    +0.120 A 
ATOM      2  N   LIG    1        3.800   6.366   3.344  0.00  0.00    -0.450 NA
ATOM      3  C   LIG    1        4.853   5.645   3.036  0.00  0.00    +0.070 A 
ATOM      4  C   LIG    1        5.910   6.323   2.577  0.00  0.00    -0.030 A 
ATOM      5  S   LIG    1        5.491   8.034   2.535  0.00  0.00    +0.130 S 
ENDROOT
BRANCH   1  10
ATOM      6  C   LIG    1        2.040  10.909   3.488  0.00  0.00    +0.130 A 
ATOM      7  C   LIG    1        0.819  10.475   3.985  0.00  0.00    -0.060 A 
ATOM      8  C   LIG    1        0.599   9.129   4.215  0.00  0.00    +0.050 A 
ATOM      9  C   LIG    1        1.593   8.209   3.951  0.00  0.00    +0.030 A 
ATOM     10  C   LIG    1        2.824   8.636   3.450  0.00  0.00    +0.010 A 
ATOM     11  C   LIG    1        3.045   9.994   3.224  0.00  0.00    +0.000 A 
BRANCH   6  13
ATOM     12  C   LIG    1        1.171  13.121   3.564  0.00  0.00    +0.250 C 
ATOM     13  O   LIG    1        2.250  12.233   3.264  0.00  0.00    -0.320 OA
ENDBRANCH   6  13
ENDBRANCH   1  10
BRANCH   3  14
ATOM     14  C   LIG    1        4.871   4.146   3.196  0.00  0.00    +0.210 C 
BRANCH  14  15
ATOM     15  S   LIG    1        4.292   3.369   1.667  0.00  0.00    +0.050 S 
BRANCH  15  16
ATOM     16  C   LIG    1        4.413   1.671   2.122  0.00  0.00    +0.220 A 
ATOM     17  N   LIG    1        4.820   1.200   3.281  0.00  0.00    -0.330 NA
ATOM     18  N   LIG    1        4.792  -0.084   3.279  0.00  0.00    -0.030 NA
ATOM     19  N   LIG    1        4.368  -0.521   2.142  0.00  0.00    -0.070 NA
ATOM     20  N   LIG    1        4.101   0.606   1.347  0.00  0.00    -0.360 N 
BRANCH  20  21
ATOM     21  C   LIG    1        3.599   0.625  -0.030  0.00  0.00    +0.480 C 
BRANCH  21  22
ATOM     22  C   LIG    1        2.092   0.660  -0.014  0.00  0.00    -0.060 A 
ATOM     23  C   LIG    1        1.331   1.769  -0.001  0.00  0.00    +0.000 A 
ATOM     24  C   LIG    1       -0.016   1.341   0.009  0.00  0.00    -0.060 A 
ATOM     25  C   LIG    1        0.002  -0.004   0.002  0.00  0.00    +0.200 A 
ATOM     26  O   LIG    1        1.282  -0.411  -0.012  0.00  0.00    -0.170 OA
ENDBRANCH  21  22
ENDBRANCH  20  21
ENDBRANCH  15  16
ENDBRANCH  14  15
ENDBRANCH   3  14
TORSDOF 7
