REMARK  Name = ZINCpe000000ZvSp.0
REMARK                            x       y       z     vdW  Elec       q    Type
REMARK                         _______ _______ _______ _____ _____    ______ ____
ROOT
ATOM      1  O   LIG    1        3.752  -1.886   0.025  0.00  0.00    -0.520 OA
ATOM      2  C   LIG    1        3.709  -0.673  -0.036  0.00  0.00    +0.560 C 
ATOM      3  N   LIG    1        4.849   0.037  -0.145  0.00  0.00    -0.600 N 
ATOM      4  C   LIG    1        4.819   1.506  -0.145  0.00  0.00    +0.270 C 
ATOM      5  C   LIG    1        5.553   2.019  -1.383  0.00  0.00    +0.030 C 
ATOM      6  C   LIG    1        6.960   1.419  -1.424  0.00  0.00    +0.020 C 
ATOM      7  C   LIG    1        6.864  -0.105  -1.514  0.00  0.00    +0.260 C 
ATOM      8  C   LIG    1        6.145  -0.643  -0.273  0.00  0.00    +0.290 C 
ENDROOT
BRANCH   7   9
ATOM      9  N   LIG    1        8.211  -0.677  -1.585  0.00  0.00    -0.630 N 
ATOM     10  C   LIG    1        8.730  -1.499  -2.688  0.00  0.00    +0.250 C 
ATOM     11  C   LIG    1       10.173  -1.827  -2.256  0.00  0.00    +0.260 C 
ATOM     12  N   LIG    1       10.313  -1.155  -0.956  0.00  0.00    -0.740 N 
ATOM     13  H   LIG    1       11.110  -1.160  -0.404  0.00  0.00    +0.430 HD
ATOM     14  C   LIG    1        9.166  -0.529  -0.659  0.00  0.00    +0.700 C 
ATOM     15  O   LIG    1        9.007   0.113   0.362  0.00  0.00    -0.580 OA
ENDBRANCH   7   9
BRANCH   2  16
ATOM     16  C   LIG    1        2.402   0.025   0.008  0.00  0.00    -0.050 A 
ATOM     17  C   LIG    1        2.189   1.095   0.884  0.00  0.00    -0.010 A 
ATOM     18  C   LIG    1        0.958   1.719   0.895  0.00  0.00    +0.320 A 
ATOM     19  N   LIG    1       -0.012   1.321   0.095  0.00  0.00    -0.490 NA
ATOM     20  C   LIG    1        0.144   0.315  -0.749  0.00  0.00    +0.350 A 
ATOM     21  C   LIG    1        1.351  -0.367  -0.824  0.00  0.00    +0.010 A 
BRANCH  20  22
ATOM     22  N   LIG    1       -0.918  -0.066  -1.575  0.00  0.00    -0.410 N 
ATOM     23  C   LIG    1       -2.164   0.507  -1.618  0.00  0.00    +0.150 A 
ATOM     24  C   LIG    1       -2.869  -0.165  -2.547  0.00  0.00    +0.150 A 
ATOM     25  N   LIG    1       -2.082  -1.122  -3.061  0.00  0.00    -0.470 NA
ATOM     26  C   LIG    1       -0.909  -1.069  -2.492  0.00  0.00    +0.400 A 
ENDBRANCH  20  22
ENDBRANCH   2  16
TORSDOF 3
