REMARK  Name = ZINCkj000005juEJ.1
REMARK                            x       y       z     vdW  Elec       q    Type
REMARK                         _______ _______ _______ _____ _____    ______ ____
ROOT
ATOM      1  N   LIG    1       -0.081   1.168  -2.420  0.00  0.00    -0.370 N 
ATOM      2  C   LIG    1        1.257   1.770  -2.447  0.00  0.00    +0.260 C 
ATOM      3  C   LIG    1        2.050   1.314  -1.220  0.00  0.00    +0.070 C 
ATOM      4  C   LIG    1        1.315   1.755   0.049  0.00  0.00    +0.040 C 
ATOM      5  C   LIG    1       -0.104   1.182   0.030  0.00  0.00    -0.010 C 
ATOM      6  C   LIG    1       -0.818   1.643  -1.243  0.00  0.00    +0.270 C 
ATOM      7  H   LIG    1        0.004   0.163  -2.380  0.00  0.00    +0.430 HD
ENDROOT
BRANCH   1   8
ATOM      8  C   LIG    1       -0.811   1.547  -3.637  0.00  0.00    +0.270 C 
BRANCH   8  10
ATOM      9  C   LIG    1       -1.844  -0.726  -3.550  0.00  0.00    +0.130 C 
ATOM     10  C   LIG    1       -2.127   0.769  -3.705  0.00  0.00    +0.080 C 
BRANCH  10  11
ATOM     11  C   LIG    1       -2.800   1.023  -5.056  0.00  0.00    +0.440 C 
ATOM     12  F   LIG    1       -3.059   2.391  -5.198  0.00  0.00    -0.170 F 
ATOM     13  F   LIG    1       -4.003   0.312  -5.118  0.00  0.00    -0.150 F 
ATOM     14  F   LIG    1       -1.954   0.599  -6.085  0.00  0.00    -0.170 F 
ENDBRANCH  10  11
BRANCH  10  15
ATOM     15  O   LIG    1       -2.992   1.202  -2.653  0.00  0.00    -0.520 OA
ATOM     16  H   LIG    1       -3.214   2.143  -2.689  0.00  0.00    +0.400 HD
ENDBRANCH  10  15
ENDBRANCH   8  10
ENDBRANCH   1   8
BRANCH   5  17
ATOM     17  C   LIG    1       -0.873   1.679   1.256  0.00  0.00    +0.360 C 
BRANCH  17  18
ATOM     18  N   LIG    1       -0.256   1.141   2.471  0.00  0.00    -0.300 N 
ATOM     19  C   LIG    1        0.192   1.866   3.522  0.00  0.00    +0.140 A 
ATOM     20  C   LIG    1        0.679   0.974   4.415  0.00  0.00    +0.160 A 
ATOM     21  N   LIG    1        0.515  -0.237   3.872  0.00  0.00    -0.260 NA
ATOM     22  N   LIG    1       -0.041  -0.104   2.720  0.00  0.00    -0.090 NA
ENDBRANCH  17  18
ENDBRANCH   5  17
TORSDOF 6
