REMARK  Name = ZINCkj000005juEJ.0
REMARK                            x       y       z     vdW  Elec       q    Type
REMARK                         _______ _______ _______ _____ _____    ______ ____
ROOT
ATOM      1  N   LIG    1       -1.441   3.892   2.486  0.00  0.00    -0.380 N 
ATOM      2  C   LIG    1       -2.817   3.380   2.496  0.00  0.00    +0.260 C 
ATOM      3  C   LIG    1       -3.513   3.802   3.792  0.00  0.00    +0.050 C 
ATOM      4  C   LIG    1       -3.534   5.331   3.878  0.00  0.00    +0.040 C 
ATOM      5  C   LIG    1       -2.099   5.858   3.791  0.00  0.00    +0.010 C 
ATOM      6  C   LIG    1       -1.458   5.359   2.494  0.00  0.00    +0.290 C 
ATOM      7  H   LIG    1       -0.953   3.557   3.302  0.00  0.00    +0.420 HD
ENDROOT
BRANCH   1   8
ATOM      8  C   LIG    1       -0.754   3.418   1.277  0.00  0.00    +0.270 C 
BRANCH   8  10
ATOM      9  C   LIG    1        0.124   1.549   2.683  0.00  0.00    +0.130 C 
ATOM     10  C   LIG    1       -0.559   1.903   1.361  0.00  0.00    +0.080 C 
BRANCH  10  11
ATOM     11  C   LIG    1        0.313   1.435   0.195  0.00  0.00    +0.440 C 
ATOM     12  F   LIG    1       -0.312   1.758  -1.014  0.00  0.00    -0.170 F 
ATOM     13  F   LIG    1        1.558   2.069   0.260  0.00  0.00    -0.170 F 
ATOM     14  F   LIG    1        0.491   0.049   0.272  0.00  0.00    -0.150 F 
ENDBRANCH  10  11
BRANCH  10  15
ATOM     15  O   LIG    1       -1.831   1.255   1.295  0.00  0.00    -0.520 OA
ATOM     16  H   LIG    1       -2.322   1.435   0.481  0.00  0.00    +0.400 HD
ENDBRANCH  10  15
ENDBRANCH   8  10
ENDBRANCH   1   8
BRANCH   5  17
ATOM     17  C   LIG    1       -1.295   5.351   4.990  0.00  0.00    +0.320 C 
BRANCH  17  18
ATOM     18  N   LIG    1       -1.843   5.922   6.223  0.00  0.00    -0.300 N 
ATOM     19  C   LIG    1       -2.263   5.223   7.302  0.00  0.00    +0.140 A 
ATOM     20  C   LIG    1       -2.689   6.139   8.203  0.00  0.00    +0.160 A 
ATOM     21  N   LIG    1       -2.511   7.339   7.637  0.00  0.00    -0.250 NA
ATOM     22  N   LIG    1       -2.003   7.176   6.467  0.00  0.00    -0.080 NA
ENDBRANCH  17  18
ENDBRANCH   5  17
TORSDOF 6
