REMARK  Name = ZINCpe000000TeSr.0
REMARK                            x       y       z     vdW  Elec       q    Type
REMARK                         _______ _______ _______ _____ _____    ______ ____
ROOT
ATOM      1  C   LIG    1       -4.594   1.273   1.958  0.00  0.00    +0.560 C 
ATOM      2  N   LIG    1       -3.856   2.318   1.533  0.00  0.00    -0.730 N 
ATOM      3  H   LIG    1       -2.949   2.175   1.219  0.00  0.00    +0.400 HD
ATOM      4  O   LIG    1       -5.730   1.452   2.351  0.00  0.00    -0.530 OA
ENDROOT
BRANCH   1   9
ATOM      5  C   LIG    1       -4.242  -2.449   2.366  0.00  0.00    +0.140 A 
ATOM      6  C   LIG    1       -2.945  -2.646   1.910  0.00  0.00    +0.010 A 
ATOM      7  C   LIG    1       -2.189  -1.573   1.475  0.00  0.00    +0.040 A 
ATOM      8  C   LIG    1       -2.719  -0.299   1.490  0.00  0.00    +0.030 A 
ATOM      9  C   LIG    1       -4.022  -0.090   1.946  0.00  0.00    -0.120 A 
ATOM     10  C   LIG    1       -4.784  -1.172   2.386  0.00  0.00    +0.090 A 
BRANCH   5  12
ATOM     11  C   LIG    1       -6.338  -3.547   2.620  0.00  0.00    +0.510 C 
ATOM     12  N   LIG    1       -5.003  -3.538   2.806  0.00  0.00    -0.680 N 
ATOM     13  H   LIG    1       -4.569  -4.287   3.244  0.00  0.00    +0.410 HD
ATOM     14  O   LIG    1       -6.862  -2.688   1.943  0.00  0.00    -0.510 OA
BRANCH  11  16
ATOM     15  C   LIG    1       -8.649  -4.405   2.888  0.00  0.00    +0.050 C 
ATOM     16  C   LIG    1       -7.179  -4.625   3.254  0.00  0.00    +0.060 C 
ENDBRANCH  11  16
ENDBRANCH   5  12
ENDBRANCH   1   9
BRANCH   2  17
ATOM     17  C   LIG    1       -4.423   3.668   1.545  0.00  0.00    +0.270 C 
BRANCH  17  18
ATOM     18  C   LIG    1       -3.385   4.662   1.017  0.00  0.00    +0.130 C 
ATOM     19  C   LIG    1       -2.096   4.534   1.831  0.00  0.00    +0.060 C 
BRANCH  18  20
ATOM     20  O   LIG    1       -3.111   4.379  -0.357  0.00  0.00    -0.560 OA
ATOM     21  H   LIG    1       -3.867   4.023  -0.844  0.00  0.00    +0.380 HD
ENDBRANCH  18  20
BRANCH  18  22
ATOM     22  C   LIG    1       -3.930   6.085   1.145  0.00  0.00    +0.190 C 
BRANCH  22  23
ATOM     23  N   LIG    1       -5.289   6.141   0.590  0.00  0.00    -0.540 NA
ATOM     24  C   LIG    1       -5.255   6.222  -0.878  0.00  0.00    +0.150 C 
ATOM     25  C   LIG    1       -6.688   6.218  -1.417  0.00  0.00    +0.220 C 
ATOM     26  O   LIG    1       -7.415   7.302  -0.832  0.00  0.00    -0.380 OA
ATOM     27  C   LIG    1       -7.469   7.254   0.596  0.00  0.00    +0.220 C 
ATOM     28  C   LIG    1       -6.044   7.269   1.156  0.00  0.00    +0.150 C 
ENDBRANCH  22  23
ENDBRANCH  18  22
ENDBRANCH  17  18
ENDBRANCH   2  17
TORSDOF 8
