REMARK  Name = ZINCpk000000oan0.0
REMARK                            x       y       z     vdW  Elec       q    Type
REMARK                         _______ _______ _______ _____ _____    ______ ____
ROOT
ATOM      1  C   LIG    1        1.093  -2.574   0.526  0.00  0.00    +0.600 C 
ATOM      2  N   LIG    1        0.620  -1.314   0.459  0.00  0.00    -0.720 N 
ATOM      3  H   LIG    1        1.225  -0.577   0.280  0.00  0.00    +0.410 HD
ATOM      4  O   LIG    1        0.334  -3.497   0.751  0.00  0.00    -0.550 OA
ENDROOT
BRANCH   1   8
ATOM      5  N   LIG    1        4.462  -3.859   0.137  0.00  0.00    -0.350 N 
ATOM      6  N   LIG    1        4.670  -2.488  -0.052  0.00  0.00    -0.290 NA
ATOM      7  C   LIG    1        3.527  -1.869   0.054  0.00  0.00    +0.270 A 
ATOM      8  C   LIG    1        2.531  -2.833   0.328  0.00  0.00    -0.300 A 
ATOM      9  C   LIG    1        3.155  -4.064   0.368  0.00  0.00    +0.160 A 
ATOM     10  C   LIG    1        2.491  -5.392   0.623  0.00  0.00    +0.170 C 
BRANCH   5  11
ATOM     11  C   LIG    1        5.495  -4.896   0.090  0.00  0.00    +0.270 C 
BRANCH  11  13
ATOM     12  C   LIG    1        5.130  -5.286  -2.350  0.00  0.00    +0.020 C 
ATOM     13  C   LIG    1        6.159  -4.894  -1.288  0.00  0.00    +0.040 C 
ENDBRANCH  11  13
BRANCH  11  14
ATOM     14  C   LIG    1        6.549  -4.615   1.164  0.00  0.00    +0.020 C 
ATOM     15  C   LIG    1        7.552  -5.769   1.208  0.00  0.00    +0.030 C 
ENDBRANCH  11  14
ENDBRANCH   5  11
ENDBRANCH   1   8
BRANCH   2  16
ATOM     16  C   LIG    1       -0.809  -1.056   0.656  0.00  0.00    +0.310 C 
BRANCH  16  17
ATOM     17  C   LIG    1       -1.075   0.422   0.531  0.00  0.00    +0.510 C 
ATOM     18  N   LIG    1       -2.329   0.895   0.671  0.00  0.00    -0.610 N 
ATOM     19  C   LIG    1       -3.453  -0.015   0.939  0.00  0.00    +0.280 C 
ATOM     20  C   LIG    1       -4.225   0.519   2.156  0.00  0.00    +0.170 C 
ATOM     21  N   LIG    1       -4.602   1.918   1.915  0.00  0.00    -0.540 NA
ATOM     22  C   LIG    1       -3.416   2.774   1.779  0.00  0.00    +0.170 C 
ATOM     23  C   LIG    1       -2.611   2.333   0.553  0.00  0.00    +0.300 C 
ATOM     24  O   LIG    1       -0.161   1.185   0.300  0.00  0.00    -0.540 OA
BRANCH  21  25
ATOM     25  C   LIG    1       -5.490   2.414   2.975  0.00  0.00    +0.160 C 
ATOM     26  C   LIG    1       -6.577   1.374   3.259  0.00  0.00    +0.030 C 
ENDBRANCH  21  25
ENDBRANCH  16  17
ENDBRANCH   2  16
TORSDOF 7
