REMARK  Name = ZINCrH000004t4AM.0
REMARK                            x       y       z     vdW  Elec       q    Type
REMARK                         _______ _______ _______ _____ _____    ______ ____
ROOT
ATOM      1  C   LIG    1       -2.823   0.990   1.576  0.00  0.00    +0.320 C 
ATOM      2  C   LIG    1       -3.419   2.246   0.893  0.00  0.00    +0.020 C 
ATOM      3  C   LIG    1       -3.744   1.958  -0.512  0.00  0.00    +0.000 C 
ATOM      4  C   LIG    1       -2.538   1.597  -1.374  0.00  0.00    +0.020 C 
ATOM      5  C   LIG    1       -2.249   0.122  -1.236  0.00  0.00    +0.010 C 
ATOM      6  C   LIG    1       -1.233  -0.114  -0.105  0.00  0.00    +0.250 C 
ATOM      7  N   LIG    1       -1.495   0.746   1.065  0.00  0.00    -0.600 N 
ATOM      8  C   LIG    1       -0.450   1.329   1.685  0.00  0.00    +0.510 C 
ATOM      9  O   LIG    1       -0.632   2.002   2.679  0.00  0.00    -0.490 OA
ENDROOT
BRANCH   8  10
ATOM     10  C   LIG    1        0.945   1.147   1.145  0.00  0.00    +0.060 C 
ATOM     11  C   LIG    1        1.059   1.837  -0.214  0.00  0.00    +0.090 C 
ATOM     12  C   LIG    1        1.050   3.331  -0.032  0.00  0.00    +0.520 C 
ATOM     13  N   LIG    1        1.634   3.897   1.040  0.00  0.00    -0.660 N 
ATOM     14  H   LIG    1        1.631   4.863   1.136  0.00  0.00    +0.410 HD
ATOM     15  C   LIG    1        2.246   3.104   2.015  0.00  0.00    +0.210 A 
ATOM     16  C   LIG    1        3.161   3.664   2.896  0.00  0.00    -0.050 A 
ATOM     17  C   LIG    1        3.761   2.873   3.860  0.00  0.00    +0.140 A 
ATOM     18  C   LIG    1        3.450   1.526   3.944  0.00  0.00    -0.030 A 
ATOM     19  C   LIG    1        2.540   0.968   3.066  0.00  0.00    +0.100 A 
ATOM     20  F   LIG    1        4.651   3.416   4.720  0.00  0.00    -0.130 F 
ATOM     21  O   LIG    1        0.511   4.033  -0.862  0.00  0.00    -0.520 OA
ATOM     22  C   LIG    1        1.938   1.752   2.103  0.00  0.00    -0.110 A 
ENDBRANCH   8  10
BRANCH   1  28
ATOM     23  C   LIG    1       -3.024   3.715   3.043  0.00  0.00    +0.300 C 
ATOM     24  N   LIG    1       -2.846   2.417   3.698  0.00  0.00    -0.420 N 
ATOM     25  C   LIG    1       -2.746   2.213   5.043  0.00  0.00    +0.140 A 
ATOM     26  C   LIG    1       -2.585   0.891   5.258  0.00  0.00    -0.070 A 
ATOM     27  C   LIG    1       -2.592   0.255   4.000  0.00  0.00    -0.080 A 
ATOM     28  C   LIG    1       -2.756   1.212   3.065  0.00  0.00    +0.040 A 
ENDBRANCH   1  28
TORSDOF 2
