REMARK  Name = ZINCqH0000008FiD.0
REMARK                            x       y       z     vdW  Elec       q    Type
REMARK                         _______ _______ _______ _____ _____    ______ ____
ROOT
ATOM      1  N   LIG    1        6.041   3.743  -0.034  0.00  0.00    -0.630 N 
ATOM      2  H   LIG    1        6.233   2.792  -0.041  0.00  0.00    +0.420 HD
ATOM      3  C   LIG    1        4.763   4.172  -0.020  0.00  0.00    +0.510 C 
ATOM      4  O   LIG    1        4.523   5.361  -0.011  0.00  0.00    -0.490 OA
ENDROOT
BRANCH   1  12
ATOM      5  C   LIG    1       11.468   9.179   0.131  0.00  0.00    +0.030 C 
ATOM      6  C   LIG    1       10.733   7.857   0.362  0.00  0.00    -0.010 C 
ATOM      7  C   LIG    1       11.371   6.758  -0.492  0.00  0.00    +0.030 C 
ATOM      8  C   LIG    1       10.805   5.400  -0.069  0.00  0.00    +0.100 C 
ATOM      9  C   LIG    1        9.287   5.485  -0.054  0.00  0.00    -0.040 A 
ATOM     10  C   LIG    1        8.612   6.641  -0.041  0.00  0.00    -0.240 A 
ATOM     11  S   LIG    1        6.880   6.351  -0.027  0.00  0.00    +0.320 S 
ATOM     12  C   LIG    1        7.082   4.661  -0.038  0.00  0.00    +0.050 A 
ATOM     13  C   LIG    1        8.407   4.332  -0.047  0.00  0.00    -0.100 A 
ATOM     14  C   LIG    1        9.263   8.011  -0.039  0.00  0.00    +0.120 C 
BRANCH  13  15
ATOM     15  C   LIG    1        8.882   2.981  -0.052  0.00  0.00    +0.270 C 
ATOM     16  N   LIG    1        9.258   1.909  -0.056  0.00  0.00    -0.420 NA
ENDBRANCH  13  15
ENDBRANCH   1  12
BRANCH   3  17
ATOM     17  C   LIG    1        3.633   3.175  -0.015  0.00  0.00    +0.330 C 
BRANCH  17  18
ATOM     18  N   LIG    1        2.353   3.888   0.001  0.00  0.00    -0.730 N 
ATOM     19  H   LIG    1        2.338   4.858   0.006  0.00  0.00    +0.420 HD
BRANCH  18  20
ATOM     20  C   LIG    1        1.155   3.171   0.008  0.00  0.00    +0.220 A 
ATOM     21  C   LIG    1        1.175   1.782   0.000  0.00  0.00    -0.010 A 
ATOM     22  C   LIG    1       -0.013   1.076   0.008  0.00  0.00    +0.080 A 
ATOM     23  C   LIG    1       -1.220   1.750   0.017  0.00  0.00    +0.040 A 
ATOM     24  C   LIG    1       -1.243   3.133   0.031  0.00  0.00    +0.010 A 
ATOM     25  C   LIG    1       -0.060   3.845   0.023  0.00  0.00    +0.020 A 
BRANCH  24  26
ATOM     26  N   LIG    1       -2.537   3.850   0.046  0.00  0.00    +0.020 N 
ATOM     27  O   LIG    1       -3.581   3.223   0.053  0.00  0.00    -0.150 OA
ATOM     28  O   LIG    1       -2.559   5.068   0.053  0.00  0.00    -0.160 OA
ENDBRANCH  24  26
ENDBRANCH  18  20
ENDBRANCH  17  18
ENDBRANCH   3  17
TORSDOF 6
