REMARK  Name = ZINCqH0000050XLH.0
REMARK                            x       y       z     vdW  Elec       q    Type
REMARK                         _______ _______ _______ _____ _____    ______ ____
ROOT
ATOM      1  N   LIG    1       -2.201   1.796   0.996  0.00  0.00    -0.720 N 
ATOM      2  H   LIG    1       -2.213   2.143   1.901  0.00  0.00    +0.400 HD
ATOM      3  C   LIG    1       -3.088   0.852   0.624  0.00  0.00    +0.540 C 
ATOM      4  O   LIG    1       -3.073   0.418  -0.508  0.00  0.00    -0.530 OA
ENDROOT
BRANCH   1  10
ATOM      5  C   LIG    1        3.534   0.761  -0.022  0.00  0.00    +0.360 C 
ATOM      6  N   LIG    1        2.070   0.747  -0.011  0.00  0.00    -0.370 N 
ATOM      7  N   LIG    1        1.253  -0.394  -0.011  0.00  0.00    -0.300 NA
ATOM      8  C   LIG    1        0.002  -0.004   0.002  0.00  0.00    +0.250 A 
ATOM      9  C   LIG    1       -0.017   1.389   0.010  0.00  0.00    -0.250 A 
ATOM     10  C   LIG    1       -1.219   2.299   0.032  0.00  0.00    +0.330 C 
ATOM     11  C   LIG    1       -0.758   3.701   0.446  0.00  0.00    +0.020 C 
ATOM     12  C   LIG    1        0.447   4.117  -0.402  0.00  0.00    +0.040 C 
ATOM     13  C   LIG    1        1.668   3.280  -0.001  0.00  0.00    +0.110 C 
ATOM     14  C   LIG    1        1.268   1.825  -0.000  0.00  0.00    +0.090 A 
ENDBRANCH   1  10
BRANCH   3  15
ATOM     15  C   LIG    1       -4.098   0.334   1.616  0.00  0.00    -0.040 C 
ATOM     16  C   LIG    1       -3.944  -1.112   2.092  0.00  0.00    +0.080 C 
ATOM     17  C   LIG    1       -5.077  -0.738   1.133  0.00  0.00    +0.030 C 
BRANCH  17  18
ATOM     18  C   LIG    1       -6.477  -0.703   1.690  0.00  0.00    -0.000 A 
ATOM     19  C   LIG    1       -6.682  -0.826   3.051  0.00  0.00    +0.020 A 
ATOM     20  C   LIG    1       -7.966  -0.794   3.562  0.00  0.00    +0.050 A 
ATOM     21  C   LIG    1       -9.045  -0.639   2.712  0.00  0.00    +0.020 A 
ATOM     22  C   LIG    1       -8.839  -0.515   1.350  0.00  0.00    +0.070 A 
ATOM     23  C   LIG    1       -7.555  -0.542   0.840  0.00  0.00    -0.170 A 
BRANCH  23  24
ATOM     24  C   LIG    1       -7.331  -0.402  -0.643  0.00  0.00    +0.510 C 
ATOM     25  F   LIG    1       -6.686  -1.545  -1.128  0.00  0.00    -0.170 F 
ATOM     26  F   LIG    1       -6.535   0.722  -0.891  0.00  0.00    -0.170 F 
ATOM     27  F   LIG    1       -8.563  -0.253  -1.289  0.00  0.00    -0.180 F 
ENDBRANCH  23  24
ENDBRANCH  17  18
ENDBRANCH   3  15
TORSDOF 4
