REMARK  Name = ZINCvU0000000HEV.0
REMARK                            x       y       z     vdW  Elec       q    Type
REMARK                         _______ _______ _______ _____ _____    ______ ____
ROOT
ATOM      1  N   LIG    1        3.404   0.251  -0.320  0.00  0.00    -0.640 N 
ATOM      2  H   LIG    1        4.061   0.935  -0.115  0.00  0.00    +0.410 HD
ATOM      3  C   LIG    1        3.806  -0.960  -0.753  0.00  0.00    +0.520 C 
ATOM      4  O   LIG    1        2.984  -1.789  -1.083  0.00  0.00    -0.500 OA
ENDROOT
BRANCH   1  11
ATOM      5  C   LIG    1        1.606  -0.963   1.915  0.00  0.00    +0.160 C 
ATOM      6  C   LIG    1        1.193  -0.004   0.829  0.00  0.00    +0.100 A 
ATOM      7  N   LIG    1       -0.011   0.478   0.650  0.00  0.00    -0.280 NA
ATOM      8  N   LIG    1        0.015   1.330  -0.461  0.00  0.00    -0.320 N 
ATOM      9  C   LIG    1        1.286   1.343  -0.948  0.00  0.00    +0.100 A 
ATOM     10  C   LIG    1        1.776   2.125  -2.139  0.00  0.00    +0.160 C 
ATOM     11  C   LIG    1        2.032   0.523  -0.164  0.00  0.00    -0.010 A 
BRANCH   8  12
ATOM     12  C   LIG    1       -1.075   2.039  -0.983  0.00  0.00    +0.150 A 
ATOM     13  C   LIG    1       -0.888   3.303  -1.525  0.00  0.00    +0.000 A 
ATOM     14  C   LIG    1       -1.964   3.997  -2.043  0.00  0.00    +0.030 A 
ATOM     15  C   LIG    1       -3.229   3.438  -2.013  0.00  0.00    +0.010 A 
ATOM     16  C   LIG    1       -3.419   2.181  -1.470  0.00  0.00    +0.030 A 
ATOM     17  C   LIG    1       -2.346   1.480  -0.955  0.00  0.00    +0.020 A 
ENDBRANCH   8  12
ENDBRANCH   1  11
BRANCH   3  18
ATOM     18  C   LIG    1        5.276  -1.285  -0.827  0.00  0.00    +0.270 C 
BRANCH  18  19
ATOM     19  O   LIG    1        5.448  -2.640  -1.320  0.00  0.00    -0.330 OA
BRANCH  19  20
ATOM     20  C   LIG    1        6.713  -3.089  -1.447  0.00  0.00    +0.540 C 
ATOM     21  O   LIG    1        7.647  -2.368  -1.153  0.00  0.00    -0.470 OA
BRANCH  20  22
ATOM     22  C   LIG    1        6.963  -4.447  -1.939  0.00  0.00    -0.230 A 
ATOM     23  C   LIG    1        8.178  -4.988  -2.100  0.00  0.00    +0.050 A 
ATOM     24  C   LIG    1        8.194  -6.307  -2.584  0.00  0.00    -0.100 A 
ATOM     25  C   LIG    1        9.307  -7.138  -2.855  0.00  0.00    +0.130 A 
ATOM     26  C   LIG    1        9.127  -8.401  -3.324  0.00  0.00    +0.000 A 
ATOM     27  C   LIG    1        7.847  -8.900  -3.545  0.00  0.00    +0.140 A 
ATOM     28  C   LIG    1        6.745  -8.115  -3.291  0.00  0.00    +0.020 A 
ATOM     29  F   LIG    1        7.685 -10.158  -4.011  0.00  0.00    -0.120 F 
ATOM     30  C   LIG    1        6.907  -6.812  -2.809  0.00  0.00    -0.110 A 
ATOM     31 CL   LIG    1        9.635  -4.117  -1.736  0.00  0.00    -0.000 Cl
ATOM     32  S   LIG    1        5.711  -5.591  -2.390  0.00  0.00    +0.240 S 
ENDBRANCH  20  22
ENDBRANCH  19  20
ENDBRANCH  18  19
ENDBRANCH   3  18
TORSDOF 6
