REMARK  Name = ZINCqH00000075Hu.0
REMARK                            x       y       z     vdW  Elec       q    Type
REMARK                         _______ _______ _______ _____ _____    ______ ____
ROOT
ATOM      1  N   LIG    1        2.357   3.901  -0.000  0.00  0.00    -0.300 N 
ATOM      2  N   LIG    1        3.663   3.388   0.088  0.00  0.00    -0.050 NA
ATOM      3  N   LIG    1        4.465   4.396   0.039  0.00  0.00    -0.040 NA
ATOM      4  N   LIG    1        3.801   5.491  -0.060  0.00  0.00    -0.260 NA
ATOM      5  C   LIG    1        2.509   5.246  -0.089  0.00  0.00    +0.170 A 
ENDROOT
BRANCH   1  12
ATOM      6  C   LIG    1        1.007   2.060  -0.810  0.00  0.00    +0.160 A 
ATOM      7  C   LIG    1       -0.183   1.350  -0.799  0.00  0.00    -0.040 A 
ATOM      8  C   LIG    1       -1.221   1.754   0.020  0.00  0.00    +0.080 A 
ATOM      9  C   LIG    1       -1.073   2.860   0.836  0.00  0.00    -0.100 A 
ATOM     10  C   LIG    1        0.111   3.574   0.830  0.00  0.00    +0.070 A 
ATOM     11  C   LIG    1       -2.206   3.292   1.730  0.00  0.00    +0.110 C 
ATOM     12  C   LIG    1        1.155   3.178   0.008  0.00  0.00    +0.080 A 
BRANCH   6  14
ATOM     13  C   LIG    1        1.804   0.511  -2.429  0.00  0.00    +0.250 C 
ATOM     14  O   LIG    1        2.027   1.666  -1.618  0.00  0.00    -0.300 OA
ENDBRANCH   6  14
ENDBRANCH   1  12
BRANCH   5  15
ATOM     15  S   LIG    1        1.219   6.439  -0.217  0.00  0.00    +0.240 S 
BRANCH  15  16
ATOM     16  C   LIG    1        2.176   7.917  -0.287  0.00  0.00    +0.170 A 
ATOM     17  C   LIG    1        1.542   9.182  -0.398  0.00  0.00    -0.150 A 
ATOM     18  C   LIG    1        2.361  10.313  -0.448  0.00  0.00    +0.100 A 
ATOM     19  S   LIG    1        1.367  11.756  -0.585  0.00  0.00    +0.180 S 
ATOM     20  C   LIG    1       -0.115  10.817  -0.571  0.00  0.00    -0.160 A 
ATOM     21  C   LIG    1       -1.497  11.411  -0.661  0.00  0.00    +0.160 C 
ATOM     22  N   LIG    1        3.690  10.158  -0.391  0.00  0.00    -0.480 NA
ATOM     23  C   LIG    1        4.229   8.965  -0.289  0.00  0.00    +0.540 A 
ATOM     24  C   LIG    1        0.135   9.526  -0.472  0.00  0.00    -0.090 A 
ATOM     25  C   LIG    1       -0.958   8.488  -0.437  0.00  0.00    +0.150 C 
ATOM     26  N   LIG    1        3.499   7.866  -0.232  0.00  0.00    -0.460 NA
ENDBRANCH  15  16
ENDBRANCH   5  15
TORSDOF 4
