REMARK  Name = ZINCrH000004mo6B.0
REMARK                            x       y       z     vdW  Elec       q    Type
REMARK                         _______ _______ _______ _____ _____    ______ ____
ROOT
ATOM      1  C   LIG    1       -0.732   1.579   1.270  0.00  0.00    +0.350 C 
ATOM      2  C   LIG    1       -0.010   1.086   0.014  0.00  0.00    +0.040 C 
ENDROOT
BRANCH   1   3
ATOM      3  N   LIG    1       -0.751   3.044   1.279  0.00  0.00    -0.740 N 
ATOM      4  H   LIG    1       -0.067   3.535   1.760  0.00  0.00    +0.390 HD
ATOM      5  C   LIG    1       -1.720   3.708   0.618  0.00  0.00    +0.710 C 
ATOM      6  N   LIG    1       -1.798   5.051   0.708  0.00  0.00    -0.630 N 
ATOM      7  C   LIG    1       -2.910   5.780   0.084  0.00  0.00    +0.290 C 
ATOM      8  C   LIG    1       -2.343   6.869  -0.826  0.00  0.00    +0.000 C 
ATOM      9  C   LIG    1       -1.384   7.752  -0.023  0.00  0.00    +0.130 C 
ATOM     10  C   LIG    1       -0.223   6.903   0.499  0.00  0.00    +0.040 C 
ATOM     11  C   LIG    1       -0.839   8.862  -0.924  0.00  0.00    +0.020 C 
ATOM     12  C   LIG    1       -0.769   5.814   1.428  0.00  0.00    +0.270 C 
ATOM     13  O   LIG    1       -2.524   3.097  -0.059  0.00  0.00    -0.590 OA
BRANCH   9  14
ATOM     14  O   LIG    1       -2.082   8.333   1.079  0.00  0.00    -0.560 OA
ATOM     15  H   LIG    1       -2.833   8.886   0.822  0.00  0.00    +0.380 HD
ENDBRANCH   9  14
ENDBRANCH   1   3
BRANCH   1  19
ATOM     16  C   LIG    1        1.454   0.529   4.431  0.00  0.00    +0.140 A 
ATOM     17  N   LIG    1        0.374  -0.189   4.308  0.00  0.00    -0.460 NA
ATOM     18  C   LIG    1       -0.412   0.086   3.291  0.00  0.00    +0.090 A 
ATOM     19  C   LIG    1       -0.008   1.079   2.494  0.00  0.00    -0.240 A 
ATOM     20  C   LIG    1       -1.690  -0.673   3.041  0.00  0.00    +0.150 C 
ATOM     21  S   LIG    1        1.521   1.698   3.115  0.00  0.00    +0.080 S 
BRANCH  16  25
ATOM     22  C   LIG    1        4.362   0.103   7.500  0.00  0.00    +0.150 A 
ATOM     23  C   LIG    1        3.248  -0.728   7.480  0.00  0.00    -0.010 A 
ATOM     24  C   LIG    1        2.303  -0.592   6.486  0.00  0.00    +0.110 A 
ATOM     25  C   LIG    1        2.466   0.381   5.498  0.00  0.00    -0.070 A 
ATOM     26  C   LIG    1        3.588   1.210   5.519  0.00  0.00    +0.080 A 
ATOM     27  C   LIG    1        4.527   1.072   6.519  0.00  0.00    -0.070 A 
BRANCH  22  29
ATOM     28  C   LIG    1        6.411   0.853   8.441  0.00  0.00    +0.240 C 
ATOM     29  O   LIG    1        5.291  -0.034   8.481  0.00  0.00    -0.310 OA
ENDBRANCH  22  29
ENDBRANCH  16  25
ENDBRANCH   1  19
TORSDOF 5
