REMARK  Name = ZINCrH00000No4Ob.0
REMARK                            x       y       z     vdW  Elec       q    Type
REMARK                         _______ _______ _______ _____ _____    ______ ____
ROOT
ATOM      1  C   LIG    1        1.287  -2.223   0.452  0.00  0.00    +0.260 C 
ATOM      2  C   LIG    1        2.460  -2.852   0.093  0.00  0.00    -0.130 C 
ENDROOT
BRANCH   1   5
ATOM      3  C   LIG    1        0.162   1.344   0.664  0.00  0.00    +0.120 A 
ATOM      4  C   LIG    1        0.160  -0.010   0.401  0.00  0.00    +0.010 A 
ATOM      5  C   LIG    1        1.282  -0.785   0.728  0.00  0.00    -0.070 A 
ATOM      6  C   LIG    1        2.399  -0.179   1.320  0.00  0.00    +0.060 A 
ATOM      7  C   LIG    1        2.390   1.174   1.579  0.00  0.00    -0.100 A 
ATOM      8  I   LIG    1        4.059   2.079   2.465  0.00  0.00    +0.000 I 
ATOM      9  C   LIG    1        1.277   1.940   1.254  0.00  0.00    +0.130 A 
BRANCH   3  11
ATOM     10  C   LIG    1       -2.027   1.426  -0.263  0.00  0.00    +0.250 C 
ATOM     11  O   LIG    1       -0.923   2.100   0.344  0.00  0.00    -0.300 OA
ENDBRANCH   3  11
BRANCH   9  12
ATOM     12  O   LIG    1        1.275   3.273   1.512  0.00  0.00    -0.320 OA
ATOM     13  C   LIG    1        0.784   3.687   2.788  0.00  0.00    +0.230 C 
ENDBRANCH   9  12
ENDBRANCH   1   5
BRANCH   2  14
ATOM     14  C   LIG    1        2.503  -4.318  -0.024  0.00  0.00    +0.580 C 
ATOM     15  N   LIG    1        3.650  -4.932  -0.375  0.00  0.00    -0.670 N 
ATOM     16  H   LIG    1        4.465  -4.417  -0.476  0.00  0.00    +0.420 HD
ATOM     17  O   LIG    1        1.503  -4.975   0.195  0.00  0.00    -0.500 OA
BRANCH  15  18
ATOM     18  C   LIG    1        3.664  -6.314  -0.592  0.00  0.00    +0.200 A 
ATOM     19  C   LIG    1        4.769  -7.066  -0.215  0.00  0.00    +0.010 A 
ATOM     20  C   LIG    1        4.779  -8.431  -0.426  0.00  0.00    +0.130 A 
ATOM     21  C   LIG    1        3.694  -9.047  -1.023  0.00  0.00    -0.060 A 
ATOM     22  C   LIG    1        2.594  -8.300  -1.405  0.00  0.00    +0.130 A 
ATOM     23  C   LIG    1        2.576  -6.936  -1.191  0.00  0.00    +0.040 A 
BRANCH  21  24
ATOM     24  N   LIG    1        3.709 -10.509  -1.253  0.00  0.00    +0.030 N 
ATOM     25  O   LIG    1        4.677 -11.168  -0.917  0.00  0.00    -0.160 OA
ATOM     26  O   LIG    1        2.755 -11.053  -1.778  0.00  0.00    -0.160 OA
ENDBRANCH  21  24
ENDBRANCH  15  18
ENDBRANCH   2  14
BRANCH   2  27
ATOM     27  C   LIG    1        3.637  -2.078  -0.165  0.00  0.00    +0.230 C 
ATOM     28  N   LIG    1        4.571  -1.465  -0.370  0.00  0.00    -0.380 NA
ENDBRANCH   2  27
TORSDOF 7
