REMARK  Name = ZINCpe00000MJMFp.0
REMARK                            x       y       z     vdW  Elec       q    Type
REMARK                         _______ _______ _______ _____ _____    ______ ____
ROOT
ATOM      1  N   LIG    1        4.521   2.182   0.735  0.00  0.00    -0.740 N 
ATOM      2  H   LIG    1        4.749   2.718   1.510  0.00  0.00    +0.390 HD
ATOM      3  C   LIG    1        4.289   0.861   0.873  0.00  0.00    +0.710 C 
ATOM      4  N   LIG    1        4.469   0.267   2.069  0.00  0.00    -0.640 N 
ATOM      5  C   LIG    1        4.798   1.081   3.241  0.00  0.00    +0.320 C 
ATOM      6  C   LIG    1        3.661   0.988   4.263  0.00  0.00    -0.340 C 
ATOM      7  S   LIG    1        3.420  -0.754   4.722  0.00  0.00    +2.420 S 
ATOM      8  C   LIG    1        3.148  -1.518   3.096  0.00  0.00    -0.330 C 
ATOM      9  O   LIG    1        2.225  -0.863   5.481  0.00  0.00    -0.930 OA
ATOM     10  O   LIG    1        4.636  -1.254   5.261  0.00  0.00    -0.930 OA
ATOM     11  C   LIG    1        4.328  -1.185   2.186  0.00  0.00    +0.360 C 
ATOM     12  O   LIG    1        3.918   0.206  -0.082  0.00  0.00    -0.540 OA
ENDROOT
BRANCH  11  13
ATOM     13  C   LIG    1        4.089  -1.778   0.822  0.00  0.00    -0.210 A 
ATOM     14  C   LIG    1        4.984  -2.484   0.092  0.00  0.00    +0.220 A 
ATOM     15  N   LIG    1        4.385  -2.836  -1.065  0.00  0.00    -0.380 N 
ATOM     16  N   LIG    1        3.079  -2.329  -1.046  0.00  0.00    -0.300 NA
ATOM     17  C   LIG    1        4.993  -3.610  -2.150  0.00  0.00    +0.350 C 
ATOM     18  C   LIG    1        2.900  -1.701   0.088  0.00  0.00    +0.300 A 
ENDBRANCH  11  13
BRANCH   1  19
ATOM     19  C   LIG    1        4.430   2.807  -0.587  0.00  0.00    +0.260 C 
BRANCH  19  20
ATOM     20  C   LIG    1        5.519   3.872  -0.724  0.00  0.00    +0.140 C 
ATOM     21  C   LIG    1        6.909   3.225  -0.563  0.00  0.00    +0.010 C 
ATOM     22  C   LIG    1        7.636   3.553  -1.889  0.00  0.00    +0.000 C 
ATOM     23  C   LIG    1        6.829   4.769  -2.410  0.00  0.00    +0.210 C 
ATOM     24  O   LIG    1        5.470   4.457  -2.036  0.00  0.00    -0.370 OA
ENDBRANCH  19  20
BRANCH  19  26
ATOM     25  C   LIG    1        1.976   2.376  -0.772  0.00  0.00    +0.020 C 
ATOM     26  C   LIG    1        3.055   3.460  -0.748  0.00  0.00    +0.010 C 
ENDBRANCH  19  26
ENDBRANCH   1  19
TORSDOF 4
