REMARK  Name = ZINCrm000000MLhA.1
REMARK                            x       y       z     vdW  Elec       q    Type
REMARK                         _______ _______ _______ _____ _____    ______ ____
ROOT
ATOM      1  C   LIG    1        0.968   1.850   7.724  0.00  0.00    -0.150 A 
ATOM      2  C   LIG    1        1.634   1.396   8.847  0.00  0.00    +0.050 A 
ATOM      3  C   LIG    1        1.162   0.290   9.530  0.00  0.00    +0.060 A 
ATOM      4  C   LIG    1        0.021  -0.357   9.093  0.00  0.00    +0.060 A 
ATOM      5  C   LIG    1       -0.647   0.101   7.974  0.00  0.00    +0.050 A 
ATOM      6  C   LIG    1       -0.175   1.206   7.291  0.00  0.00    -0.110 A 
ENDROOT
BRANCH   1   7
ATOM      7  C   LIG    1        1.486   3.052   6.976  0.00  0.00    +0.310 C 
BRANCH   7  11
ATOM      8  C   LIG    1       -1.263   5.404   9.494  0.00  0.00    +0.020 C 
ATOM      9  C   LIG    1        0.194   5.782   9.214  0.00  0.00    +0.220 C 
ATOM     10  C   LIG    1        0.978   4.550   8.774  0.00  0.00    +0.240 C 
ATOM     11  N   LIG    1        0.713   4.243   7.364  0.00  0.00    -0.380 N 
ATOM     12  C   LIG    1        1.143   5.383   6.545  0.00  0.00    +0.240 C 
ATOM     13  C   LIG    1        0.325   6.621   6.901  0.00  0.00    +0.220 C 
ATOM     14  C   LIG    1       -1.078   6.521   6.302  0.00  0.00    +0.030 C 
ATOM     15  H   LIG    1       -0.265   4.056   7.223  0.00  0.00    +0.420 HD
ATOM     16  O   LIG    1        0.282   6.848   8.294  0.00  0.00    -0.350 OA
ENDBRANCH   7  11
ENDBRANCH   1   7
BRANCH   6  17
ATOM     17  C   LIG    1       -0.904   1.706   6.070  0.00  0.00    +0.320 C 
BRANCH  17  18
ATOM     18  N   LIG    1       -0.219   1.233   4.864  0.00  0.00    -0.710 N 
ATOM     19  H   LIG    1        0.578   0.686   4.943  0.00  0.00    +0.420 HD
ATOM     20  C   LIG    1       -0.695   1.559   3.647  0.00  0.00    +0.500 C 
ATOM     21  O   LIG    1       -1.692   2.243   3.549  0.00  0.00    -0.510 OA
BRANCH  20  22
ATOM     22  C   LIG    1        0.010   1.073   2.407  0.00  0.00    +0.300 C 
BRANCH  22  23
ATOM     23  N   LIG    1       -0.700   1.560   1.217  0.00  0.00    -0.490 N 
ATOM     24  H   LIG    1       -1.647   1.210   1.224  0.00  0.00    +0.440 HD
ATOM     25  H   LIG    1       -0.714   2.568   1.222  0.00  0.00    +0.440 HD
BRANCH  23  26
ATOM     26  C   LIG    1       -0.013   1.086   0.008  0.00  0.00    +0.270 C 
BRANCH  26  27
ATOM     27  C   LIG    1       -0.753   1.593  -1.232  0.00  0.00    +0.160 C 
ATOM     28  C   LIG    1       -0.105   1.006  -2.504  0.00  0.00    +0.040 C 
ATOM     29  C   LIG    1       -0.159   2.208  -3.486  0.00  0.00    +0.030 C 
ATOM     30  C   LIG    1        0.049   3.394  -2.510  0.00  0.00    +0.220 C 
ATOM     31  O   LIG    1       -0.648   3.019  -1.311  0.00  0.00    -0.390 OA
ENDBRANCH  26  27
ENDBRANCH  23  26
ENDBRANCH  22  23
ENDBRANCH  20  22
ENDBRANCH  17  18
ENDBRANCH   6  17
TORSDOF 8
