REMARK  Name = ZINCrD000000CRym.0
REMARK                            x       y       z     vdW  Elec       q    Type
REMARK                         _______ _______ _______ _____ _____    ______ ____
ROOT
ATOM      1  C   LIG    1       -0.618   5.670  -1.183  0.00  0.00    -0.060 A 
ATOM      2  C   LIG    1       -1.357   6.678  -0.589  0.00  0.00    +0.010 A 
ATOM      3  C   LIG    1       -0.863   7.965  -0.544  0.00  0.00    +0.050 A 
ATOM      4  C   LIG    1        0.380   8.252  -1.111  0.00  0.00    -0.140 A 
ATOM      5  C   LIG    1        1.118   7.232  -1.713  0.00  0.00    +0.090 A 
ATOM      6  C   LIG    1        0.615   5.948  -1.745  0.00  0.00    +0.040 A 
ENDROOT
BRANCH   4   7
ATOM      7  C   LIG    1        0.912   9.630  -1.073  0.00  0.00    +0.560 C 
ATOM      8  N   LIG    1        0.197  10.613  -0.491  0.00  0.00    -0.620 N 
ATOM      9  H   LIG    1       -0.667  10.416  -0.096  0.00  0.00    +0.420 HD
ATOM     10  O   LIG    1        1.995   9.878  -1.568  0.00  0.00    -0.500 OA
BRANCH   8  11
ATOM     11  C   LIG    1        0.697  11.908  -0.456  0.00  0.00    +0.280 A 
ATOM     12  N   LIG    1        0.098  12.928   0.076  0.00  0.00    -0.490 NA
ATOM     13  C   LIG    1        0.731  14.098   0.016  0.00  0.00    +0.160 A 
ATOM     14  C   LIG    1        1.929  14.071  -0.598  0.00  0.00    -0.120 A 
ATOM     15  S   LIG    1        2.246  12.418  -1.119  0.00  0.00    +0.220 S 
BRANCH  13  16
ATOM     16  C   LIG    1        0.160  15.338   0.584  0.00  0.00    -0.130 A 
ATOM     17  C   LIG    1       -1.033  15.432   1.204  0.00  0.00    +0.050 A 
ATOM     18  C   LIG    1       -1.350  16.699   1.654  0.00  0.00    +0.000 A 
ATOM     19  C   LIG    1       -0.434  17.636   1.398  0.00  0.00    -0.040 A 
ATOM     20  S   LIG    1        0.928  16.920   0.547  0.00  0.00    +0.130 S 
ENDBRANCH  13  16
ENDBRANCH   8  11
ENDBRANCH   4   7
BRANCH   1  21
ATOM     21  C   LIG    1       -1.161   4.265  -1.222  0.00  0.00    +0.120 C 
BRANCH  21  25
ATOM     22  O   LIG    1        0.002  -0.004   0.002  0.00  0.00    -0.480 OA
ATOM     23  C   LIG    1       -0.014   1.208   0.009  0.00  0.00    +0.530 C 
ATOM     24  C   LIG    1       -1.260   2.068   0.019  0.00  0.00    +0.100 C 
ATOM     25  C   LIG    1       -0.705   3.507   0.027  0.00  0.00    +0.010 C 
ATOM     26  C   LIG    1        0.795   3.309   0.012  0.00  0.00    +0.530 C 
ATOM     27  O   LIG    1        1.620   4.197   0.009  0.00  0.00    -0.460 OA
ATOM     28  N   LIG    1        1.066   1.998   0.003  0.00  0.00    -0.680 N 
ATOM     29  H   LIG    1        1.971   1.650  -0.008  0.00  0.00    +0.420 HD
ENDBRANCH  21  25
ENDBRANCH   1  21
TORSDOF 5
