REMARK  Name = ZINCqH0000006pqG.0
REMARK                            x       y       z     vdW  Elec       q    Type
REMARK                         _______ _______ _______ _____ _____    ______ ____
ROOT
ATOM      1  C   LIG    1       -4.997   4.285   0.049  0.00  0.00    +0.280 C 
ATOM      2  C   LIG    1       -5.571   4.331  -1.369  0.00  0.00    +0.040 C 
ENDROOT
BRANCH   1   3
ATOM      3  C   LIG    1       -3.694   3.528   0.039  0.00  0.00    -0.080 A 
ATOM      4  C   LIG    1       -2.496   4.219   0.037  0.00  0.00    +0.030 A 
ATOM      5  C   LIG    1       -1.300   3.531   0.028  0.00  0.00    +0.030 A 
ATOM      6  C   LIG    1       -1.300   2.138   0.020  0.00  0.00    -0.040 A 
ATOM      7  C   LIG    1       -2.510   1.447   0.016  0.00  0.00    +0.030 A 
ATOM      8  C   LIG    1       -3.701   2.145   0.032  0.00  0.00    +0.020 A 
BRANCH   6   9
ATOM      9  C   LIG    1       -0.017   1.393   0.010  0.00  0.00    -0.150 A 
ATOM     10  C   LIG    1        1.206   2.069   0.002  0.00  0.00    +0.330 A 
ATOM     11  N   LIG    1        2.325   1.366  -0.012  0.00  0.00    -0.510 NA
ATOM     12  C   LIG    1        2.299   0.048  -0.020  0.00  0.00    +0.490 A 
ATOM     13  N   LIG    1        1.167  -0.628  -0.013  0.00  0.00    -0.510 NA
ATOM     14  C   LIG    1        0.002  -0.004   0.002  0.00  0.00    +0.330 A 
ENDBRANCH   6   9
ENDBRANCH   1   3
BRANCH   1  16
ATOM     15  C   LIG    1       -6.951   4.308   1.506  0.00  0.00    +0.560 C 
ATOM     16  N   LIG    1       -5.947   3.610   0.938  0.00  0.00    -0.720 N 
ATOM     17  H   LIG    1       -5.853   2.662   1.117  0.00  0.00    +0.400 HD
ATOM     18  O   LIG    1       -7.068   5.496   1.280  0.00  0.00    -0.530 OA
BRANCH  15  23
ATOM     19  C   LIG    1       -9.840   3.705   3.828  0.00  0.00    -0.100 A 
ATOM     20  C   LIG    1       -9.704   2.352   4.082  0.00  0.00    +0.060 A 
ATOM     21  C   LIG    1       -8.675   1.633   3.500  0.00  0.00    +0.000 A 
ATOM     22  C   LIG    1       -7.780   2.261   2.659  0.00  0.00    +0.050 A 
ATOM     23  C   LIG    1       -7.909   3.627   2.402  0.00  0.00    -0.140 A 
ATOM     24  C   LIG    1       -8.949   4.347   2.992  0.00  0.00    +0.100 A 
BRANCH  19  25
ATOM     25  C   LIG    1      -10.964   4.481   4.465  0.00  0.00    +0.220 C 
BRANCH  25  27
ATOM     26  C   LIG    1      -13.239   5.157   4.126  0.00  0.00    +0.200 C 
ATOM     27  O   LIG    1      -12.110   4.448   3.611  0.00  0.00    -0.390 OA
ENDBRANCH  25  27
ENDBRANCH  19  25
ENDBRANCH  15  23
ENDBRANCH   1  16
TORSDOF 6
