REMARK  Name = ZINCpe00000MJKWa.0
REMARK                            x       y       z     vdW  Elec       q    Type
REMARK                         _______ _______ _______ _____ _____    ______ ____
ROOT
ATOM      1  C   LIG    1       -0.116   2.457  -1.070  0.00  0.00    +0.170 C 
ATOM      2  C   LIG    1        0.451   1.687   0.141  0.00  0.00    +0.240 C 
ATOM      3  N   LIG    1       -0.500   1.851   1.250  0.00  0.00    -0.610 N 
ATOM      4  C   LIG    1       -1.616   2.703   0.790  0.00  0.00    +0.290 C 
ATOM      5  C   LIG    1       -0.374   1.312   2.479  0.00  0.00    +0.590 C 
ATOM      6  O   LIG    1       -1.179   1.585   3.349  0.00  0.00    -0.510 OA
ATOM      7  C   LIG    1       -1.632   2.541  -0.750  0.00  0.00    +0.110 C 
ENDROOT
BRANCH   5   8
ATOM      8  C   LIG    1        0.740   0.389   2.769  0.00  0.00    -0.130 A 
ATOM      9  C   LIG    1        2.043   0.720   2.386  0.00  0.00    +0.050 A 
ATOM     10  C   LIG    1        3.080  -0.144   2.660  0.00  0.00    +0.020 A 
ATOM     11  C   LIG    1        2.840  -1.342   3.311  0.00  0.00    +0.050 A 
ATOM     12  C   LIG    1        1.553  -1.685   3.696  0.00  0.00    +0.050 A 
ATOM     13  O   LIG    1        1.340  -2.870   4.332  0.00  0.00    -0.300 OA
ATOM     14  C   LIG    1        0.100  -3.010   5.033  0.00  0.00    +0.230 C 
ATOM     15  C   LIG    1       -1.027  -2.508   4.121  0.00  0.00    +0.230 C 
ATOM     16  O   LIG    1       -0.770  -1.136   3.805  0.00  0.00    -0.290 OA
ATOM     17  C   LIG    1        0.498  -0.820   3.435  0.00  0.00    +0.100 A 
ENDBRANCH   5   8
BRANCH   7  18
ATOM     18  C   LIG    1       -2.258   3.741  -1.413  0.00  0.00    -0.010 A 
ATOM     19  C   LIG    1       -2.293   5.006  -0.932  0.00  0.00    +0.140 A 
ATOM     20  N   LIG    1       -2.952   5.743  -1.856  0.00  0.00    -0.290 N 
ATOM     21  N   LIG    1       -3.288   4.966  -2.826  0.00  0.00    -0.080 NA
ATOM     22  C   LIG    1       -3.233   7.178  -1.768  0.00  0.00    +0.370 C 
ATOM     23  N   LIG    1       -2.884   3.767  -2.595  0.00  0.00    -0.250 NA
ENDBRANCH   7  18
BRANCH   1  25
ATOM     24  C   LIG    1        1.327   2.061  -2.943  0.00  0.00    +0.200 C 
ATOM     25  O   LIG    1        0.105   1.730  -2.280  0.00  0.00    -0.360 OA
ENDBRANCH   1  25
TORSDOF 3
