REMARK  Name = ZINCnE000001MXst.0
REMARK                            x       y       z     vdW  Elec       q    Type
REMARK                         _______ _______ _______ _____ _____    ______ ____
ROOT
ATOM      1  C   LIG    1        1.114   2.016   0.002  0.00  0.00    +0.510 A 
ATOM      2  N   LIG    1        2.296   1.416  -0.012  0.00  0.00    -0.550 NA
ATOM      3  C   LIG    1        2.389   0.096  -0.020  0.00  0.00    +0.350 A 
ATOM      4  C   LIG    1        1.234  -0.664  -0.013  0.00  0.00    -0.110 A 
ATOM      5  C   LIG    1        0.002  -0.004   0.002  0.00  0.00    +0.240 A 
ATOM      6  N   LIG    1       -0.016   1.327   0.009  0.00  0.00    -0.530 NA
ENDROOT
BRANCH   1  10
ATOM      7  C   LIG    1        1.610   5.850  -1.458  0.00  0.00    +0.030 C 
ATOM      8  C   LIG    1        2.311   5.500  -0.144  0.00  0.00    +0.010 C 
ATOM      9  C   LIG    1        2.409   3.979  -0.006  0.00  0.00    +0.210 C 
ATOM     10  N   LIG    1        1.060   3.399   0.010  0.00  0.00    -0.450 N 
ATOM     11  C   LIG    1        0.285   3.890   1.157  0.00  0.00    +0.200 C 
ATOM     12  C   LIG    1        0.124   5.408   1.053  0.00  0.00    +0.060 C 
ATOM     13  C   LIG    1        1.508   6.063   1.031  0.00  0.00    -0.100 C 
BRANCH  13  14
ATOM     14  C   LIG    1        1.356   7.554   0.871  0.00  0.00    +0.500 C 
ATOM     15  O   LIG    1        1.850   8.117  -0.091  0.00  0.00    -0.690 OA
ATOM     16  O   LIG    1        0.740   8.197   1.703  0.00  0.00    -0.700 OA
ENDBRANCH  13  14
ENDBRANCH   1  10
BRANCH   5  17
ATOM     17  C   LIG    1       -1.265  -0.774   0.011  0.00  0.00    -0.040 A 
ATOM     18  C   LIG    1       -1.237  -2.168  -0.003  0.00  0.00    +0.050 A 
ATOM     19  C   LIG    1       -2.419  -2.880   0.011  0.00  0.00    +0.040 A 
ATOM     20  C   LIG    1       -3.631  -2.212   0.027  0.00  0.00    -0.080 A 
ATOM     21  C   LIG    1       -3.665  -0.828   0.034  0.00  0.00    +0.040 A 
ATOM     22 BR   LIG    1       -5.247  -3.194   0.038  0.00  0.00    -0.050 Br
ATOM     23  C   LIG    1       -2.489  -0.107   0.026  0.00  0.00    +0.090 A 
ENDBRANCH   5  17
TORSDOF 3
