REMARK  Name = ZINCtV00000tRREY.0
REMARK                            x       y       z     vdW  Elec       q    Type
REMARK                         _______ _______ _______ _____ _____    ______ ____
ROOT
ATOM      1  N   LIG    1       -1.546   0.101  -1.657  0.00  0.00    -0.530 NA
ATOM      2  C   LIG    1       -2.404   1.171  -2.185  0.00  0.00    +0.200 C 
ATOM      3  C   LIG    1       -2.781   0.851  -3.634  0.00  0.00    +0.210 C 
ATOM      4  N   LIG    1       -3.471  -0.446  -3.682  0.00  0.00    -0.480 N 
ATOM      5  C   LIG    1       -2.614  -1.516  -3.154  0.00  0.00    +0.210 C 
ATOM      6  C   LIG    1       -2.236  -1.196  -1.706  0.00  0.00    +0.200 C 
ENDROOT
BRANCH   4   7
ATOM      7  C   LIG    1       -3.892  -0.736  -4.968  0.00  0.00    +0.410 A 
ATOM      8  C   LIG    1       -5.269  -0.715  -5.296  0.00  0.00    -0.150 A 
ATOM      9  C   LIG    1       -6.432  -0.409  -4.470  0.00  0.00    +0.010 A 
ATOM     10  C   LIG    1       -7.597  -0.479  -5.114  0.00  0.00    -0.010 A 
ATOM     11  S   LIG    1       -7.371  -0.921  -6.795  0.00  0.00    +0.190 S 
ATOM     12  C   LIG    1       -5.625  -1.013  -6.612  0.00  0.00    +0.090 A 
ATOM     13  N   LIG    1       -4.663  -1.312  -7.495  0.00  0.00    -0.490 NA
ATOM     14  C   LIG    1       -3.399  -1.322  -7.141  0.00  0.00    +0.540 A 
ATOM     15  N   LIG    1       -3.011  -1.043  -5.910  0.00  0.00    -0.550 NA
BRANCH   9  16
ATOM     16  C   LIG    1       -6.327  -0.057  -3.039  0.00  0.00    -0.120 A 
ATOM     17  C   LIG    1       -6.804   1.073  -2.478  0.00  0.00    +0.010 A 
ATOM     18  C   LIG    1       -6.589   1.176  -1.118  0.00  0.00    +0.010 A 
ATOM     19  C   LIG    1       -5.934   0.150  -0.569  0.00  0.00    -0.070 A 
ATOM     20  S   LIG    1       -5.553  -1.042  -1.804  0.00  0.00    +0.170 S 
ENDBRANCH   9  16
ENDBRANCH   4   7
BRANCH   1  21
ATOM     21  C   LIG    1       -1.100   0.409  -0.292  0.00  0.00    +0.230 C 
BRANCH  21  26
ATOM     22 CL   LIG    1        2.524   5.200  -0.401  0.00  0.00    -0.050 Cl
ATOM     23  C   LIG    1        1.477   3.816  -0.369  0.00  0.00    -0.030 A 
ATOM     24  C   LIG    1        2.005   2.546  -0.505  0.00  0.00    +0.040 A 
ATOM     25  C   LIG    1        1.171   1.444  -0.480  0.00  0.00    +0.060 A 
ATOM     26  C   LIG    1       -0.192   1.611  -0.320  0.00  0.00    -0.060 A 
ATOM     27  C   LIG    1       -0.722   2.881  -0.185  0.00  0.00    +0.050 A 
ATOM     28  C   LIG    1        0.111   3.984  -0.210  0.00  0.00    -0.030 A 
ATOM     29 CL   LIG    1       -0.554   5.579  -0.042  0.00  0.00    -0.050 Cl
ENDBRANCH  21  26
ENDBRANCH   1  21
TORSDOF 4
