REMARK  Name = ZINCpk00000e9ZCb.0
REMARK                            x       y       z     vdW  Elec       q    Type
REMARK                         _______ _______ _______ _____ _____    ______ ____
ROOT
ATOM      1  C   LIG    1        7.692  -1.712  -0.804  0.00  0.00    +0.510 C 
ATOM      2  N   LIG    1        7.200  -0.474  -1.008  0.00  0.00    -0.660 N 
ATOM      3  H   LIG    1        7.737   0.192  -1.465  0.00  0.00    +0.410 HD
ATOM      4  O   LIG    1        6.995  -2.565  -0.297  0.00  0.00    -0.490 OA
ENDROOT
BRANCH   2   5
ATOM      5  C   LIG    1        5.912  -0.149  -0.560  0.00  0.00    +0.110 A 
ATOM      6  C   LIG    1        4.959  -1.146  -0.403  0.00  0.00    +0.050 A 
ATOM      7  C   LIG    1        3.691  -0.826   0.039  0.00  0.00    -0.020 A 
ATOM      8  C   LIG    1        3.368   0.493   0.325  0.00  0.00    +0.100 A 
ATOM      9  C   LIG    1        4.319   1.492   0.162  0.00  0.00    -0.010 A 
ATOM     10  C   LIG    1        5.589   1.171  -0.273  0.00  0.00    -0.080 A 
ATOM     11  C   LIG    1        6.624   2.254  -0.443  0.00  0.00    +0.080 C 
BRANCH   8  12
ATOM     12  N   LIG    1        2.083   0.818   0.772  0.00  0.00    -0.480 N 
ATOM     13  C   LIG    1        1.431  -0.349   1.405  0.00  0.00    +0.190 C 
ATOM     14  C   LIG    1        0.553   0.250   2.532  0.00  0.00    +0.030 C 
ATOM     15  C   LIG    1        1.447   1.411   3.042  0.00  0.00    +0.010 C 
ATOM     16  C   LIG    1        2.126   1.919   1.752  0.00  0.00    +0.190 C 
ENDBRANCH   8  12
ENDBRANCH   2   5
BRANCH   1  17
ATOM     17  C   LIG    1        9.108  -2.035  -1.204  0.00  0.00    +0.270 C 
BRANCH  17  18
ATOM     18  O   LIG    1        9.397  -3.421  -0.883  0.00  0.00    -0.320 OA
BRANCH  18  19
ATOM     19  C   LIG    1       10.627  -3.872  -1.179  0.00  0.00    +0.470 C 
ATOM     20  O   LIG    1       11.434  -3.132  -1.690  0.00  0.00    -0.500 OA
BRANCH  19  21
ATOM     21  C   LIG    1       10.999  -5.300  -0.875  0.00  0.00    +0.390 C 
BRANCH  21  23
ATOM     22  C   LIG    1       12.937  -6.758  -1.113  0.00  0.00    +0.650 C 
ATOM     23  N   LIG    1       12.383  -5.542  -1.289  0.00  0.00    -0.710 N 
ATOM     24  H   LIG    1       12.902  -4.827  -1.690  0.00  0.00    +0.420 HD
ATOM     25  O   LIG    1       12.287  -7.654  -0.610  0.00  0.00    -0.570 OA
BRANCH  22  27
ATOM     26  C   LIG    1       14.739  -8.315  -1.274  0.00  0.00    +0.310 C 
ATOM     27  O   LIG    1       14.209  -6.981  -1.494  0.00  0.00    -0.370 OA
ENDBRANCH  22  27
ENDBRANCH  21  23
ENDBRANCH  19  21
ENDBRANCH  18  19
ENDBRANCH  17  18
ENDBRANCH   1  17
TORSDOF 8
