REMARK  Name = ZINCkj000005mh1s.0
REMARK                            x       y       z     vdW  Elec       q    Type
REMARK                         _______ _______ _______ _____ _____    ______ ____
ROOT
ATOM      1  O   LIG    1       -0.656   0.180   5.050  0.00  0.00    -0.920 OA
ATOM      2  S   LIG    1       -0.269   0.490   3.717  0.00  0.00    +2.600 S 
ATOM      3  C   LIG    1       -1.650   0.214   2.574  0.00  0.00    -0.360 C 
ATOM      4  C   LIG    1       -1.293  -0.902   1.593  0.00  0.00    +0.300 C 
ATOM      5  N   LIG    1       -1.403  -0.406   0.215  0.00  0.00    -0.380 N 
ATOM      6  C   LIG    1       -0.132   0.204  -0.196  0.00  0.00    +0.250 C 
ATOM      7  C   LIG    1       -0.305   1.720  -0.301  0.00  0.00    +0.020 C 
ATOM      8  C   LIG    1        1.064   2.390  -0.420  0.00  0.00    +0.050 C 
ATOM      9  C   LIG    1        1.801   2.315   0.918  0.00  0.00    +0.020 C 
ATOM     10  C   LIG    1        1.148   3.267   1.921  0.00  0.00    +0.000 C 
ATOM     11  C   LIG    1        1.250   2.675   3.329  0.00  0.00    +0.300 C 
ATOM     12  H   LIG    1       -2.139   0.283   0.163  0.00  0.00    +0.430 HD
ATOM     13  O   LIG    1        0.942  -0.015   3.173  0.00  0.00    -0.940 OA
ATOM     14  N   LIG    1       -0.073   2.145   3.720  0.00  0.00    -1.110 NA
ATOM     15  H   LIG    1       -0.801   2.738   3.969  0.00  0.00    +0.420 HD
ENDROOT
BRANCH   5  16
ATOM     16  C   LIG    1       -1.721  -1.525  -0.683  0.00  0.00    +0.300 C 
BRANCH  16  17
ATOM     17  C   LIG    1       -3.119  -2.057  -0.360  0.00  0.00    +0.140 C 
ATOM     18  C   LIG    1       -3.417  -3.277  -1.236  0.00  0.00    +0.030 C 
ATOM     19  C   LIG    1       -4.839  -3.766  -0.951  0.00  0.00    +0.020 C 
ATOM     20  C   LIG    1       -5.822  -2.618  -1.199  0.00  0.00    +0.010 C 
ATOM     21  C   LIG    1       -5.432  -1.424  -0.324  0.00  0.00    +0.230 C 
ATOM     22  O   LIG    1       -4.088  -1.039  -0.619  0.00  0.00    -0.390 OA
ENDBRANCH  16  17
ENDBRANCH   5  16
TORSDOF 2
