REMARK  Name = ZINCkj000005mh1s.1
REMARK                            x       y       z     vdW  Elec       q    Type
REMARK                         _______ _______ _______ _____ _____    ______ ____
ROOT
ATOM      1  O   LIG    1       -3.284   0.986   1.573  0.00  0.00    -0.950 OA
ATOM      2  S   LIG    1       -3.974  -0.161   1.095  0.00  0.00    +2.590 S 
ATOM      3  C   LIG    1       -3.592  -0.467  -0.649  0.00  0.00    -0.350 C 
ATOM      4  C   LIG    1       -2.191   0.041  -0.981  0.00  0.00    +0.300 C 
ATOM      5  N   LIG    1       -2.154   1.506  -1.041  0.00  0.00    -0.390 N 
ATOM      6  C   LIG    1       -2.962   1.994  -2.163  0.00  0.00    +0.250 C 
ATOM      7  C   LIG    1       -3.256   3.485  -1.996  0.00  0.00    +0.040 C 
ATOM      8  C   LIG    1       -4.753   3.695  -1.765  0.00  0.00    +0.040 C 
ATOM      9  C   LIG    1       -5.073   3.517  -0.280  0.00  0.00    +0.010 C 
ATOM     10  C   LIG    1       -6.075   2.374  -0.105  0.00  0.00    +0.010 C 
ATOM     11  C   LIG    1       -5.878   1.726   1.269  0.00  0.00    +0.310 C 
ATOM     12  H   LIG    1       -2.501   1.894  -0.178  0.00  0.00    +0.440 HD
ATOM     13  O   LIG    1       -3.960  -1.378   1.829  0.00  0.00    -0.920 OA
ATOM     14  N   LIG    1       -5.578   0.292   1.080  0.00  0.00    -1.110 NA
ATOM     15  H   LIG    1       -6.286  -0.361   0.951  0.00  0.00    +0.430 HD
ENDROOT
BRANCH   5  16
ATOM     16  C   LIG    1       -0.757   1.932  -1.230  0.00  0.00    +0.290 C 
BRANCH  16  17
ATOM     17  C   LIG    1       -0.663   3.453  -1.089  0.00  0.00    +0.150 C 
ATOM     18  C   LIG    1        0.800   3.887  -1.209  0.00  0.00    +0.010 C 
ATOM     19  C   LIG    1        0.892   5.403  -1.008  0.00  0.00    +0.030 C 
ATOM     20  C   LIG    1        0.288   5.764   0.353  0.00  0.00    +0.000 C 
ATOM     21  C   LIG    1       -1.156   5.257   0.412  0.00  0.00    +0.230 C 
ATOM     22  O   LIG    1       -1.173   3.846   0.186  0.00  0.00    -0.380 OA
ENDBRANCH  16  17
ENDBRANCH   5  16
TORSDOF 2
