REMARK  Name = ZINCb80000002ydu.0
REMARK                            x       y       z     vdW  Elec       q    Type
REMARK                         _______ _______ _______ _____ _____    ______ ____
ROOT
ATOM      1  C   LIG    1       -4.361   0.910  -1.018  0.00  0.00    +0.160 A 
ATOM      2  N   LIG    1       -3.866  -0.265  -0.751  0.00  0.00    -0.260 NA
ATOM      3  N   LIG    1       -2.581  -0.198  -0.759  0.00  0.00    -0.280 NA
ATOM      4  C   LIG    1       -2.213   1.024  -1.022  0.00  0.00    +0.180 A 
ATOM      5  O   LIG    1       -3.329   1.752  -1.195  0.00  0.00    -0.220 OA
ENDROOT
BRANCH   4   6
ATOM      6  C   LIG    1       -0.795   1.527  -1.120  0.00  0.00    +0.300 C 
ATOM      7  C   LIG    1       -0.175   1.052  -2.435  0.00  0.00    +0.030 C 
BRANCH   6   8
ATOM      8  N   LIG    1       -0.012   1.005   0.008  0.00  0.00    -0.840 NA
ATOM      9  H   LIG    1        0.925   1.379   0.001  0.00  0.00    +0.360 HD
ATOM     10  H   LIG    1        0.002  -0.004   0.002  0.00  0.00    +0.360 HD
ENDBRANCH   6   8
ENDBRANCH   4   6
BRANCH   1  11
ATOM     11  C   LIG    1       -5.824   1.262  -1.111  0.00  0.00    +0.350 C 
BRANCH  11  13
ATOM     12  C   LIG    1       -7.683   2.022   0.198  0.00  0.00    +0.230 C 
ATOM     13  O   LIG    1       -6.299   1.665   0.175  0.00  0.00    -0.380 OA
ENDBRANCH  11  13
ENDBRANCH   1  11
TORSDOF 4
