REMARK  Name = ZINCrH000004rvuM.0
REMARK                            x       y       z     vdW  Elec       q    Type
REMARK                         _______ _______ _______ _____ _____    ______ ____
ROOT
ATOM      1  C   LIG    1        2.326   1.966  -0.342  0.00  0.00    +0.070 C 
ENDROOT
BRANCH   1   2
ATOM      2  C   LIG    1        2.538   3.436  -0.600  0.00  0.00    +0.520 C 
ATOM      3  N   LIG    1        3.761   3.892  -0.934  0.00  0.00    -0.670 N 
ATOM      4  H   LIG    1        4.490   3.268  -1.075  0.00  0.00    +0.410 HD
ATOM      5  O   LIG    1        1.607   4.208  -0.506  0.00  0.00    -0.510 OA
BRANCH   3   6
ATOM      6  C   LIG    1        3.979   5.266  -1.078  0.00  0.00    +0.140 A 
ATOM      7  C   LIG    1        2.992   6.060  -1.617  0.00  0.00    +0.030 A 
ATOM      8  C   LIG    1        3.213   7.440  -1.756  0.00  0.00    -0.040 A 
ATOM      9  C   LIG    1        2.228   8.285  -2.296  0.00  0.00    +0.020 A 
ATOM     10  C   LIG    1        2.478   9.617  -2.422  0.00  0.00    +0.010 A 
ATOM     11  C   LIG    1        3.698  10.158  -2.022  0.00  0.00    +0.000 A 
ATOM     12  C   LIG    1        4.675   9.371  -1.494  0.00  0.00    +0.030 A 
ATOM     13  C   LIG    1        4.454   7.992  -1.348  0.00  0.00    -0.060 A 
ATOM     14  C   LIG    1        5.442   7.150  -0.806  0.00  0.00    +0.040 A 
ATOM     15  C   LIG    1        5.202   5.819  -0.677  0.00  0.00    +0.000 A 
ENDBRANCH   3   6
ENDBRANCH   1   2
BRANCH   1  16
ATOM     16  C   LIG    1        0.860   1.717   0.016  0.00  0.00    +0.300 C 
BRANCH  16  17
ATOM     17  N   LIG    1        0.654   0.288   0.267  0.00  0.00    -1.120 NA
ATOM     18  H   LIG    1        1.321  -0.356  -0.021  0.00  0.00    +0.420 HD
BRANCH  17  19
ATOM     19  S   LIG    1       -0.715  -0.229   1.041  0.00  0.00    +2.700 S 
ATOM     20  O   LIG    1       -0.842   0.571   2.209  0.00  0.00    -0.960 OA
ATOM     21  O   LIG    1       -0.646  -1.647   1.075  0.00  0.00    -0.950 OA
BRANCH  19  26
ATOM     22  C   LIG    1       -5.400   1.167  -2.496  0.00  0.00    +0.090 C 
ATOM     23  C   LIG    1       -4.230   0.818  -1.612  0.00  0.00    -0.020 A 
ATOM     24  C   LIG    1       -4.093   1.423  -0.377  0.00  0.00    -0.020 A 
ATOM     25  C   LIG    1       -3.022   1.099   0.435  0.00  0.00    +0.130 A 
ATOM     26  C   LIG    1       -2.083   0.179   0.008  0.00  0.00    -0.690 A 
ATOM     27  C   LIG    1       -2.221  -0.426  -1.228  0.00  0.00    +0.020 A 
ATOM     28  C   LIG    1       -1.201  -1.434  -1.691  0.00  0.00    +0.110 C 
ATOM     29  C   LIG    1       -3.295  -0.106  -2.037  0.00  0.00    -0.020 A 
ENDBRANCH  19  26
ENDBRANCH  17  19
ENDBRANCH  16  17
ENDBRANCH   1  16
TORSDOF 6
