REMARK  Name = ZINCvU0000000Dcu.0
REMARK                            x       y       z     vdW  Elec       q    Type
REMARK                         _______ _______ _______ _____ _____    ______ ____
ROOT
ATOM      1  C   LIG    1        0.076   1.503   0.034  0.00  0.00    +0.290 C 
ENDROOT
BRANCH   1   2
ATOM      2  C   LIG    1        0.071  -0.004   0.019  0.00  0.00    -0.090 A 
ATOM      3  C   LIG    1        1.036  -0.704   0.721  0.00  0.00    +0.040 A 
ATOM      4  C   LIG    1        1.031  -2.085   0.713  0.00  0.00    +0.000 A 
ATOM      5  C   LIG    1        0.063  -2.770  -0.009  0.00  0.00    +0.090 A 
ATOM      6  C   LIG    1       -0.900  -2.065  -0.715  0.00  0.00    +0.010 A 
ATOM      7  C   LIG    1       -0.894  -0.684  -0.700  0.00  0.00    +0.040 A 
BRANCH   5   8
ATOM      8  O   LIG    1        0.059  -4.129  -0.022  0.00  0.00    -0.260 OA
BRANCH   8   9
ATOM      9  C   LIG    1       -0.231  -4.778   1.136  0.00  0.00    +0.120 A 
ATOM     10  C   LIG    1       -0.630  -4.059   2.254  0.00  0.00    -0.060 A 
ATOM     11  C   LIG    1       -0.929  -4.721   3.429  0.00  0.00    +0.050 A 
ATOM     12  C   LIG    1       -0.821  -6.098   3.494  0.00  0.00    -0.020 A 
ATOM     13  C   LIG    1       -0.419  -6.816   2.383  0.00  0.00    +0.050 A 
ATOM     14  C   LIG    1       -0.124  -6.159   1.205  0.00  0.00    -0.020 A 
ENDBRANCH   8   9
ENDBRANCH   5   8
ENDBRANCH   1   2
BRANCH   1  15
ATOM     15  N   LIG    1        1.456   1.988  -0.046  0.00  0.00    -0.740 N 
ATOM     16  H   LIG    1        2.186   1.426   0.259  0.00  0.00    +0.400 HD
BRANCH  15  17
ATOM     17  C   LIG    1        1.723   3.269  -0.566  0.00  0.00    +0.070 A 
ATOM     18  C   LIG    1        2.948   3.838  -0.696  0.00  0.00    +0.140 A 
ATOM     19  N   LIG    1        2.770   5.073  -1.238  0.00  0.00    -0.370 N 
ATOM     20  N   LIG    1        1.397   5.258  -1.443  0.00  0.00    -0.270 NA
ATOM     21  C   LIG    1        0.772   4.179  -1.047  0.00  0.00    +0.190 A 
BRANCH  19  22
ATOM     22  C   LIG    1        3.828   6.037  -1.552  0.00  0.00    +0.320 C 
BRANCH  22  23
ATOM     23  C   LIG    1        3.726   6.444  -3.024  0.00  0.00    +0.330 C 
BRANCH  23  24
ATOM     24  N   LIG    1        4.783   7.409  -3.338  0.00  0.00    -0.630 N 
ATOM     25  C   LIG    1        6.131   7.073  -3.821  0.00  0.00    +0.250 C 
ATOM     26  C   LIG    1        6.814   8.444  -3.985  0.00  0.00    +0.260 C 
ATOM     27  O   LIG    1        5.790   9.399  -3.582  0.00  0.00    -0.330 OA
ATOM     28  C   LIG    1        4.677   8.741  -3.238  0.00  0.00    +0.640 C 
ATOM     29  O   LIG    1        3.665   9.300  -2.865  0.00  0.00    -0.510 OA
ENDBRANCH  23  24
ENDBRANCH  22  23
ENDBRANCH  19  22
ENDBRANCH  15  17
ENDBRANCH   1  15
BRANCH   1  30
ATOM     30  C   LIG    1       -0.566   2.003   1.330  0.00  0.00    +0.010 C 
BRANCH  30  32
ATOM     31  C   LIG    1       -1.316   4.028   2.587  0.00  0.00    +0.000 C 
ATOM     32  C   LIG    1       -0.674   3.528   1.291  0.00  0.00    +0.000 C 
ENDBRANCH  30  32
ENDBRANCH   1  30
TORSDOF 10
