REMARK  Name = ZINCrg00000SjSG2.0
REMARK                            x       y       z     vdW  Elec       q    Type
REMARK                         _______ _______ _______ _____ _____    ______ ____
ROOT
ATOM      1  C   LIG    1       -2.980   2.860   0.667  0.00  0.00    +0.110 C 
ATOM      2  C   LIG    1       -2.962   1.502  -0.048  0.00  0.00    +0.330 C 
ATOM      3  N   LIG    1       -1.574   1.788  -0.444  0.00  0.00    -0.640 N 
ATOM      4  C   LIG    1       -0.481   1.059  -0.743  0.00  0.00    +0.580 C 
ATOM      5  O   LIG    1       -0.533  -0.153  -0.713  0.00  0.00    -0.530 OA
ATOM      6  C   LIG    1       -1.903   3.219  -0.362  0.00  0.00    +0.320 C 
ENDROOT
BRANCH   1   7
ATOM      7  C   LIG    1       -4.269   3.624   0.509  0.00  0.00    +0.540 C 
ATOM      8  O   LIG    1       -4.966   3.443  -0.467  0.00  0.00    -0.530 OA
ATOM      9  N   LIG    1       -4.648   4.509   1.453  0.00  0.00    -0.840 N 
ATOM     10  H   LIG    1       -5.511   4.947   1.388  0.00  0.00    +0.410 HD
ATOM     11  H   LIG    1       -4.058   4.707   2.197  0.00  0.00    +0.400 HD
ENDBRANCH   1   7
BRANCH   1  13
ATOM     12  C   LIG    1       -3.190   2.134   2.984  0.00  0.00    +0.540 C 
ATOM     13  N   LIG    1       -2.498   2.817   2.050  0.00  0.00    -0.600 N 
ATOM     14  C   LIG    1       -1.264   3.516   2.418  0.00  0.00    +0.290 C 
ATOM     15  O   LIG    1       -4.163   1.485   2.664  0.00  0.00    -0.490 OA
BRANCH  12  18
ATOM     16  C   LIG    1       -3.581   1.381   5.438  0.00  0.00    +0.030 C 
ATOM     17  C   LIG    1       -2.189   0.891   5.032  0.00  0.00    +0.070 C 
ATOM     18  C   LIG    1       -2.754   2.177   4.426  0.00  0.00    -0.070 C 
BRANCH  16  22
ATOM     19  C   LIG    1       -6.614   0.735   3.041  0.00  0.00    +0.060 C 
ATOM     20  C   LIG    1       -5.894   1.399   4.216  0.00  0.00    +0.000 C 
ATOM     21  C   LIG    1       -6.129   0.815   5.611  0.00  0.00    -0.010 C 
ATOM     22  C   LIG    1       -4.786   0.602   4.908  0.00  0.00    -0.010 C 
ENDBRANCH  16  22
ENDBRANCH  12  18
ENDBRANCH   1  13
BRANCH   4  23
ATOM     23  C   LIG    1        0.804   1.749  -1.122  0.00  0.00    -0.070 C 
ATOM     24  C   LIG    1        2.038   0.872  -1.343  0.00  0.00    +0.080 C 
ATOM     25  C   LIG    1        1.337   1.522  -2.538  0.00  0.00    +0.040 C 
BRANCH  25  26
ATOM     26  C   LIG    1        0.525   0.613  -3.461  0.00  0.00    -0.020 C 
ATOM     27  C   LIG    1       -0.086   1.243  -4.715  0.00  0.00    +0.010 C 
ATOM     28  C   LIG    1        1.112   0.299  -4.839  0.00  0.00    -0.040 C 
ATOM     29  C   LIG    1        2.466   0.919  -5.188  0.00  0.00    +0.050 C 
ENDBRANCH  25  26
ENDBRANCH   4  23
TORSDOF 6
