REMARK  Name = ZINCvU00000004sY.0
REMARK                            x       y       z     vdW  Elec       q    Type
REMARK                         _______ _______ _______ _____ _____    ______ ____
ROOT
ATOM      1  N   LIG    1        2.415   5.363   1.520  0.00  0.00    -0.720 N 
ATOM      2  H   LIG    1        2.268   4.761   2.267  0.00  0.00    +0.410 HD
ATOM      3  C   LIG    1        2.636   6.673   1.744  0.00  0.00    +0.520 C 
ATOM      4  O   LIG    1        2.820   7.425   0.810  0.00  0.00    -0.510 OA
ENDROOT
BRANCH   1   5
ATOM      5  C   LIG    1        2.395   4.847   0.149  0.00  0.00    +0.370 C 
BRANCH   5   9
ATOM      6  C   LIG    1        2.140   0.855   0.239  0.00  0.00    -0.120 A 
ATOM      7  C   LIG    1        0.918   1.418   0.161  0.00  0.00    +0.050 A 
ATOM      8  C   LIG    1        0.921   2.799   0.131  0.00  0.00    +0.050 A 
ATOM      9  C   LIG    1        2.130   3.363   0.174  0.00  0.00    -0.210 A 
ATOM     10  S   LIG    1        3.366   2.116   0.266  0.00  0.00    +0.150 S 
BRANCH   6  14
ATOM     11  C   LIG    1        0.864  -3.920   0.298  0.00  0.00    +0.180 C 
ATOM     12  C   LIG    1        1.810  -2.747   0.314  0.00  0.00    +0.060 A 
ATOM     13  N   LIG    1        1.448  -1.512   0.266  0.00  0.00    -0.460 NA
ATOM     14  C   LIG    1        2.409  -0.599   0.289  0.00  0.00    +0.140 A 
ATOM     15  C   LIG    1        3.655  -1.114   0.357  0.00  0.00    -0.080 A 
ATOM     16  S   LIG    1        3.512  -2.869   0.400  0.00  0.00    +0.150 S 
ENDBRANCH   6  14
ENDBRANCH   5   9
ENDBRANCH   1   5
BRANCH   3  17
ATOM     17  C   LIG    1        2.656   7.204   3.154  0.00  0.00    +0.240 C 
BRANCH  17  18
ATOM     18  O   LIG    1        2.908   8.611   3.130  0.00  0.00    -0.280 OA
BRANCH  18  19
ATOM     19  C   LIG    1        2.958   9.248   4.326  0.00  0.00    +0.160 A 
ATOM     20  C   LIG    1        2.762   8.532   5.502  0.00  0.00    -0.080 A 
ATOM     21  C   LIG    1        2.817   9.174   6.719  0.00  0.00    +0.100 A 
ATOM     22  C   LIG    1        3.059  10.550   6.770  0.00  0.00    -0.200 A 
ATOM     23  C   LIG    1        3.250  11.267   5.585  0.00  0.00    +0.120 A 
ATOM     24  C   LIG    1        3.199  10.617   4.373  0.00  0.00    -0.020 A 
BRANCH  22  25
ATOM     25  C   LIG    1        3.112  11.243   8.071  0.00  0.00    +0.440 C 
ATOM     26  O   LIG    1        3.457  12.408   8.126  0.00  0.00    -0.450 OA
BRANCH  25  27
ATOM     27  C   LIG    1        2.746  10.522   9.308  0.00  0.00    -0.150 A 
ATOM     28  C   LIG    1        1.742   9.551   9.283  0.00  0.00    +0.040 A 
ATOM     29  C   LIG    1        1.409   8.878  10.440  0.00  0.00    +0.000 A 
ATOM     30  C   LIG    1        2.059   9.171  11.626  0.00  0.00    +0.040 A 
ATOM     31  C   LIG    1        3.050  10.136  11.659  0.00  0.00    +0.000 A 
ATOM     32  C   LIG    1        3.397  10.813  10.509  0.00  0.00    +0.060 A 
ENDBRANCH  25  27
ENDBRANCH  22  25
ENDBRANCH  18  19
ENDBRANCH  17  18
ENDBRANCH   3  17
TORSDOF 8
