REMARK  Name = ZINCpe000000VVpo.0
REMARK                            x       y       z     vdW  Elec       q    Type
REMARK                         _______ _______ _______ _____ _____    ______ ____
ROOT
ATOM      1  N   LIG    1        3.252   6.827   0.518  0.00  0.00    -0.700 N 
ATOM      2  H   LIG    1        3.743   5.995   0.435  0.00  0.00    +0.410 HD
ATOM      3  C   LIG    1        1.904   6.814   0.539  0.00  0.00    +0.620 C 
ATOM      4  O   LIG    1        1.288   7.857   0.643  0.00  0.00    -0.520 OA
ENDROOT
BRANCH   3   5
ATOM      5  C   LIG    1        1.176   5.533   0.435  0.00  0.00    -0.060 A 
ATOM      6  N   LIG    1        1.721   4.336   0.322  0.00  0.00    -0.190 NA
ATOM      7  N   LIG    1        0.793   3.448   0.251  0.00  0.00    -0.150 N 
ATOM      8  N   LIG    1       -0.452   4.086   0.329  0.00  0.00    -0.270 NA
ATOM      9  C   LIG    1       -0.221   5.373   0.443  0.00  0.00    +0.100 A 
ATOM     10  C   LIG    1       -1.252   6.466   0.560  0.00  0.00    +0.190 C 
BRANCH   7  11
ATOM     11  C   LIG    1        0.994   2.067   0.122  0.00  0.00    +0.130 A 
ATOM     12  C   LIG    1        1.917   1.420   0.933  0.00  0.00    +0.040 A 
ATOM     13  C   LIG    1        2.113   0.059   0.804  0.00  0.00    +0.030 A 
ATOM     14  C   LIG    1        1.391  -0.660  -0.131  0.00  0.00    -0.060 A 
ATOM     15  C   LIG    1        0.471  -0.018  -0.940  0.00  0.00    +0.030 A 
ATOM     16  C   LIG    1        1.608  -2.145  -0.270  0.00  0.00    +0.100 C 
ATOM     17  C   LIG    1        0.270   1.342  -0.816  0.00  0.00    -0.050 A 
ATOM     18  C   LIG    1       -0.729   2.041  -1.702  0.00  0.00    +0.100 C 
ENDBRANCH   7  11
ENDBRANCH   3   5
BRANCH   1  19
ATOM     19  C   LIG    1        3.974   8.097   0.622  0.00  0.00    +0.250 C 
BRANCH  19  20
ATOM     20  C   LIG    1        4.091   8.721  -0.745  0.00  0.00    +0.510 C 
ATOM     21  O   LIG    1        3.618   8.160  -1.710  0.00  0.00    -0.530 OA
ATOM     22  N   LIG    1        4.722   9.903  -0.895  0.00  0.00    -0.850 N 
ATOM     23  H   LIG    1        4.798  10.304  -1.774  0.00  0.00    +0.410 HD
ATOM     24  H   LIG    1        5.101  10.351  -0.123  0.00  0.00    +0.400 HD
ENDBRANCH  19  20
BRANCH  19  25
ATOM     25  C   LIG    1        5.373   7.844   1.188  0.00  0.00    +0.070 C 
BRANCH  25  26
ATOM     26  C   LIG    1        5.255   7.327   2.624  0.00  0.00    +0.170 C 
BRANCH  26  28
ATOM     27  C   LIG    1        6.565   6.603   4.496  0.00  0.00    +0.200 C 
ATOM     28  O   LIG    1        6.562   7.090   3.153  0.00  0.00    -0.390 OA
ENDBRANCH  26  28
ENDBRANCH  25  26
ENDBRANCH  19  25
ENDBRANCH   1  19
TORSDOF 7
