REMARK  Name = ZINCvU0000000865.0
REMARK                            x       y       z     vdW  Elec       q    Type
REMARK                         _______ _______ _______ _____ _____    ______ ____
ROOT
ATOM      1  C   LIG    1        1.182   2.118  -0.008  0.00  0.00    +0.170 A 
ATOM      2  C   LIG    1        1.161   3.505  -0.008  0.00  0.00    +0.100 A 
ATOM      3  C   LIG    1       -0.047   4.178  -0.004  0.00  0.00    -0.150 A 
ATOM      4  C   LIG    1       -1.236   3.472   0.001  0.00  0.00    +0.070 A 
ATOM      5  C   LIG    1       -1.224   2.089  -0.004  0.00  0.00    +0.060 A 
ATOM      6  C   LIG    1       -0.017   1.406  -0.004  0.00  0.00    +0.110 A 
ENDROOT
BRANCH   6   7
ATOM      7  N   LIG    1       -0.003   0.004  -0.004  0.00  0.00    -0.460 N 
ATOM      8  C   LIG    1       -0.468  -0.808  -0.994  0.00  0.00    +0.490 A 
ATOM      9  N   LIG    1       -0.294  -2.056  -0.667  0.00  0.00    -0.480 NA
ATOM     10  C   LIG    1        0.285  -2.131   0.560  0.00  0.00    +0.050 A 
ATOM     11  C   LIG    1        0.680  -3.195   1.374  0.00  0.00    +0.070 A 
ATOM     12  C   LIG    1        1.254  -2.941   2.599  0.00  0.00    +0.010 A 
ATOM     13  C   LIG    1        1.444  -1.637   3.032  0.00  0.00    +0.040 A 
ATOM     14  C   LIG    1        1.060  -0.575   2.241  0.00  0.00    +0.010 A 
ATOM     15  C   LIG    1        0.480  -0.811   1.003  0.00  0.00    +0.050 A 
ENDBRANCH   6   7
BRANCH   1  17
ATOM     16  C   LIG    1        3.511   2.030   0.474  0.00  0.00    +0.570 C 
ATOM     17  N   LIG    1        2.404   1.435  -0.012  0.00  0.00    -0.660 N 
ATOM     18  H   LIG    1        2.454   0.533  -0.365  0.00  0.00    +0.420 HD
ATOM     19  O   LIG    1        3.430   3.120   1.008  0.00  0.00    -0.510 OA
BRANCH  16  24
ATOM     20  C   LIG    1        7.197   1.337   0.750  0.00  0.00    +0.210 A 
ATOM     21  C   LIG    1        7.280   0.091   0.139  0.00  0.00    -0.040 A 
ATOM     22  C   LIG    1        6.143  -0.517  -0.359  0.00  0.00    +0.060 A 
ATOM     23  C   LIG    1        4.917   0.105  -0.248  0.00  0.00    -0.020 A 
ATOM     24  C   LIG    1        4.823   1.359   0.359  0.00  0.00    -0.090 A 
ATOM     25  C   LIG    1        5.970   1.973   0.861  0.00  0.00    +0.010 A 
BRANCH  20  27
ATOM     26  C   LIG    1        8.260   3.260   1.896  0.00  0.00    +0.280 C 
ATOM     27  N   LIG    1        8.348   1.947   1.252  0.00  0.00    -0.640 N 
ATOM     28  C   LIG    1        9.645   1.275   1.134  0.00  0.00    +0.280 C 
ENDBRANCH  20  27
ENDBRANCH  16  24
ENDBRANCH   1  17
BRANCH   3  29
ATOM     29  C   LIG    1       -0.067   5.684  -0.003  0.00  0.00    +0.510 C 
ATOM     30  F   LIG    1        1.071   6.166   0.652  0.00  0.00    -0.170 F 
ATOM     31  F   LIG    1       -1.214   6.135   0.661  0.00  0.00    -0.170 F 
ATOM     32  F   LIG    1       -0.079   6.151  -1.322  0.00  0.00    -0.170 F 
ENDBRANCH   3  29
TORSDOF 5
