REMARK  Name = ZINCpe000000Uxls.1
REMARK                            x       y       z     vdW  Elec       q    Type
REMARK                         _______ _______ _______ _____ _____    ______ ____
ROOT
ATOM      1  C   LIG    1       -1.026   6.670   0.551  0.00  0.00    +0.570 C 
ATOM      2  N   LIG    1        0.212   6.287   0.921  0.00  0.00    -0.720 N 
ATOM      3  H   LIG    1        0.533   6.481   1.816  0.00  0.00    +0.400 HD
ATOM      4  O   LIG    1       -1.428   6.427  -0.570  0.00  0.00    -0.480 OA
ENDROOT
BRANCH   2   5
ATOM      5  C   LIG    1        1.074   5.577  -0.028  0.00  0.00    +0.270 C 
ATOM      6  C   LIG    1        2.539   5.809   0.347  0.00  0.00    +0.040 C 
ATOM      7  C   LIG    1        3.408   4.849  -0.474  0.00  0.00    +0.050 C 
ATOM      8  C   LIG    1        3.129   3.419  -0.004  0.00  0.00    +0.270 C 
ATOM      9  N   LIG    1        1.695   3.157   0.002  0.00  0.00    -0.550 N 
ATOM     10  C   LIG    1        0.761   4.109   0.017  0.00  0.00    +0.500 C 
ATOM     11  O   LIG    1       -0.402   3.771   0.067  0.00  0.00    -0.500 OA
BRANCH   9  12
ATOM     12  C   LIG    1        1.273   1.828  -0.000  0.00  0.00    +0.300 A 
ATOM     13  C   LIG    1        1.085   1.041   1.095  0.00  0.00    -0.100 A 
ATOM     14  C   LIG    1        0.661  -0.215   0.652  0.00  0.00    +0.240 A 
ATOM     15  N   LIG    1        0.595  -0.190  -0.655  0.00  0.00    -0.280 NA
ATOM     16  N   LIG    1        0.976   1.086  -1.091  0.00  0.00    -0.370 N 
ATOM     17  C   LIG    1        1.040   1.536  -2.484  0.00  0.00    +0.350 C 
ENDBRANCH   9  12
ENDBRANCH   2   5
BRANCH   1  23
ATOM     18  C   LIG    1       -3.190   7.791   1.133  0.00  0.00    +0.200 A 
ATOM     19  C   LIG    1       -3.965   8.463   2.079  0.00  0.00    -0.070 A 
ATOM     20  C   LIG    1       -3.441   8.702   3.330  0.00  0.00    +0.290 A 
ATOM     21  N   LIG    1       -2.220   8.307   3.649  0.00  0.00    -0.490 NA
ATOM     22  C   LIG    1       -1.448   7.665   2.798  0.00  0.00    +0.300 A 
ATOM     23  C   LIG    1       -1.893   7.384   1.506  0.00  0.00    -0.170 A 
BRANCH  18  25
ATOM     24  C   LIG    1       -4.892   6.702  -0.070  0.00  0.00    +0.210 C 
ATOM     25  N   LIG    1       -3.681   7.530  -0.135  0.00  0.00    -0.500 N 
ATOM     26  C   LIG    1       -3.934   8.778  -0.868  0.00  0.00    +0.210 C 
ENDBRANCH  18  25
ENDBRANCH   1  23
TORSDOF 4
