REMARK  Name = ZINCqH0000004RHg.0
REMARK                            x       y       z     vdW  Elec       q    Type
REMARK                         _______ _______ _______ _____ _____    ______ ____
ROOT
ATOM      1  N   LIG    1       -1.320  -0.403   0.013  0.00  0.00    -0.480 N 
ATOM      2  C   LIG    1        0.002  -0.004   0.002  0.00  0.00    +0.100 A 
ATOM      3  C   LIG    1        1.215  -0.678  -0.014  0.00  0.00    +0.010 A 
ATOM      4  C   LIG    1        2.394   0.037  -0.022  0.00  0.00    +0.130 A 
ATOM      5  C   LIG    1        2.375   1.425  -0.014  0.00  0.00    -0.680 A 
ATOM      6  C   LIG    1        1.190   2.105   0.002  0.00  0.00    +0.210 A 
ATOM      7  C   LIG    1       -0.017   1.401   0.010  0.00  0.00    +0.020 A 
ATOM      8  N   LIG    1       -1.321   1.779   0.030  0.00  0.00    -0.460 NA
ATOM      9  C   LIG    1       -2.082   0.724   0.027  0.00  0.00    +0.290 A 
ENDROOT
BRANCH   5  10
ATOM     10  S   LIG    1        3.893   2.318  -0.025  0.00  0.00    +2.700 S 
ATOM     11  O   LIG    1        4.878   1.442   0.505  0.00  0.00    -0.950 OA
ATOM     12  O   LIG    1        3.611   3.596   0.529  0.00  0.00    -0.950 OA
BRANCH  10  13
ATOM     13  N   LIG    1        4.300   2.575  -1.610  0.00  0.00    -1.010 NA
ATOM     14  C   LIG    1        5.123   1.595  -2.323  0.00  0.00    +0.300 C 
ATOM     15  C   LIG    1        3.836   3.782  -2.298  0.00  0.00    +0.300 C 
ENDBRANCH  10  13
ENDBRANCH   5  10
BRANCH   1  17
ATOM     16  C   LIG    1       -1.966  -2.272   1.452  0.00  0.00    +0.040 C 
ATOM     17  C   LIG    1       -1.810  -1.784   0.010  0.00  0.00    +0.300 C 
ENDBRANCH   1  17
BRANCH   9  18
ATOM     18  C   LIG    1       -3.589   0.746   0.042  0.00  0.00    +0.200 C 
BRANCH  18  19
ATOM     19  S   LIG    1       -4.176   0.746   1.759  0.00  0.00    -0.060 S 
BRANCH  19  20
ATOM     20  C   LIG    1       -5.929   0.772   1.578  0.00  0.00    -0.100 A 
ATOM     21  C   LIG    1       -6.497   0.793   0.311  0.00  0.00    +0.020 A 
ATOM     22  C   LIG    1       -7.871   0.808   0.172  0.00  0.00    +0.010 A 
ATOM     23  C   LIG    1       -8.682   0.815   1.294  0.00  0.00    +0.100 A 
ATOM     24  C   LIG    1       -8.117   0.800   2.559  0.00  0.00    +0.010 A 
ATOM     25  F   LIG    1      -10.025   0.836   1.156  0.00  0.00    -0.140 F 
ATOM     26  C   LIG    1       -6.744   0.779   2.703  0.00  0.00    +0.070 A 
ENDBRANCH  19  20
ENDBRANCH  18  19
ENDBRANCH   9  18
TORSDOF 6
