REMARK  Name = ZINCqH00000k5lyN.0
REMARK                            x       y       z     vdW  Elec       q    Type
REMARK                         _______ _______ _______ _____ _____    ______ ____
ROOT
ATOM      1  C   LIG    1       -4.153  -5.950   0.006  0.00  0.00    -0.200 A 
ATOM      2  C   LIG    1       -3.884  -4.610   0.016  0.00  0.00    +0.040 A 
ATOM      3  S   LIG    1       -5.327  -3.706   0.035  0.00  0.00    +0.300 S 
ATOM      4  C   LIG    1       -6.329  -5.149   0.036  0.00  0.00    -0.240 A 
ATOM      5  C   LIG    1       -7.845  -5.152   0.051  0.00  0.00    +0.120 C 
ATOM      6  C   LIG    1       -8.339  -6.540  -0.366  0.00  0.00    +0.020 C 
ATOM      7  C   LIG    1       -7.607  -7.600   0.462  0.00  0.00    +0.020 C 
ATOM      8  C   LIG    1       -6.143  -7.661   0.020  0.00  0.00    +0.100 C 
ATOM      9  C   LIG    1       -5.572  -6.252   0.023  0.00  0.00    -0.050 A 
ENDROOT
BRANCH   1  12
ATOM     10  N   LIG    1       -2.644  -7.442  -1.194  0.00  0.00    -0.720 N 
ATOM     11  H   LIG    1       -2.999  -7.093  -2.026  0.00  0.00    +0.400 HD
ATOM     12  C   LIG    1       -3.110  -6.980  -0.017  0.00  0.00    +0.580 C 
ATOM     13  O   LIG    1       -2.665  -7.419   1.028  0.00  0.00    -0.530 OA
BRANCH  10  14
ATOM     14  C   LIG    1       -1.602  -8.472  -1.217  0.00  0.00    +0.250 C 
BRANCH  14  16
ATOM     15  C   LIG    1       -0.168  -9.891  -2.690  0.00  0.00    +0.030 C 
ATOM     16  C   LIG    1       -1.256  -8.815  -2.667  0.00  0.00    +0.000 C 
ENDBRANCH  14  16
ENDBRANCH  10  14
ENDBRANCH   1  12
BRANCH   2  17
ATOM     17  N   LIG    1       -2.610  -4.061   0.006  0.00  0.00    -0.630 N 
ATOM     18  H   LIG    1       -1.833  -4.641  -0.005  0.00  0.00    +0.420 HD
ATOM     19  C   LIG    1       -2.453  -2.723   0.012  0.00  0.00    +0.510 C 
ATOM     20  O   LIG    1       -3.426  -1.998   0.025  0.00  0.00    -0.470 OA
BRANCH  19  21
ATOM     21  C   LIG    1       -1.069  -2.126   0.001  0.00  0.00    +0.250 C 
BRANCH  21  22
ATOM     22  O   LIG    1       -1.165  -0.701   0.010  0.00  0.00    -0.290 OA
BRANCH  22  23
ATOM     23  C   LIG    1        0.002  -0.004   0.002  0.00  0.00    +0.120 A 
ATOM     24  C   LIG    1       -0.017   1.383   0.010  0.00  0.00    -0.010 A 
ATOM     25  C   LIG    1        1.171   2.089   0.002  0.00  0.00    +0.050 A 
ATOM     26  C   LIG    1        2.377   1.414  -0.013  0.00  0.00    -0.020 A 
ATOM     27  C   LIG    1        2.399   0.031  -0.021  0.00  0.00    +0.050 A 
ATOM     28  C   LIG    1        1.214  -0.679  -0.013  0.00  0.00    -0.080 A 
ENDBRANCH  22  23
ENDBRANCH  21  22
ENDBRANCH  19  21
ENDBRANCH   2  17
TORSDOF 7
