REMARK  Name = ZINCrH00000No4JS.0
REMARK                            x       y       z     vdW  Elec       q    Type
REMARK                         _______ _______ _______ _____ _____    ______ ____
ROOT
ATOM      1  N   LIG    1       -0.776  -2.556  -1.119  0.00  0.00    -0.560 N 
ATOM      2  C   LIG    1       -1.539  -2.289  -2.209  0.00  0.00    +0.450 C 
ATOM      3  S   LIG    1       -3.149  -2.980  -1.981  0.00  0.00    -0.120 S 
ATOM      4  C   LIG    1       -2.828  -3.682  -0.333  0.00  0.00    +0.130 C 
ATOM      5  N   LIG    1       -1.141  -1.622  -3.269  0.00  0.00    -0.520 NA
ATOM      6  C   LIG    1       -1.370  -3.311  -0.039  0.00  0.00    +0.450 C 
ENDROOT
BRANCH   6   7
ATOM      7  C   LIG    1       -1.322  -2.485   1.221  0.00  0.00    -0.010 A 
ATOM      8  C   LIG    1       -1.231  -2.984   2.461  0.00  0.00    -0.020 A 
ATOM      9  C   LIG    1       -1.214  -1.828   3.366  0.00  0.00    -0.140 A 
ATOM     10  C   LIG    1       -1.135  -1.675   4.749  0.00  0.00    +0.060 A 
ATOM     11  C   LIG    1       -1.145  -0.410   5.295  0.00  0.00    -0.010 A 
ATOM     12  C   LIG    1       -1.232   0.705   4.475  0.00  0.00    +0.040 A 
ATOM     13  C   LIG    1       -1.310   0.567   3.106  0.00  0.00    +0.020 A 
ATOM     14  C   LIG    1       -1.302  -0.699   2.535  0.00  0.00    +0.070 A 
ATOM     15  O   LIG    1       -1.359  -1.142   1.263  0.00  0.00    -0.130 OA
ENDBRANCH   6   7
BRANCH   5  16
ATOM     16  C   LIG    1       -2.006  -1.415  -4.311  0.00  0.00    +0.070 A 
ATOM     17  C   LIG    1       -2.111  -0.153  -4.908  0.00  0.00    +0.070 A 
ATOM     18  C   LIG    1       -2.995   0.002  -5.962  0.00  0.00    -0.010 A 
ATOM     19  C   LIG    1       -3.747  -1.082  -6.380  0.00  0.00    +0.240 A 
ATOM     20  N   LIG    1       -3.631  -2.258  -5.795  0.00  0.00    -0.460 NA
ATOM     21  C   LIG    1       -2.800  -2.458  -4.793  0.00  0.00    +0.220 A 
ENDBRANCH   5  16
BRANCH   1  22
ATOM     22  C   LIG    1        0.613  -2.097  -1.041  0.00  0.00    +0.270 C 
ATOM     23  C   LIG    1        1.415  -2.701  -2.195  0.00  0.00    +0.050 C 
BRANCH  22  24
ATOM     24  C   LIG    1        0.652  -0.570  -1.138  0.00  0.00    +0.180 C 
BRANCH  24  26
ATOM     25  C   LIG    1       -0.017   1.425   0.010  0.00  0.00    +0.190 C 
ATOM     26  O   LIG    1        0.002  -0.004   0.002  0.00  0.00    -0.370 OA
ENDBRANCH  24  26
ENDBRANCH  22  24
ENDBRANCH   1  22
BRANCH   6  27
ATOM     27  O   LIG    1       -0.614  -4.507   0.163  0.00  0.00    -0.540 OA
ATOM     28  H   LIG    1       -0.951  -5.069   0.874  0.00  0.00    +0.400 HD
ENDBRANCH   6  27
TORSDOF 6
