REMARK  Name = ZINCqH0000003JVO.0
REMARK                            x       y       z     vdW  Elec       q    Type
REMARK                         _______ _______ _______ _____ _____    ______ ____
ROOT
ATOM      1  C   LIG    1       -5.092   2.513   0.807  0.00  0.00    +0.510 C 
ATOM      2  N   LIG    1       -4.191   1.657   0.285  0.00  0.00    -0.730 N 
ATOM      3  H   LIG    1       -4.444   0.739   0.101  0.00  0.00    +0.400 HD
ATOM      4  O   LIG    1       -4.776   3.661   1.036  0.00  0.00    -0.510 OA
ENDROOT
BRANCH   2   5
ATOM      5  C   LIG    1       -2.830   2.114  -0.005  0.00  0.00    +0.290 C 
ATOM      6  C   LIG    1       -2.228   1.237  -1.102  0.00  0.00    +0.020 C 
ATOM      7  C   LIG    1       -0.741   1.587  -1.238  0.00  0.00    +0.030 C 
ATOM      8  C   LIG    1       -0.013   1.086   0.008  0.00  0.00    +0.080 C 
ATOM      9  C   LIG    1       -0.707   1.566   1.255  0.00  0.00    -0.070 A 
ATOM     10  C   LIG    1        0.005   1.526   2.448  0.00  0.00    -0.010 A 
ATOM     11  C   LIG    1       -0.576   1.948   3.626  0.00  0.00    +0.010 A 
ATOM     12  C   LIG    1       -1.877   2.414   3.621  0.00  0.00    -0.010 A 
ATOM     13  C   LIG    1       -2.585   2.457   2.438  0.00  0.00    +0.020 A 
ATOM     14  C   LIG    1       -2.001   2.035   1.250  0.00  0.00    -0.100 A 
ENDBRANCH   2   5
BRANCH   1  15
ATOM     15  C   LIG    1       -6.493   2.043   1.105  0.00  0.00    +0.210 C 
BRANCH  15  16
ATOM     16  N   LIG    1       -7.274   3.155   1.663  0.00  0.00    -0.520 NA
ATOM     17  C   LIG    1       -7.466   4.216   0.666  0.00  0.00    +0.190 C 
BRANCH  16  18
ATOM     18  C   LIG    1       -8.563   2.683   2.185  0.00  0.00    +0.220 C 
BRANCH  18  22
ATOM     19  C   LIG    1      -10.443   5.824   4.391  0.00  0.00    +0.130 A 
ATOM     20  C   LIG    1      -10.681   5.691   3.030  0.00  0.00    -0.020 A 
ATOM     21  C   LIG    1      -10.072   4.675   2.320  0.00  0.00    +0.060 A 
ATOM     22  C   LIG    1       -9.226   3.791   2.963  0.00  0.00    -0.120 A 
ATOM     23  C   LIG    1       -8.992   3.917   4.320  0.00  0.00    +0.080 A 
ATOM     24  C   LIG    1       -9.594   4.935   5.034  0.00  0.00    -0.080 A 
BRANCH  19  25
ATOM     25  O   LIG    1      -11.041   6.823   5.092  0.00  0.00    -0.320 OA
BRANCH  25  27
ATOM     26  C   LIG    1      -11.507   8.077   7.104  0.00  0.00    +0.070 C 
ATOM     27  C   LIG    1      -10.749   6.899   6.489  0.00  0.00    +0.170 C 
ENDBRANCH  25  27
ENDBRANCH  19  25
ENDBRANCH  18  22
ENDBRANCH  16  18
ENDBRANCH  15  16
ENDBRANCH   1  15
TORSDOF 7
