REMARK  Name = ZINCqH0000003Ix8.0
REMARK                            x       y       z     vdW  Elec       q    Type
REMARK                         _______ _______ _______ _____ _____    ______ ____
ROOT
ATOM      1  C   LIG    1       -0.018   1.472   0.010  0.00  0.00    +0.570 C 
ATOM      2  N   LIG    1       -1.179   2.079  -0.306  0.00  0.00    -0.610 N 
ATOM      3  C   LIG    1       -2.392   1.295  -0.582  0.00  0.00    +0.290 C 
ATOM      4  C   LIG    1       -3.444   1.606   0.488  0.00  0.00    +0.100 C 
ATOM      5  C   LIG    1       -3.510   3.101   0.694  0.00  0.00    +0.080 A 
ATOM      6  C   LIG    1       -2.543   3.961   0.310  0.00  0.00    -0.180 A 
ATOM      7  C   LIG    1       -2.976   5.290   0.685  0.00  0.00    -0.090 A 
ATOM      8  C   LIG    1       -2.395   6.554   0.545  0.00  0.00    +0.060 A 
ATOM      9  C   LIG    1       -3.108   7.623   1.029  0.00  0.00    -0.030 A 
ATOM     10  C   LIG    1       -4.346   7.469   1.631  0.00  0.00    +0.020 A 
ATOM     11  C   LIG    1       -4.945   6.230   1.784  0.00  0.00    +0.000 A 
ATOM     12  C   LIG    1       -4.245   5.127   1.300  0.00  0.00    +0.100 A 
ATOM     13  N   LIG    1       -4.535   3.793   1.286  0.00  0.00    -0.580 N 
ATOM     14  H   LIG    1       -5.345   3.395   1.642  0.00  0.00    +0.420 HD
ATOM     15  C   LIG    1       -1.270   3.548  -0.379  0.00  0.00    +0.370 C 
ATOM     16  O   LIG    1        0.957   2.138   0.301  0.00  0.00    -0.530 OA
ENDROOT
BRANCH   1  20
ATOM     17  C   LIG    1        0.235  -2.770  -0.023  0.00  0.00    +0.130 A 
ATOM     18  C   LIG    1       -0.781  -2.141   0.682  0.00  0.00    -0.040 A 
ATOM     19  C   LIG    1       -0.863  -0.765   0.700  0.00  0.00    +0.040 A 
ATOM     20  C   LIG    1        0.071  -0.002  -0.003  0.00  0.00    -0.130 A 
ATOM     21  C   LIG    1        1.095  -0.635  -0.714  0.00  0.00    +0.020 A 
ATOM     22  C   LIG    1        1.175  -2.013  -0.722  0.00  0.00    +0.100 A 
BRANCH  22  23
ATOM     23  O   LIG    1        2.169  -2.633  -1.413  0.00  0.00    -0.300 OA
ATOM     24  C   LIG    1        3.096  -1.795  -2.107  0.00  0.00    +0.240 C 
ENDBRANCH  22  23
BRANCH  17  25
ATOM     25  O   LIG    1        0.315  -4.126  -0.033  0.00  0.00    -0.300 OA
BRANCH  25  27
ATOM     26  C   LIG    1       -0.428  -6.343   0.578  0.00  0.00    +0.070 C 
ATOM     27  C   LIG    1       -0.680  -4.840   0.705  0.00  0.00    +0.170 C 
ENDBRANCH  25  27
ENDBRANCH  17  25
ENDBRANCH   1  20
TORSDOF 4
