REMARK  Name = ZINCnE000001L72A.1
REMARK                            x       y       z     vdW  Elec       q    Type
REMARK                         _______ _______ _______ _____ _____    ______ ____
ROOT
ATOM      1  N   LIG    1       -3.754   3.418   0.057  0.00  0.00    -0.740 N 
ATOM      2  H   LIG    1       -2.927   3.923   0.051  0.00  0.00    +0.390 HD
ATOM      3  C   LIG    1       -3.721   2.070   0.050  0.00  0.00    +0.560 C 
ATOM      4  O   LIG    1       -4.758   1.436   0.057  0.00  0.00    -0.510 OA
ENDROOT
BRANCH   3   5
ATOM      5  C   LIG    1       -2.425   1.364   0.033  0.00  0.00    -0.220 A 
ATOM      6  C   LIG    1       -1.246   2.091   0.031  0.00  0.00    +0.070 A 
ATOM      7  C   LIG    1       -0.017   1.415   0.010  0.00  0.00    -0.160 A 
ATOM      8  C   LIG    1        1.200   2.121   0.002  0.00  0.00    +0.050 A 
ATOM      9  C   LIG    1        2.376   1.436  -0.013  0.00  0.00    -0.090 A 
ATOM     10  C   LIG    1        2.394   0.043  -0.021  0.00  0.00    -0.010 A 
ATOM     11  C   LIG    1        1.237  -0.674  -0.013  0.00  0.00    -0.040 A 
ATOM     12  C   LIG    1        0.002  -0.004   0.002  0.00  0.00    +0.030 A 
ATOM     13  C   LIG    1       -1.208  -0.718   0.010  0.00  0.00    -0.200 A 
ATOM     14  C   LIG    1       -2.395  -0.046   0.026  0.00  0.00    +0.300 A 
ATOM     15  O   LIG    1       -3.560  -0.743   0.033  0.00  0.00    -0.670 OA
ENDBRANCH   3   5
BRANCH   1  16
ATOM     16  C   LIG    1       -5.041   4.118   0.073  0.00  0.00    +0.310 C 
BRANCH  16  20
ATOM     17  C   LIG    1       -4.365   8.338   0.088  0.00  0.00    +0.130 A 
ATOM     18  C   LIG    1       -4.487   7.658  -1.115  0.00  0.00    -0.020 A 
ATOM     19  C   LIG    1       -4.705   6.294  -1.117  0.00  0.00    +0.070 A 
ATOM     20  C   LIG    1       -4.803   5.606   0.078  0.00  0.00    -0.130 A 
ATOM     21  C   LIG    1       -4.687   6.282   1.279  0.00  0.00    +0.070 A 
ATOM     22  C   LIG    1       -4.463   7.646   1.286  0.00  0.00    -0.080 A 
BRANCH  17  24
ATOM     23  C   LIG    1       -4.035  10.314   1.368  0.00  0.00    +0.240 C 
ATOM     24  O   LIG    1       -4.151   9.680   0.092  0.00  0.00    -0.320 OA
ENDBRANCH  17  24
ENDBRANCH  16  20
ENDBRANCH   1  16
TORSDOF 4
