REMARK  Name = ZINCrD000000CPsL.0
REMARK                            x       y       z     vdW  Elec       q    Type
REMARK                         _______ _______ _______ _____ _____    ______ ____
ROOT
ATOM      1  C   LIG    1       -1.389  -0.865  -0.581  0.00  0.00    +0.560 C 
ATOM      2  N   LIG    1       -2.482  -0.346   0.012  0.00  0.00    -0.660 N 
ATOM      3  H   LIG    1       -2.418   0.490   0.500  0.00  0.00    +0.410 HD
ATOM      4  O   LIG    1       -1.449  -1.953  -1.121  0.00  0.00    -0.510 OA
ENDROOT
BRANCH   2   5
ATOM      5  C   LIG    1       -3.710  -1.012  -0.076  0.00  0.00    +0.150 A 
ATOM      6  C   LIG    1       -4.890  -0.286  -0.156  0.00  0.00    +0.010 A 
ATOM      7  C   LIG    1       -6.104  -0.942  -0.248  0.00  0.00    +0.060 A 
ATOM      8  C   LIG    1       -6.145  -2.324  -0.250  0.00  0.00    +0.020 A 
ATOM      9  O   LIG    1       -7.193  -3.207  -0.323  0.00  0.00    -0.290 OA
ATOM     10  C   LIG    1       -6.585  -4.424  -0.778  0.00  0.00    +0.250 C 
ATOM     11  O   LIG    1       -5.278  -4.391  -0.186  0.00  0.00    -0.290 OA
ATOM     12  C   LIG    1       -7.376  -5.649  -0.307  0.00  0.00    +0.070 C 
ATOM     13  C   LIG    1       -8.222  -6.046  -1.546  0.00  0.00    +0.040 C 
ATOM     14  C   LIG    1       -7.260  -5.760  -2.727  0.00  0.00    +0.040 C 
ATOM     15  C   LIG    1       -6.508  -4.478  -2.303  0.00  0.00    +0.020 C 
ATOM     16  C   LIG    1       -4.961  -3.058  -0.164  0.00  0.00    +0.050 A 
ATOM     17  C   LIG    1       -3.748  -2.401  -0.077  0.00  0.00    +0.050 A 
ENDBRANCH   2   5
BRANCH   1  24
ATOM     18  O   LIG    1        5.521   2.202  -1.397  0.00  0.00    -0.500 OA
ATOM     19  C   LIG    1        4.453   1.627  -1.406  0.00  0.00    +0.490 C 
ATOM     20  C   LIG    1        4.213   0.491  -2.367  0.00  0.00    +0.310 C 
ATOM     21  O   LIG    1        3.312  -0.452  -1.780  0.00  0.00    -0.300 OA
ATOM     22  C   LIG    1        2.200   0.056  -1.184  0.00  0.00    +0.070 A 
ATOM     23  C   LIG    1        1.014  -0.649  -1.196  0.00  0.00    +0.120 A 
ATOM     24  C   LIG    1       -0.119  -0.113  -0.576  0.00  0.00    -0.130 A 
ATOM     25  C   LIG    1       -0.049   1.137   0.044  0.00  0.00    +0.070 A 
ATOM     26  C   LIG    1        1.139   1.837   0.053  0.00  0.00    +0.010 A 
ATOM     27  C   LIG    1        2.265   1.303  -0.557  0.00  0.00    +0.130 A 
ATOM     28  N   LIG    1        3.475   2.002  -0.553  0.00  0.00    -0.660 N 
ATOM     29  H   LIG    1        3.610   2.747   0.053  0.00  0.00    +0.420 HD
ENDBRANCH   1  24
TORSDOF 2
