REMARK  Name = ZINCrg00000Mo5ES.0
REMARK                            x       y       z     vdW  Elec       q    Type
REMARK                         _______ _______ _______ _____ _____    ______ ____
ROOT
ATOM      1  N   LIG    1       -0.850   7.833   0.105  0.00  0.00    -0.730 N 
ATOM      2  H   LIG    1       -1.300   8.652  -0.153  0.00  0.00    +0.390 HD
ATOM      3  C   LIG    1        0.496   7.776   0.108  0.00  0.00    +0.710 C 
ATOM      4  N   LIG    1        1.216   8.825  -0.338  0.00  0.00    -0.630 N 
ATOM      5  C   LIG    1        2.682   8.748  -0.441  0.00  0.00    +0.270 C 
ATOM      6  C   LIG    1        3.088   9.210  -1.850  0.00  0.00    +0.210 C 
ATOM      7  O   LIG    1        2.499  10.486  -2.113  0.00  0.00    -0.350 OA
ATOM      8  C   LIG    1        1.069  10.480  -2.119  0.00  0.00    +0.140 C 
ATOM      9  C   LIG    1        0.560  10.082  -0.730  0.00  0.00    +0.240 C 
ATOM     10  O   LIG    1        1.062   6.779   0.513  0.00  0.00    -0.580 OA
ENDROOT
BRANCH   1  13
ATOM     11  C   LIG    1       -3.506   7.413   1.136  0.00  0.00    +0.020 C 
ATOM     12  C   LIG    1       -2.306   6.790   1.870  0.00  0.00    +0.030 C 
ATOM     13  C   LIG    1       -1.634   6.657   0.493  0.00  0.00    +0.250 C 
ATOM     14  C   LIG    1       -3.049   6.634  -0.108  0.00  0.00    +0.030 C 
BRANCH  11  21
ATOM     15  C   LIG    1       -5.702   9.284   1.292  0.00  0.00    +0.090 C 
ATOM     16  C   LIG    1       -5.892   7.860   1.747  0.00  0.00    -0.080 A 
ATOM     17  C   LIG    1       -7.116   7.449   2.239  0.00  0.00    +0.000 A 
ATOM     18  C   LIG    1       -7.290   6.142   2.656  0.00  0.00    +0.000 A 
ATOM     19  C   LIG    1       -6.239   5.247   2.582  0.00  0.00    +0.000 A 
ATOM     20  C   LIG    1       -5.014   5.659   2.090  0.00  0.00    +0.010 A 
ATOM     21  C   LIG    1       -4.841   6.965   1.672  0.00  0.00    -0.070 A 
ENDBRANCH  11  21
ENDBRANCH   1  13
BRANCH   8  22
ATOM     22  C   LIG    1        0.555  11.878  -2.471  0.00  0.00    +0.200 C 
BRANCH  22  23
ATOM     23  N   LIG    1        1.050  12.262  -3.800  0.00  0.00    -0.510 NA
ATOM     24  C   LIG    1        0.816  13.689  -4.056  0.00  0.00    +0.200 C 
BRANCH  23  25
ATOM     25  C   LIG    1        0.442  11.432  -4.848  0.00  0.00    +0.190 C 
BRANCH  25  26
ATOM     26  C   LIG    1        1.146  11.681  -6.157  0.00  0.00    +0.520 C 
ATOM     27  O   LIG    1        2.064  12.472  -6.211  0.00  0.00    -0.520 OA
ATOM     28  N   LIG    1        0.756  11.025  -7.268  0.00  0.00    -0.860 N 
ATOM     29  H   LIG    1        1.209  11.185  -8.110  0.00  0.00    +0.400 HD
ATOM     30  H   LIG    1        0.022  10.392  -7.225  0.00  0.00    +0.400 HD
ENDBRANCH  25  26
ENDBRANCH  23  25
ENDBRANCH  22  23
ENDBRANCH   8  22
TORSDOF 6
