REMARK  Name = ZINCpe000000TWAC.0
REMARK                            x       y       z     vdW  Elec       q    Type
REMARK                         _______ _______ _______ _____ _____    ______ ____
ROOT
ATOM      1  N   LIG    1        0.840   7.192   0.195  0.00  0.00    -0.720 N 
ATOM      2  H   LIG    1        0.548   7.457   1.081  0.00  0.00    +0.400 HD
ATOM      3  C   LIG    1        1.825   7.873  -0.423  0.00  0.00    +0.500 C 
ATOM      4  O   LIG    1        2.189   7.541  -1.531  0.00  0.00    -0.520 OA
ENDROOT
BRANCH   1   5
ATOM      5  C   LIG    1        0.208   6.051  -0.473  0.00  0.00    +0.290 C 
ATOM      6  C   LIG    1       -0.911   6.550  -1.388  0.00  0.00    +0.040 C 
BRANCH   5  10
ATOM      7  C   LIG    1       -1.427   3.412   2.469  0.00  0.00    +0.110 A 
ATOM      8  C   LIG    1       -1.532   4.783   2.630  0.00  0.00    -0.030 A 
ATOM      9  C   LIG    1       -1.003   5.634   1.677  0.00  0.00    +0.020 A 
ATOM     10  C   LIG    1       -0.368   5.119   0.562  0.00  0.00    -0.090 A 
ATOM     11  C   LIG    1       -0.254   3.750   0.398  0.00  0.00    -0.020 A 
ATOM     12  C   LIG    1       -0.787   2.893   1.346  0.00  0.00    +0.110 A 
BRANCH  12  13
ATOM     13  O   LIG    1       -0.682   1.547   1.184  0.00  0.00    -0.300 OA
ATOM     14  C   LIG    1       -0.013   1.086   0.008  0.00  0.00    +0.240 C 
ENDBRANCH  12  13
BRANCH   7  15
ATOM     15  O   LIG    1       -1.946   2.574   3.405  0.00  0.00    -0.300 OA
BRANCH  15  17
ATOM     16  C   LIG    1       -3.106   2.084   5.468  0.00  0.00    +0.070 C 
ATOM     17  C   LIG    1       -2.588   3.177   4.530  0.00  0.00    +0.170 C 
ENDBRANCH  15  17
ENDBRANCH   7  15
ENDBRANCH   5  10
ENDBRANCH   1   5
BRANCH   3  18
ATOM     18  C   LIG    1        2.474   9.047   0.264  0.00  0.00    +0.360 C 
BRANCH  18  19
ATOM     19  N   LIG    1        3.507   9.613  -0.608  0.00  0.00    -0.520 N 
ATOM     20  C   LIG    1        3.179  10.602  -1.494  0.00  0.00    +0.360 A 
ATOM     21  C   LIG    1        4.131  11.123  -2.297  0.00  0.00    -0.120 A 
ATOM     22  C   LIG    1        5.455  10.632  -2.204  0.00  0.00    +0.550 A 
ATOM     23  N   LIG    1        5.738   9.656  -1.318  0.00  0.00    -0.660 N 
ATOM     24  H   LIG    1        6.643   9.314  -1.248  0.00  0.00    +0.430 HD
ATOM     25  O   LIG    1        6.331  11.086  -2.918  0.00  0.00    -0.510 OA
ATOM     26  C   LIG    1        4.770   9.158  -0.526  0.00  0.00    +0.700 A 
ATOM     27  O   LIG    1        5.041   8.281   0.272  0.00  0.00    -0.540 OA
ENDBRANCH  18  19
ENDBRANCH   3  18
TORSDOF 7
