REMARK  Name = ZINCvU0000000Cae.0
REMARK                            x       y       z     vdW  Elec       q    Type
REMARK                         _______ _______ _______ _____ _____    ______ ____
ROOT
ATOM      1  C   LIG    1        1.960  -3.205   0.173  0.00  0.00    +0.240 C 
ENDROOT
BRANCH   1   2
ATOM      2  N   LIG    1        2.917  -2.870   1.231  0.00  0.00    -0.720 N 
ATOM      3  H   LIG    1        2.605  -2.472   2.058  0.00  0.00    +0.400 HD
ATOM      4  C   LIG    1        4.231  -3.114   1.053  0.00  0.00    +0.560 C 
ATOM      5  O   LIG    1        4.622  -3.613   0.016  0.00  0.00    -0.530 OA
BRANCH   4   6
ATOM      6  C   LIG    1        5.196  -2.776   2.121  0.00  0.00    -0.140 A 
ATOM      7  C   LIG    1        4.752  -2.197   3.311  0.00  0.00    +0.040 A 
ATOM      8  C   LIG    1        5.657  -1.888   4.304  0.00  0.00    +0.000 A 
ATOM      9  C   LIG    1        7.005  -2.140   4.119  0.00  0.00    -0.040 A 
ATOM     10  C   LIG    1        7.453  -2.709   2.940  0.00  0.00    +0.010 A 
ATOM     11  C   LIG    1        6.557  -3.027   1.940  0.00  0.00    +0.080 A 
BRANCH   9  12
ATOM     12  C   LIG    1        7.989  -1.793   5.206  0.00  0.00    -0.040 C 
ATOM     13  C   LIG    1        8.717  -3.061   5.658  0.00  0.00    +0.040 C 
ATOM     14  C   LIG    1        7.243  -1.183   6.394  0.00  0.00    +0.030 C 
ATOM     15  C   LIG    1        9.007  -0.784   4.670  0.00  0.00    +0.040 C 
ENDBRANCH   9  12
ENDBRANCH   4   6
ENDBRANCH   1   2
BRANCH   1  17
ATOM     16  C   LIG    1        0.555  -5.025  -0.804  0.00  0.00    +0.030 C 
ATOM     17  C   LIG    1        1.554  -4.675   0.300  0.00  0.00    -0.030 C 
ATOM     18  C   LIG    1        2.795  -5.560   0.166  0.00  0.00    +0.020 C 
ENDBRANCH   1  17
BRANCH   1  19
ATOM     19  C   LIG    1        0.720  -2.320   0.308  0.00  0.00    +0.050 C 
BRANCH  19  20
ATOM     20  C   LIG    1        1.105  -0.861   0.057  0.00  0.00    +0.060 C 
BRANCH  20  21
ATOM     21  C   LIG    1       -0.116   0.012   0.190  0.00  0.00    +0.510 C 
ATOM     22  N   LIG    1       -0.016   1.344   0.009  0.00  0.00    -0.680 N 
ATOM     23  H   LIG    1        0.853   1.750  -0.132  0.00  0.00    +0.410 HD
ATOM     24  O   LIG    1       -1.190  -0.485   0.458  0.00  0.00    -0.520 OA
BRANCH  22  25
ATOM     25  C   LIG    1       -1.168   2.140   0.020  0.00  0.00    +0.120 A 
ATOM     26  C   LIG    1       -1.100   3.401   0.531  0.00  0.00    +0.050 A 
ATOM     27  C   LIG    1       -2.256   4.211   0.540  0.00  0.00    -0.190 A 
ATOM     28  C   LIG    1       -2.541   5.495   0.963  0.00  0.00    +0.270 A 
ATOM     29  N   LIG    1       -3.839   5.731   0.719  0.00  0.00    -0.430 N 
ATOM     30  H   LIG    1       -4.301   6.560   0.920  0.00  0.00    +0.450 HD
ATOM     31  N   LIG    1       -4.426   4.605   0.132  0.00  0.00    -0.300 NA
ATOM     32  C   LIG    1       -3.511   3.661   0.004  0.00  0.00    +0.100 A 
ATOM     33  C   LIG    1       -3.511   2.344  -0.505  0.00  0.00    +0.040 A 
ATOM     34  C   LIG    1       -2.366   1.619  -0.490  0.00  0.00    +0.070 A 
ENDBRANCH  22  25
ENDBRANCH  20  21
ENDBRANCH  19  20
ENDBRANCH   1  19
TORSDOF 8
