REMARK  Name = ZINCnE000001QGb0.1
REMARK                            x       y       z     vdW  Elec       q    Type
REMARK                         _______ _______ _______ _____ _____    ______ ____
ROOT
ATOM      1  C   LIG    1       -5.516   4.448   2.556  0.00  0.00    -0.150 A 
ATOM      2  C   LIG    1       -4.682   3.979   3.573  0.00  0.00    +0.090 A 
ATOM      3  C   LIG    1       -3.512   3.324   3.256  0.00  0.00    -0.070 A 
ATOM      4  C   LIG    1       -3.160   3.131   1.925  0.00  0.00    +0.300 A 
ATOM      5  C   LIG    1       -3.986   3.602   0.909  0.00  0.00    -0.170 A 
ATOM      6  C   LIG    1       -5.160   4.252   1.220  0.00  0.00    +0.060 A 
ENDROOT
BRANCH   1  12
ATOM      7  C   LIG    1       -9.212   6.514   5.194  0.00  0.00    +0.130 C 
ATOM      8  C   LIG    1       -8.380   6.050   4.026  0.00  0.00    +0.000 A 
ATOM      9  C   LIG    1       -8.683   6.223   2.724  0.00  0.00    -0.050 A 
ATOM     10  N   LIG    1       -7.667   5.660   1.998  0.00  0.00    -0.570 N 
ATOM     11  H   LIG    1       -7.598   5.628   1.031  0.00  0.00    +0.410 HD
ATOM     12  C   LIG    1       -6.772   5.151   2.893  0.00  0.00    +0.300 A 
ATOM     13  C   LIG    1       -9.905   6.910   2.172  0.00  0.00    +0.140 C 
ATOM     14  N   LIG    1       -7.215   5.397   4.106  0.00  0.00    -0.500 NA
ENDBRANCH   1  12
BRANCH   4  15
ATOM     15  N   LIG    1       -1.975   2.469   1.607  0.00  0.00    -1.080 NA
BRANCH  15  16
ATOM     16  S   LIG    1       -1.554   2.238   0.022  0.00  0.00    +2.600 S 
ATOM     17  O   LIG    1       -2.517   1.347  -0.523  0.00  0.00    -1.030 OA
ATOM     18  O   LIG    1       -1.297   3.528  -0.517  0.00  0.00    -1.030 OA
BRANCH  16  19
ATOM     19  C   LIG    1       -0.017   1.378   0.010  0.00  0.00    -0.620 A 
ATOM     20  C   LIG    1        1.171   2.086   0.002  0.00  0.00    +0.110 A 
ATOM     21  C   LIG    1        2.377   1.411  -0.014  0.00  0.00    -0.020 A 
ATOM     22  C   LIG    1        2.396   0.029  -0.021  0.00  0.00    +0.040 A 
ATOM     23  C   LIG    1        1.208  -0.679  -0.014  0.00  0.00    -0.020 A 
ATOM     24  C   LIG    1        0.002  -0.004   0.002  0.00  0.00    +0.120 A 
ENDBRANCH  16  19
ENDBRANCH  15  16
ENDBRANCH   4  15
TORSDOF 4
