REMARK  Name = ZINCrH00000No4Q4.0
REMARK                            x       y       z     vdW  Elec       q    Type
REMARK                         _______ _______ _______ _____ _____    ______ ____
ROOT
ATOM      1  C   LIG    1       -0.074   5.607   0.030  0.00  0.00    +0.240 C 
ATOM      2  N   LIG    1       -1.207   6.241   0.044  0.00  0.00    -0.220 NA
ENDROOT
BRANCH   1   5
ATOM      3  C   LIG    1       -1.232   2.034   0.019  0.00  0.00    +0.150 A 
ATOM      4  C   LIG    1       -1.254   3.417   0.032  0.00  0.00    -0.040 A 
ATOM      5  C   LIG    1       -0.054   4.133   0.023  0.00  0.00    +0.020 A 
ATOM      6  C   LIG    1        1.164   3.450   0.009  0.00  0.00    -0.070 A 
ATOM      7  C   LIG    1        1.180   2.067   0.002  0.00  0.00    +0.150 A 
ATOM      8  C   LIG    1       -0.016   1.356   0.009  0.00  0.00    +0.040 A 
BRANCH   3  10
ATOM      9  C   LIG    1       -3.609   2.096   0.031  0.00  0.00    +0.240 C 
ATOM     10  O   LIG    1       -2.399   1.336   0.021  0.00  0.00    -0.300 OA
ENDBRANCH   3  10
BRANCH   7  11
ATOM     11  O   LIG    1        2.366   1.401  -0.013  0.00  0.00    -0.300 OA
ATOM     12  C   LIG    1        3.555   2.193  -0.020  0.00  0.00    +0.240 C 
ENDBRANCH   7  11
BRANCH   8  13
ATOM     13  O   LIG    1        0.002  -0.004   0.002  0.00  0.00    -0.310 OA
ATOM     14  C   LIG    1        0.023  -0.660   1.272  0.00  0.00    +0.230 C 
ENDBRANCH   8  13
ENDBRANCH   1   5
BRANCH   2  15
ATOM     15  N   LIG    1       -1.226   7.642   0.050  0.00  0.00    -0.580 N 
ATOM     16  H   LIG    1       -0.393   8.138   0.044  0.00  0.00    +0.390 HD
ATOM     17  C   LIG    1       -2.402   8.300   0.065  0.00  0.00    +0.580 C 
ATOM     18  O   LIG    1       -3.447   7.678   0.072  0.00  0.00    -0.500 OA
BRANCH  17  19
ATOM     19  C   LIG    1       -2.422   9.777   0.071  0.00  0.00    -0.140 A 
ATOM     20  C   LIG    1       -1.225  10.495   0.068  0.00  0.00    +0.040 A 
ATOM     21  C   LIG    1       -1.250  11.874   0.071  0.00  0.00    +0.010 A 
ATOM     22  C   LIG    1       -2.460  12.546   0.085  0.00  0.00    -0.040 A 
ATOM     23  C   LIG    1       -3.650  11.841   0.093  0.00  0.00    +0.010 A 
ATOM     24  C   LIG    1       -3.639  10.462   0.086  0.00  0.00    +0.090 A 
BRANCH  22  25
ATOM     25  C   LIG    1       -2.480  14.053   0.093  0.00  0.00    -0.040 C 
ATOM     26  C   LIG    1       -3.220  14.560  -1.147  0.00  0.00    +0.040 C 
ATOM     27  C   LIG    1       -1.045  14.583   0.082  0.00  0.00    +0.030 C 
ATOM     28  C   LIG    1       -3.197  14.547   1.351  0.00  0.00    +0.040 C 
ENDBRANCH  22  25
ENDBRANCH  17  19
ENDBRANCH   2  15
TORSDOF 7
