REMARK  Name = ZINCrH000004qaQZ.0
REMARK                            x       y       z     vdW  Elec       q    Type
REMARK                         _______ _______ _______ _____ _____    ______ ____
ROOT
ATOM      1  C   LIG    1       -4.640  -3.342   2.606  0.00  0.00    +0.120 C 
ATOM      2  C   LIG    1       -5.947  -2.593   2.623  0.00  0.00    -0.080 A 
ATOM      3  C   LIG    1       -5.957  -1.205   2.635  0.00  0.00    -0.070 A 
ATOM      4  C   LIG    1       -7.216  -0.552   2.645  0.00  0.00    -0.070 A 
ATOM      5  C   LIG    1       -7.314   0.845   2.652  0.00  0.00    +0.070 A 
ATOM      6  C   LIG    1       -8.543   1.435   2.661  0.00  0.00    -0.080 A 
ATOM      7  C   LIG    1       -9.705   0.665   2.663  0.00  0.00    +0.060 A 
ATOM      8  C   LIG    1       -9.646  -0.694   2.656  0.00  0.00    +0.070 A 
ATOM      9 BR   LIG    1       -8.673   3.322   2.671  0.00  0.00    -0.030 Br
ATOM     10  C   LIG    1       -8.395  -1.339   2.647  0.00  0.00    +0.140 A 
ATOM     11  N   LIG    1       -8.309  -2.671   2.639  0.00  0.00    -0.460 NA
ATOM     12  C   LIG    1       -7.154  -3.289   2.630  0.00  0.00    +0.200 A 
ENDROOT
BRANCH   3  13
ATOM     13  C   LIG    1       -4.696  -0.432   2.633  0.00  0.00    +0.570 C 
ATOM     14  N   LIG    1       -4.127  -0.074   1.465  0.00  0.00    -0.720 N 
ATOM     15  H   LIG    1       -4.545  -0.323   0.626  0.00  0.00    +0.410 HD
ATOM     16  O   LIG    1       -4.173  -0.120   3.685  0.00  0.00    -0.510 OA
BRANCH  14  17
ATOM     17  C   LIG    1       -2.878   0.692   1.463  0.00  0.00    +0.270 C 
BRANCH  17  18
ATOM     18  C   LIG    1       -2.450   0.966   0.019  0.00  0.00    +0.290 C 
BRANCH  18  19
ATOM     19  N   LIG    1       -1.201   1.731   0.017  0.00  0.00    -0.500 N 
ATOM     20  C   LIG    1       -0.013   1.076   0.008  0.00  0.00    +0.290 A 
ATOM     21  C   LIG    1        1.155   1.761   0.001  0.00  0.00    -0.080 A 
ATOM     22  C   LIG    1        1.143   3.163   0.008  0.00  0.00    +0.120 A 
ATOM     23  C   LIG    1       -0.053   3.820   0.022  0.00  0.00    -0.090 A 
ATOM     24  C   LIG    1       -1.246   3.077   0.030  0.00  0.00    +0.510 A 
ATOM     25  O   LIG    1       -2.322   3.652   0.043  0.00  0.00    -0.550 OA
ENDBRANCH  18  19
ENDBRANCH  17  18
ENDBRANCH  14  17
ENDBRANCH   3  13
BRANCH  12  26
ATOM     26  C   LIG    1       -7.130  -4.796   2.622  0.00  0.00    +0.000 C 
ATOM     27  C   LIG    1       -8.461  -5.523   2.418  0.00  0.00    +0.060 C 
ATOM     28  C   LIG    1       -7.793  -5.519   3.796  0.00  0.00    +0.050 C 
ENDBRANCH  12  26
TORSDOF 5
