REMARK  Name = ZINCrD00000hQ44F.0
REMARK                            x       y       z     vdW  Elec       q    Type
REMARK                         _______ _______ _______ _____ _____    ______ ____
ROOT
ATOM      1  C   LIG    1       -1.794   3.069  -5.104  0.00  0.00    +0.140 A 
ATOM      2  C   LIG    1       -0.872   4.014  -5.528  0.00  0.00    -0.050 A 
ATOM      3  C   LIG    1       -1.186   4.870  -6.565  0.00  0.00    +0.070 A 
ATOM      4  C   LIG    1       -2.429   4.792  -7.176  0.00  0.00    +0.040 A 
ATOM      5  C   LIG    1       -3.355   3.851  -6.748  0.00  0.00    +0.050 A 
ATOM      6  C   LIG    1       -3.038   2.992  -5.714  0.00  0.00    +0.000 A 
ENDROOT
BRANCH   1   7
ATOM      7  O   LIG    1       -1.483   2.223  -4.087  0.00  0.00    -0.300 OA
BRANCH   7   8
ATOM      8  C   LIG    1       -0.185   2.358  -3.505  0.00  0.00    +0.250 C 
BRANCH   8  11
ATOM      9  N   LIG    1       -0.882   1.460  -1.204  0.00  0.00    -0.440 NA
ATOM     10  C   LIG    1       -1.175   0.361  -2.133  0.00  0.00    +0.180 C 
ATOM     11  C   LIG    1       -0.018   1.329  -2.385  0.00  0.00    +0.070 C 
BRANCH   9  12
ATOM     12  C   LIG    1       -0.205   0.965   0.002  0.00  0.00    +0.250 C 
BRANCH  12  16
ATOM     13  C   LIG    1       -1.809   3.625   3.935  0.00  0.00    +0.360 C 
ATOM     14  N   LIG    1       -1.666   2.564   2.935  0.00  0.00    -0.380 N 
ATOM     15  C   LIG    1       -0.781   2.547   1.917  0.00  0.00    +0.240 A 
ATOM     16  C   LIG    1       -0.972   1.401   1.224  0.00  0.00    -0.230 A 
ATOM     17  C   LIG    1       -2.003   0.689   1.845  0.00  0.00    +0.240 A 
ATOM     18  N   LIG    1       -2.420   1.385   2.871  0.00  0.00    -0.300 NA
ENDBRANCH  12  16
ENDBRANCH   9  12
ENDBRANCH   8  11
ENDBRANCH   7   8
ENDBRANCH   1   7
BRANCH   4  19
ATOM     19  O   LIG    1       -2.741   5.638  -8.194  0.00  0.00    -0.250 OA
BRANCH  19  20
ATOM     20  C   LIG    1       -3.706   6.567  -7.977  0.00  0.00    +0.150 A 
ATOM     21  C   LIG    1       -4.256   6.713  -6.709  0.00  0.00    -0.060 A 
ATOM     22  C   LIG    1       -5.232   7.658  -6.484  0.00  0.00    +0.110 A 
ATOM     23  C   LIG    1       -5.677   8.464  -7.535  0.00  0.00    -0.070 A 
ATOM     24  C   LIG    1       -5.125   8.311  -8.810  0.00  0.00    +0.110 A 
ATOM     25  C   LIG    1       -4.146   7.367  -9.025  0.00  0.00    +0.000 A 
BRANCH  23  26
ATOM     26  C   LIG    1       -6.695   9.445  -7.306  0.00  0.00    +0.250 C 
ATOM     27  N   LIG    1       -7.503  10.223  -7.125  0.00  0.00    -0.420 NA
ENDBRANCH  23  26
ENDBRANCH  19  20
ENDBRANCH   4  19
TORSDOF 8
