REMARK  Name = ZINCtV000002KQfs.0
REMARK                            x       y       z     vdW  Elec       q    Type
REMARK                         _______ _______ _______ _____ _____    ______ ____
ROOT
ATOM      1  C   LIG    1        1.708  -1.838  -0.024  0.00  0.00    +0.330 C 
ATOM      2  N   LIG    1        1.295  -0.433  -0.013  0.00  0.00    -0.460 N 
ATOM      3  C   LIG    1        2.161   0.642  -0.015  0.00  0.00    +0.090 A 
ATOM      4  C   LIG    1        3.549   0.736  -0.029  0.00  0.00    +0.000 A 
ATOM      5  C   LIG    1        4.157   1.973  -0.028  0.00  0.00    +0.030 A 
ATOM      6  C   LIG    1        3.397   3.133  -0.015  0.00  0.00    +0.010 A 
ATOM      7  C   LIG    1        2.021   3.062  -0.001  0.00  0.00    +0.040 A 
ATOM      8  C   LIG    1        1.394   1.818  -0.002  0.00  0.00    -0.060 A 
ATOM      9  C   LIG    1       -0.017   1.389   0.010  0.00  0.00    -0.260 A 
ATOM     10  C   LIG    1        0.002  -0.004   0.002  0.00  0.00    +0.240 A 
ENDROOT
BRANCH  10  11
ATOM     11  C   LIG    1       -1.188  -0.876   0.009  0.00  0.00    -0.070 A 
ATOM     12  C   LIG    1       -2.248  -0.609   0.880  0.00  0.00    +0.090 A 
ATOM     13  C   LIG    1       -3.360  -1.426   0.878  0.00  0.00    +0.010 A 
ATOM     14  C   LIG    1       -3.422  -2.513   0.024  0.00  0.00    +0.030 A 
ATOM     15  C   LIG    1       -2.374  -2.786  -0.837  0.00  0.00    +0.000 A 
ATOM     16  C   LIG    1       -1.259  -1.975  -0.850  0.00  0.00    +0.020 A 
ENDBRANCH  10  11
BRANCH   9  17
ATOM     17  C   LIG    1       -1.158   2.222   0.020  0.00  0.00    +0.440 C 
ATOM     18  O   LIG    1       -2.268   1.731   0.023  0.00  0.00    -0.460 OA
BRANCH  17  19
ATOM     19  C   LIG    1       -0.996   3.721   0.027  0.00  0.00    +0.100 C 
BRANCH  19  20
ATOM     20  S   LIG    1       -2.628   4.503   0.040  0.00  0.00    +0.070 S 
BRANCH  20  21
ATOM     21  C   LIG    1       -2.154   6.200   0.046  0.00  0.00    +0.080 A 
ATOM     22  N   LIG    1       -0.936   6.624   0.048  0.00  0.00    -0.470 NA
ATOM     23  C   LIG    1       -0.733   7.957   0.049  0.00  0.00    +0.090 A 
ATOM     24  C   LIG    1        0.488   8.663   0.047  0.00  0.00    +0.070 A 
ATOM     25  C   LIG    1        0.497  10.036   0.056  0.00  0.00    +0.040 A 
ATOM     26  C   LIG    1       -0.692  10.749   0.065  0.00  0.00    +0.040 A 
ATOM     27  C   LIG    1       -1.896  10.080   0.067  0.00  0.00    +0.060 A 
ATOM     28  C   LIG    1       -1.924   8.688   0.059  0.00  0.00    -0.180 A 
ATOM     29  S   LIG    1       -3.274   7.555   0.059  0.00  0.00    +0.110 S 
ENDBRANCH  20  21
ENDBRANCH  19  20
ENDBRANCH  17  19
ENDBRANCH   9  17
TORSDOF 5
