REMARK  Name = ZINCpe000000YqmS.0
REMARK                            x       y       z     vdW  Elec       q    Type
REMARK                         _______ _______ _______ _____ _____    ______ ____
ROOT
ATOM      1  N   LIG    1        3.687   5.092  -0.006  0.00  0.00    -0.590 N 
ATOM      2  C   LIG    1        5.139   4.883   0.094  0.00  0.00    +0.310 C 
ATOM      3  C   LIG    1        5.813   5.574  -1.104  0.00  0.00    +0.270 C 
ATOM      4  N   LIG    1        5.300   6.948  -1.201  0.00  0.00    -0.620 N 
ATOM      5  C   LIG    1        3.848   7.157  -1.296  0.00  0.00    +0.290 C 
ATOM      6  C   LIG    1        6.145   7.997  -1.204  0.00  0.00    +0.520 C 
ATOM      7  O   LIG    1        5.710   9.127  -1.285  0.00  0.00    -0.530 OA
ATOM      8  C   LIG    1        3.175   6.466  -0.104  0.00  0.00    +0.280 C 
ENDROOT
BRANCH   1  18
ATOM      9  C   LIG    1        4.057  -0.260  -0.079  0.00  0.00    +0.370 C 
ATOM     10  N   LIG    1        2.745   0.392  -0.047  0.00  0.00    -0.360 N 
ATOM     11  N   LIG    1        1.506  -0.261  -0.025  0.00  0.00    -0.280 NA
ATOM     12  C   LIG    1        0.549   0.624  -0.002  0.00  0.00    +0.340 A 
ATOM     13  C   LIG    1        1.129   1.908   0.002  0.00  0.00    -0.390 A 
ATOM     14  C   LIG    1        0.610   3.227   0.029  0.00  0.00    +0.600 A 
ATOM     15  O   LIG    1       -0.592   3.425   0.054  0.00  0.00    -0.520 OA
ATOM     16  N   LIG    1        1.484   4.259   0.025  0.00  0.00    -0.670 N 
ATOM     17  H   LIG    1        1.153   5.171   0.043  0.00  0.00    +0.410 HD
ATOM     18  C   LIG    1        2.827   4.024  -0.004  0.00  0.00    +0.670 A 
ATOM     19  N   LIG    1        3.322   2.808  -0.028  0.00  0.00    -0.590 NA
ATOM     20  C   LIG    1        2.522   1.732  -0.026  0.00  0.00    +0.390 A 
ENDBRANCH   1  18
BRANCH   6  21
ATOM     21  C   LIG    1        7.632   7.768  -1.106  0.00  0.00    +0.060 C 
BRANCH  21  22
ATOM     22  C   LIG    1        8.358   9.114  -1.131  0.00  0.00    +0.000 C 
ATOM     23  C   LIG    1        8.207   9.771  -2.518  0.00  0.00    +0.020 C 
ATOM     24  C   LIG    1        9.575  10.455  -2.765  0.00  0.00    +0.000 C 
ATOM     25  C   LIG    1       10.578   9.439  -2.165  0.00  0.00    -0.010 C 
ATOM     26  C   LIG    1        9.866   8.903  -0.906  0.00  0.00    +0.010 C 
ENDBRANCH  21  22
ENDBRANCH   6  21
TORSDOF 3
