REMARK  Name = ZINCrD0000074rOz.0
REMARK                            x       y       z     vdW  Elec       q    Type
REMARK                         _______ _______ _______ _____ _____    ______ ____
ROOT
ATOM      1  C   LIG    1        2.110   7.451  -0.151  0.00  0.00    +0.590 C 
ATOM      2  N   LIG    1        2.240   6.235  -0.716  0.00  0.00    -0.700 N 
ATOM      3  H   LIG    1        3.082   5.757  -0.651  0.00  0.00    +0.400 HD
ATOM      4  O   LIG    1        1.055   8.051  -0.232  0.00  0.00    -0.530 OA
ENDROOT
BRANCH   1  11
ATOM      5  C   LIG    1        8.566   9.225   3.093  0.00  0.00    +0.090 C 
ATOM      6  C   LIG    1        7.139   9.305   2.614  0.00  0.00    -0.050 A 
ATOM      7  C   LIG    1        6.378  10.430   2.904  0.00  0.00    -0.030 A 
ATOM      8  C   LIG    1        5.084  10.522   2.479  0.00  0.00    -0.030 A 
ATOM      9  C   LIG    1        4.516   9.475   1.744  0.00  0.00    -0.120 A 
ATOM     10  C   LIG    1        3.236   9.269   1.174  0.00  0.00    +0.050 A 
ATOM     11  CA  LIG    1        3.245   8.054   0.565  0.00  0.00    +0.010 A 
ATOM     12  N   LIG    1        4.487   7.473   0.731  0.00  0.00    -0.570 N 
ATOM     13  H   LIG    1        4.753   6.603   0.394  0.00  0.00    +0.410 HD
ATOM     14  C   LIG    1        5.286   8.332   1.448  0.00  0.00    +0.130 A 
ATOM     15  C   LIG    1        4.269  11.748   2.801  0.00  0.00    +0.090 C 
ATOM     16  C   LIG    1        6.603   8.261   1.893  0.00  0.00    -0.110 A 
ATOM     17  C   LIG    1        7.440   7.046   1.585  0.00  0.00    +0.090 C 
ENDBRANCH   1  11
BRANCH   2  18
ATOM     18  CA  LIG    1        1.110   5.634  -1.429  0.00  0.00    +0.270 C 
BRANCH  18  19
ATOM     19  C   LIG    1        1.256   4.111  -1.425  0.00  0.00    +0.020 C 
BRANCH  19  20
ATOM     20  C   LIG    1        1.151   3.592   0.010  0.00  0.00    +0.260 C 
BRANCH  20  21
ATOM     21  C   LIG    1        1.171   2.086   0.002  0.00  0.00    -0.120 A 
ATOM     22  C   LIG    1       -0.017   1.378   0.010  0.00  0.00    +0.010 A 
ATOM     23  C   LIG    1        0.002  -0.004   0.002  0.00  0.00    +0.000 A 
ATOM     24  C   LIG    1        1.208  -0.679  -0.013  0.00  0.00    +0.000 A 
ATOM     25  C   LIG    1        2.396   0.029  -0.021  0.00  0.00    +0.000 A 
ATOM     26  C   LIG    1        2.377   1.411  -0.015  0.00  0.00    +0.010 A 
ENDBRANCH  20  21
BRANCH  20  27
ATOM     27  O   LIG    1        2.255   4.080   0.775  0.00  0.00    -0.550 OA
ATOM     28  H   LIG    1        3.119   3.808   0.436  0.00  0.00    +0.370 HD
ENDBRANCH  20  27
ENDBRANCH  19  20
ENDBRANCH  18  19
BRANCH  18  29
ATOM     29  C   LIG    1        1.090   6.141  -2.873  0.00  0.00    +0.180 C 
BRANCH  29  30
ATOM     30  O   LIG    1        2.257   5.679  -3.556  0.00  0.00    -0.570 OA
ATOM     31  H   LIG    1        2.311   5.963  -4.479  0.00  0.00    +0.380 HD
ENDBRANCH  29  30
ENDBRANCH  18  29
ENDBRANCH   2  18
TORSDOF 8
