REMARK  Name = ZINCrH000004ognU.0
REMARK                            x       y       z     vdW  Elec       q    Type
REMARK                         _______ _______ _______ _____ _____    ______ ____
ROOT
ATOM      1  N   LIG    1        0.688  -0.476  -1.203  0.00  0.00    -0.720 N 
ATOM      2  H   LIG    1        1.632  -0.695  -1.170  0.00  0.00    +0.400 HD
ATOM      3  C   LIG    1        0.006  -0.608  -2.358  0.00  0.00    +0.490 C 
ATOM      4  O   LIG    1       -1.175  -0.336  -2.400  0.00  0.00    -0.510 OA
ENDROOT
BRANCH   1   6
ATOM      5  C   LIG    1       -0.019   1.526   0.010  0.00  0.00    +0.020 C 
ATOM      6  C   LIG    1        0.002  -0.004   0.002  0.00  0.00    +0.240 C 
BRANCH   6   7
ATOM      7  C   LIG    1        0.742  -0.511   1.242  0.00  0.00    -0.060 C 
ATOM      8  C   LIG    1        0.763  -2.041   1.233  0.00  0.00    +0.020 C 
ATOM      9  C   LIG    1        1.503  -2.548   2.473  0.00  0.00    -0.020 C 
ATOM     10  C   LIG    1        2.938  -2.018   2.462  0.00  0.00    +0.010 C 
ATOM     11  C   LIG    1        2.917  -0.488   2.470  0.00  0.00    -0.020 C 
ATOM     12  C   LIG    1        2.201   0.005   3.729  0.00  0.00    +0.010 C 
ATOM     13  C   LIG    1        0.766  -0.524   3.740  0.00  0.00    -0.020 C 
ATOM     14  C   LIG    1        0.787  -2.054   3.732  0.00  0.00    +0.010 C 
ATOM     15  C   LIG    1        2.178   0.019   1.231  0.00  0.00    +0.030 C 
ATOM     16  C   LIG    1        0.026  -0.018   2.500  0.00  0.00    +0.030 C 
ENDBRANCH   6   7
ENDBRANCH   1   6
BRANCH   3  17
ATOM     17  C   LIG    1        0.712  -1.094  -3.598  0.00  0.00    +0.320 C 
BRANCH  17  18
ATOM     18  N   LIG    1       -0.240  -1.150  -4.711  0.00  0.00    -0.480 N 
ATOM     19  C   LIG    1       -0.401  -0.059  -5.498  0.00  0.00    +0.340 A 
ATOM     20  C   LIG    1       -1.258  -0.037  -6.540  0.00  0.00    -0.160 A 
ATOM     21  C   LIG    1       -2.031  -1.180  -6.848  0.00  0.00    +0.420 A 
ATOM     22  C   LIG    1       -1.863  -2.372  -5.997  0.00  0.00    -0.200 A 
ATOM     23  C   LIG    1       -2.586  -3.541  -6.231  0.00  0.00    +0.110 A 
ATOM     24  C   LIG    1       -2.401  -4.625  -5.418  0.00  0.00    -0.030 A 
ATOM     25  C   LIG    1       -1.499  -4.571  -4.365  0.00  0.00    +0.080 A 
ATOM     26  C   LIG    1       -0.775  -3.425  -4.117  0.00  0.00    -0.050 A 
ATOM     27  O   LIG    1       -2.811  -1.181  -7.786  0.00  0.00    -0.500 OA
ATOM     28  C   LIG    1       -0.944  -2.312  -4.935  0.00  0.00    +0.200 A 
ENDBRANCH  17  18
ENDBRANCH   3  17
TORSDOF 4
