REMARK  Name = ZINCtj00001UqOq1.0
REMARK                            x       y       z     vdW  Elec       q    Type
REMARK                         _______ _______ _______ _____ _____    ______ ____
ROOT
ATOM      1  C   LIG    1       -0.183   0.459   2.514  0.00  0.00    +0.130 C 
ENDROOT
BRANCH   1   4
ATOM      2  N   LIG    1       -2.040   1.268   5.533  0.00  0.00    -0.290 N 
ATOM      3  C   LIG    1       -1.487   0.345   4.712  0.00  0.00    +0.150 A 
ATOM      4  C   LIG    1       -0.925   1.035   3.692  0.00  0.00    -0.030 A 
ATOM      5  N   LIG    1       -1.154   2.330   3.939  0.00  0.00    -0.270 NA
ATOM      6  N   LIG    1       -1.821   2.434   5.034  0.00  0.00    -0.080 NA
BRANCH   2   7
ATOM      7  C   LIG    1       -2.763   0.988   6.776  0.00  0.00    +0.340 C 
BRANCH   7   8
ATOM      8  C   LIG    1       -2.124   1.769   7.925  0.00  0.00    +0.080 C 
BRANCH   8   9
ATOM      9  C   LIG    1       -2.879   1.477   9.223  0.00  0.00    +0.310 C 
BRANCH   9  10
ATOM     10  O   LIG    1       -2.719   0.099   9.568  0.00  0.00    -0.390 OA
BRANCH  10  12
ATOM     11  C   LIG    1       -3.453  -1.865  10.770  0.00  0.00    +0.060 C 
ATOM     12  C   LIG    1       -3.792  -0.434  10.346  0.00  0.00    +0.150 C 
ENDBRANCH  10  12
ENDBRANCH   9  10
BRANCH   9  13
ATOM     13  O   LIG    1       -2.357   2.294  10.273  0.00  0.00    -0.390 OA
BRANCH  13  14
ATOM     14  C   LIG    1       -3.146   2.285  11.464  0.00  0.00    +0.160 C 
ATOM     15  C   LIG    1       -2.587   3.309  12.454  0.00  0.00    +0.070 C 
ENDBRANCH  13  14
ENDBRANCH   9  13
ENDBRANCH   8   9
ENDBRANCH   7   8
ENDBRANCH   2   7
ENDBRANCH   1   4
BRANCH   1  16
ATOM     16  C   LIG    1       -0.821   0.959   1.216  0.00  0.00    +0.040 C 
BRANCH  16  17
ATOM     17  C   LIG    1       -0.067   0.374   0.020  0.00  0.00    +0.030 C 
BRANCH  17  18
ATOM     18  C   LIG    1       -0.705   0.873  -1.278  0.00  0.00    +0.250 C 
BRANCH  18  19
ATOM     19  N   LIG    1        0.095   0.417  -2.423  0.00  0.00    -0.370 N 
ATOM     20  C   LIG    1       -0.399   1.085  -3.625  0.00  0.00    +0.250 C 
ATOM     21  C   LIG    1        0.737   1.240  -4.612  0.00  0.00    +0.060 C 
ATOM     22  C   LIG    1        0.739   0.046  -5.583  0.00  0.00    +0.320 C 
ATOM     23  N   LIG    1        0.432  -1.214  -4.876  0.00  0.00    -1.010 NA
ATOM     24  C   LIG    1        0.985  -1.527  -3.575  0.00  0.00    +0.340 C 
ATOM     25  C   LIG    1        0.049  -0.994  -2.465  0.00  0.00    +0.210 C 
ATOM     26  H   LIG    1        1.052   0.700  -2.275  0.00  0.00    +0.420 HD
BRANCH  23  27
ATOM     27  S   LIG    1       -0.581  -2.308  -5.597  0.00  0.00    +2.600 S 
ATOM     28  O   LIG    1       -0.197  -3.559  -5.043  0.00  0.00    -0.940 OA
ATOM     29  O   LIG    1       -0.443  -2.049  -6.988  0.00  0.00    -0.930 OA
ATOM     30  C   LIG    1       -2.236  -1.839  -5.023  0.00  0.00    -0.290 C 
ENDBRANCH  23  27
ENDBRANCH  18  19
ENDBRANCH  17  18
ENDBRANCH  16  17
ENDBRANCH   1  16
TORSDOF 13
