REMARK  Name = ZINCtj00001UqOq1.1
REMARK                            x       y       z     vdW  Elec       q    Type
REMARK                         _______ _______ _______ _____ _____    ______ ____
ROOT
ATOM      1  C   LIG    1       -2.075   2.688  -0.335  0.00  0.00    +0.130 C 
ENDROOT
BRANCH   1   4
ATOM      2  N   LIG    1       -2.878   2.645   3.210  0.00  0.00    -0.290 N 
ATOM      3  C   LIG    1       -2.630   1.978   2.059  0.00  0.00    +0.150 A 
ATOM      4  C   LIG    1       -2.402   2.923   1.117  0.00  0.00    -0.030 A 
ATOM      5  N   LIG    1       -2.529   4.106   1.728  0.00  0.00    -0.270 NA
ATOM      6  N   LIG    1       -2.811   3.907   2.967  0.00  0.00    -0.080 NA
BRANCH   2   7
ATOM      7  C   LIG    1       -3.177   2.035   4.508  0.00  0.00    +0.340 C 
BRANCH   7   8
ATOM      8  C   LIG    1       -2.198   2.565   5.558  0.00  0.00    +0.080 C 
BRANCH   8   9
ATOM      9  C   LIG    1       -2.510   1.928   6.914  0.00  0.00    +0.310 C 
BRANCH   9  10
ATOM     10  O   LIG    1       -2.267   0.521   6.846  0.00  0.00    -0.390 OA
BRANCH  10  12
ATOM     11  C   LIG    1       -2.659  -1.718   7.665  0.00  0.00    +0.050 C 
ATOM     12  C   LIG    1       -3.099  -0.254   7.712  0.00  0.00    +0.150 C 
ENDBRANCH  10  12
ENDBRANCH   9  10
BRANCH   9  13
ATOM     13  O   LIG    1       -1.673   2.508   7.916  0.00  0.00    -0.380 OA
BRANCH  13  14
ATOM     14  C   LIG    1       -2.084   2.220   9.254  0.00  0.00    +0.160 C 
ATOM     15  C   LIG    1       -1.224   3.021  10.235  0.00  0.00    +0.070 C 
ENDBRANCH  13  14
ENDBRANCH   9  13
ENDBRANCH   8   9
ENDBRANCH   7   8
ENDBRANCH   2   7
ENDBRANCH   1   4
BRANCH   1  16
ATOM     16  C   LIG    1       -3.081   3.437  -1.211  0.00  0.00    +0.040 C 
BRANCH  16  17
ATOM     17  C   LIG    1       -2.750   3.199  -2.686  0.00  0.00    +0.030 C 
BRANCH  17  18
ATOM     18  C   LIG    1       -3.756   3.948  -3.562  0.00  0.00    +0.250 C 
BRANCH  18  19
ATOM     19  N   LIG    1       -3.438   3.719  -4.978  0.00  0.00    -0.370 N 
ATOM     20  C   LIG    1       -3.727   2.353  -5.345  0.00  0.00    +0.230 C 
ATOM     21  C   LIG    1       -2.632   1.824  -6.303  0.00  0.00    +0.070 C 
ATOM     22  C   LIG    1       -2.206   2.937  -7.288  0.00  0.00    +0.280 C 
ATOM     23  N   LIG    1       -3.266   3.743  -7.832  0.00  0.00    -1.010 NA
ATOM     24  C   LIG    1       -3.696   4.975  -7.087  0.00  0.00    +0.350 C 
ATOM     25  C   LIG    1       -4.311   4.518  -5.832  0.00  0.00    +0.240 C 
ATOM     26  H   LIG    1       -2.470   3.938  -5.160  0.00  0.00    +0.420 HD
BRANCH  23  27
ATOM     27  S   LIG    1       -3.999   3.321  -9.255  0.00  0.00    +2.600 S 
ATOM     28  O   LIG    1       -5.296   3.895  -9.165  0.00  0.00    -0.940 OA
ATOM     29  O   LIG    1       -3.826   1.913  -9.334  0.00  0.00    -0.940 OA
ATOM     30  C   LIG    1       -3.020   4.155 -10.534  0.00  0.00    -0.270 C 
ENDBRANCH  23  27
ENDBRANCH  18  19
ENDBRANCH  17  18
ENDBRANCH  16  17
ENDBRANCH   1  16
TORSDOF 13
