REMARK  Name = ZINCpk000005Z75S.0
REMARK                            x       y       z     vdW  Elec       q    Type
REMARK                         _______ _______ _______ _____ _____    ______ ____
ROOT
ATOM      1  O   LIG    1        7.546   8.095   9.324  0.00  0.00    -0.530 OA
ATOM      2  C   LIG    1        6.606   8.349   8.595  0.00  0.00    +0.590 C 
ATOM      3  N   LIG    1        6.236   7.470   7.642  0.00  0.00    -0.610 N 
ATOM      4  C   LIG    1        6.961   6.204   7.469  0.00  0.00    +0.280 C 
ATOM      5  C   LIG    1        7.402   6.084   6.007  0.00  0.00    +0.020 C 
ATOM      6  C   LIG    1        6.182   6.239   5.096  0.00  0.00    +0.010 C 
ATOM      7  C   LIG    1        5.563   7.623   5.301  0.00  0.00    +0.020 C 
ATOM      8  C   LIG    1        5.101   7.761   6.755  0.00  0.00    +0.250 C 
ENDROOT
BRANCH   6   9
ATOM      9  C   LIG    1        6.613   6.085   3.636  0.00  0.00    -0.010 C 
ATOM     10  C   LIG    1        7.065   4.630   3.340  0.00  0.00    +0.040 C 
ATOM     11  C   LIG    1        6.790   4.481   1.829  0.00  0.00    +0.240 C 
ATOM     12  N   LIG    1        5.787   5.493   1.466  0.00  0.00    -0.620 N 
ATOM     13  C   LIG    1        5.295   5.703   0.229  0.00  0.00    +0.540 C 
ATOM     14  O   LIG    1        4.462   6.566   0.046  0.00  0.00    -0.530 OA
ATOM     15  C   LIG    1        5.403   6.235   2.681  0.00  0.00    +0.260 C 
BRANCH  13  16
ATOM     16  C   LIG    1        5.779   4.866  -0.927  0.00  0.00    -0.010 C 
ATOM     17  C   LIG    1        5.075   3.504  -1.041  0.00  0.00    +0.020 C 
ATOM     18  C   LIG    1        5.072   3.721  -2.563  0.00  0.00    +0.170 C 
ATOM     19  C   LIG    1        5.122   5.230  -2.268  0.00  0.00    +0.070 C 
BRANCH  18  20
ATOM     20  O   LIG    1        3.863   3.302  -3.199  0.00  0.00    -0.560 OA
ATOM     21  H   LIG    1        3.825   2.354  -3.386  0.00  0.00    +0.380 HD
ENDBRANCH  18  20
ENDBRANCH  13  16
ENDBRANCH   6   9
BRANCH   2  22
ATOM     22  C   LIG    1        5.875   9.611   8.753  0.00  0.00    -0.060 A 
ATOM     23  C   LIG    1        6.394  10.801   9.214  0.00  0.00    +0.040 A 
ATOM     24  C   LIG    1        5.354  11.736   9.202  0.00  0.00    -0.060 A 
ATOM     25  C   LIG    1        4.242  11.113   8.744  0.00  0.00    +0.190 A 
ATOM     26  N   LIG    1        4.546   9.823   8.462  0.00  0.00    -0.540 N 
ATOM     27  H   LIG    1        3.930   9.159   8.114  0.00  0.00    +0.420 HD
ENDBRANCH   2  22
TORSDOF 4
