REMARK  Name = ZINC650000002wHD.0
REMARK                            x       y       z     vdW  Elec       q    Type
REMARK                         _______ _______ _______ _____ _____    ______ ____
ROOT
ATOM      1  C   LIG    1       -0.013   1.086   0.008  0.00  0.00    +0.320 C 
ATOM      2  N   LIG    1       -0.700   1.560   1.217  0.00  0.00    -0.510 N 
ATOM      3  H   LIG    1       -0.714   2.568   1.222  0.00  0.00    +0.440 HD
ATOM      4  H   LIG    1       -0.212   1.225   2.034  0.00  0.00    +0.430 HD
ENDROOT
BRANCH   2   5
ATOM      5  C   LIG    1       -2.078   1.051   1.227  0.00  0.00    +0.290 C 
BRANCH   5   6
ATOM      6  C   LIG    1       -2.795   1.544   2.486  0.00  0.00    +0.200 C 
BRANCH   6   7
ATOM      7  O   LIG    1       -2.917   2.967   2.437  0.00  0.00    -0.400 OA
ATOM      8  C   LIG    1       -3.575   3.533   3.573  0.00  0.00    +0.240 C 
ENDBRANCH   6   7
ENDBRANCH   5   6
ENDBRANCH   2   5
TORSDOF 3
