REMARK  Name = ZINCtj0000001AZL.0
REMARK                            x       y       z     vdW  Elec       q    Type
REMARK                         _______ _______ _______ _____ _____    ______ ____
ROOT
ATOM      1  C   LIG    1        2.230  -7.417   3.355  0.00  0.00    +0.090 C 
ENDROOT
BRANCH   1   9
ATOM      2  C   LIG    1        3.828 -11.886   9.356  0.00  0.00    +0.330 C 
ATOM      3  N   LIG    1        3.179 -12.042   8.048  0.00  0.00    -0.400 N 
ATOM      4  C   LIG    1        1.827 -11.390   8.068  0.00  0.00    +0.310 C 
ATOM      5  C   LIG    1        1.714 -10.850   6.665  0.00  0.00    -0.120 C 
ATOM      6  C   LIG    1        0.877  -9.680   6.229  0.00  0.00    +0.310 C 
ATOM      7  N   LIG    1        1.690  -9.010   5.169  0.00  0.00    -0.630 N 
ATOM      8  C   LIG    1        3.030  -9.681   5.134  0.00  0.00    +0.320 C 
ATOM      9  C   LIG    1        1.290  -7.990   4.384  0.00  0.00    +0.540 C 
ATOM     10  O   LIG    1        0.173  -7.534   4.505  0.00  0.00    -0.520 OA
ATOM     11  C   LIG    1        1.575 -12.000   5.665  0.00  0.00    +0.080 C 
ATOM     12  C   LIG    1        3.154 -10.197   6.551  0.00  0.00    -0.110 C 
ATOM     13  C   LIG    1        3.289  -9.034   7.535  0.00  0.00    +0.070 C 
ATOM     14  C   LIG    1        3.994 -11.362   6.992  0.00  0.00    +0.300 C 
ATOM     15  H   LIG    1        3.083 -13.022   7.827  0.00  0.00    +0.430 HD
ENDBRANCH   1   9
BRANCH   1  16
ATOM     16  C   LIG    1        1.534  -6.280   2.604  0.00  0.00    +0.070 C 
BRANCH  16  17
ATOM     17  C   LIG    1        2.474  -5.707   1.575  0.00  0.00    +0.520 C 
ATOM     18  N   LIG    1        2.073  -4.688   0.790  0.00  0.00    -0.610 N 
ATOM     19  C   LIG    1        2.975  -4.114  -0.220  0.00  0.00    +0.290 C 
ATOM     20  C   LIG    1        3.010  -2.594  -0.034  0.00  0.00    +0.200 C 
ATOM     21  N   LIG    1        1.638  -2.069  -0.056  0.00  0.00    -0.480 N 
ATOM     22  C   LIG    1        0.847  -2.599   1.062  0.00  0.00    +0.190 C 
ATOM     23  C   LIG    1        0.723  -4.120   0.921  0.00  0.00    +0.300 C 
ATOM     24  O   LIG    1        3.591  -6.164   1.454  0.00  0.00    -0.540 OA
BRANCH  21  25
ATOM     25  C   LIG    1        1.636  -0.679  -0.053  0.00  0.00    +0.310 A 
ATOM     26  C   LIG    1        0.427   0.009  -0.072  0.00  0.00    -0.050 A 
ATOM     27  C   LIG    1        0.440   1.392  -0.069  0.00  0.00    +0.090 A 
ATOM     28  C   LIG    1        1.666   2.043  -0.047  0.00  0.00    -0.060 A 
ATOM     29  C   LIG    1        2.828   1.298  -0.029  0.00  0.00    +0.290 A 
ATOM     30  N   LIG    1        2.785  -0.021  -0.033  0.00  0.00    -0.520 NA
ENDBRANCH  21  25
ENDBRANCH  16  17
ENDBRANCH   1  16
TORSDOF 4
