REMARK  Name = ZINCvU0000000HCj.0
REMARK                            x       y       z     vdW  Elec       q    Type
REMARK                         _______ _______ _______ _____ _____    ______ ____
ROOT
ATOM      1  N   LIG    1        6.066   2.771  -0.459  0.00  0.00    -0.620 N 
ATOM      2  H   LIG    1        6.121   1.803  -0.437  0.00  0.00    +0.420 HD
ATOM      3  C   LIG    1        7.190   3.507  -0.565  0.00  0.00    +0.560 C 
ATOM      4  O   LIG    1        7.122   4.721  -0.592  0.00  0.00    -0.470 OA
ENDROOT
BRANCH   3   5
ATOM      5  C   LIG    1        8.502   2.841  -0.647  0.00  0.00    -0.130 A 
ATOM      6  C   LIG    1        8.586   1.447  -0.610  0.00  0.00    +0.070 A 
ATOM      7  C   LIG    1        9.815   0.830  -0.693  0.00  0.00    +0.000 A 
ATOM      8  C   LIG    1       10.973   1.586  -0.801  0.00  0.00    +0.070 A 
ATOM      9  C   LIG    1       10.908   2.963  -0.833  0.00  0.00    -0.020 A 
ATOM     10  C   LIG    1        9.677   3.604  -0.757  0.00  0.00    -0.050 A 
BRANCH  10  11
ATOM     11  S   LIG    1        9.590   5.364  -0.798  0.00  0.00    +0.090 S 
BRANCH  11  12
ATOM     12  C   LIG    1       11.330   5.855  -0.943  0.00  0.00    +0.020 C 
BRANCH  12  13
ATOM     13  C   LIG    1       11.425   7.358  -0.991  0.00  0.00    +0.550 C 
ATOM     14  N   LIG    1       12.630   7.954  -1.099  0.00  0.00    -0.620 N 
ATOM     15  C   LIG    1       13.925   7.261  -1.172  0.00  0.00    +0.240 C 
ATOM     16  C   LIG    1       15.019   8.345  -1.262  0.00  0.00    +0.040 C 
ATOM     17  C   LIG    1       14.322   9.592  -0.657  0.00  0.00    +0.040 C 
ATOM     18  C   LIG    1       12.867   9.408  -1.156  0.00  0.00    +0.250 C 
ATOM     19  O   LIG    1       10.419   8.032  -0.933  0.00  0.00    -0.520 OA
ENDBRANCH  12  13
ENDBRANCH  11  12
ENDBRANCH  10  11
ENDBRANCH   3   5
BRANCH   1  23
ATOM     20  C   LIG    1        2.606   3.558  -0.216  0.00  0.00    +0.130 A 
ATOM     21  C   LIG    1        2.831   4.883  -0.275  0.00  0.00    -0.110 A 
ATOM     22  S   LIG    1        4.569   5.141  -0.408  0.00  0.00    +0.210 S 
ATOM     23  C   LIG    1        4.830   3.399  -0.382  0.00  0.00    +0.270 A 
ATOM     24  N   LIG    1        3.688   2.794  -0.278  0.00  0.00    -0.490 NA
BRANCH  20  30
ATOM     25  C   LIG    1       -2.161   3.422  -1.696  0.00  0.00    +0.100 C 
ATOM     26  C   LIG    1       -1.052   2.922  -0.805  0.00  0.00    -0.090 A 
ATOM     27  C   LIG    1       -1.306   1.929   0.123  0.00  0.00    +0.010 A 
ATOM     28  C   LIG    1       -0.295   1.469   0.947  0.00  0.00    +0.000 A 
ATOM     29  C   LIG    1        0.977   1.993   0.840  0.00  0.00    -0.060 A 
ATOM     30  C   LIG    1        1.241   2.991  -0.097  0.00  0.00    -0.020 A 
ATOM     31  C   LIG    1        2.079   1.488   1.735  0.00  0.00    +0.100 C 
ATOM     32  C   LIG    1        0.217   3.454  -0.921  0.00  0.00    +0.020 A 
ENDBRANCH  20  30
ENDBRANCH   1  23
TORSDOF 6
