REMARK  Name = ZINCpk00001AZiXB.0
REMARK                            x       y       z     vdW  Elec       q    Type
REMARK                         _______ _______ _______ _____ _____    ______ ____
ROOT
ATOM      1  C   LIG    1        3.981  -1.879   0.575  0.00  0.00    +0.180 A 
ATOM      2  C   LIG    1        3.687  -0.692  -0.064  0.00  0.00    +0.080 A 
ATOM      3  N   LIG    1        4.792  -0.288  -0.719  0.00  0.00    -0.430 NA
ATOM      4  C   LIG    1        5.765  -1.160  -0.514  0.00  0.00    +0.190 A 
ATOM      5  C   LIG    1        7.102  -1.204  -0.964  0.00  0.00    +0.260 A 
ATOM      6  C   LIG    1        7.895  -2.245  -0.596  0.00  0.00    -0.670 A 
ATOM      7  C   LIG    1        7.378  -3.262   0.227  0.00  0.00    +0.080 A 
ATOM      8  C   LIG    1        6.099  -3.210   0.651  0.00  0.00    +0.200 A 
ATOM      9  N   LIG    1        5.286  -2.169   0.290  0.00  0.00    -0.370 N 
ENDROOT
BRANCH   2  10
ATOM     10  C   LIG    1        2.385   0.011  -0.038  0.00  0.00    +0.040 A 
ATOM     11  C   LIG    1        1.182  -0.705  -0.009  0.00  0.00    +0.000 A 
ATOM     12  C   LIG    1       -0.008  -0.010   0.014  0.00  0.00    +0.260 A 
ATOM     13  N   LIG    1       -0.023   1.310   0.008  0.00  0.00    -0.480 NA
ATOM     14  C   LIG    1        1.088   2.022  -0.019  0.00  0.00    +0.130 A 
ATOM     15  C   LIG    1        1.006   3.527  -0.024  0.00  0.00    +0.130 C 
ATOM     16  C   LIG    1        2.322   1.409  -0.043  0.00  0.00    +0.000 A 
ENDBRANCH   2  10
BRANCH   6  17
ATOM     17  S   LIG    1        9.567  -2.319  -1.148  0.00  0.00    +2.710 S 
ATOM     18  O   LIG    1        9.753  -1.209  -2.015  0.00  0.00    -0.960 OA
ATOM     19  O   LIG    1        9.798  -3.664  -1.546  0.00  0.00    -0.950 OA
BRANCH  17  20
ATOM     20  N   LIG    1       10.531  -2.050   0.171  0.00  0.00    -1.250 NA
ATOM     21  H   LIG    1       11.496  -2.051   0.075  0.00  0.00    +0.420 HD
ATOM     22  H   LIG    1       10.130  -1.891   1.040  0.00  0.00    +0.420 HD
ENDBRANCH  17  20
ENDBRANCH   6  17
BRANCH   1  23
ATOM     23  N   LIG    1        3.114  -2.637   1.360  0.00  0.00    -0.570 N 
ATOM     24  H   LIG    1        2.800  -2.112   2.162  0.00  0.00    +0.370 HD
BRANCH  23  25
ATOM     25  C   LIG    1        3.744  -3.899   1.771  0.00  0.00    +0.200 C 
BRANCH  25  26
ATOM     26  C   LIG    1        2.717  -4.767   2.502  0.00  0.00    +0.180 C 
BRANCH  26  28
ATOM     27  C   LIG    1        0.661  -5.957   2.179  0.00  0.00    +0.200 C 
ATOM     28  O   LIG    1        1.678  -5.141   1.594  0.00  0.00    -0.380 OA
ENDBRANCH  26  28
ENDBRANCH  25  26
ENDBRANCH  23  25
ENDBRANCH   1  23
TORSDOF 7
