REMARK  Name = ZINCpk000000pUnz.0
REMARK                            x       y       z     vdW  Elec       q    Type
REMARK                         _______ _______ _______ _____ _____    ______ ____
ROOT
ATOM      1  C   LIG    1        1.066   5.950   0.124  0.00  0.00    +0.500 C 
ATOM      2  N   LIG    1       -0.083   5.252   0.030  0.00  0.00    -0.670 N 
ATOM      3  H   LIG    1       -0.931   5.719  -0.026  0.00  0.00    +0.420 HD
ATOM      4  O   LIG    1        2.131   5.370   0.111  0.00  0.00    -0.500 OA
ENDROOT
BRANCH   2   5
ATOM      5  C   LIG    1       -0.052   3.853   0.012  0.00  0.00    +0.130 A 
ATOM      6  C   LIG    1        0.997   3.191  -0.606  0.00  0.00    +0.100 A 
ATOM      7  C   LIG    1        1.023   1.795  -0.621  0.00  0.00    -0.120 A 
ATOM      8  C   LIG    1       -0.007   1.076  -0.013  0.00  0.00    +0.070 A 
ATOM      9  C   LIG    1       -1.050   1.745   0.595  0.00  0.00    +0.020 A 
ATOM     10  C   LIG    1       -1.073   3.127   0.615  0.00  0.00    -0.070 A 
ATOM     11  C   LIG    1       -2.212   3.850   1.286  0.00  0.00    +0.110 C 
BRANCH   7  12
ATOM     12  C   LIG    1        2.138   1.082  -1.278  0.00  0.00    +0.510 C 
ATOM     13  O   LIG    1        3.033   1.710  -1.806  0.00  0.00    -0.500 OA
BRANCH  12  14
ATOM     14  O   LIG    1        2.160  -0.265  -1.292  0.00  0.00    -0.350 OA
ATOM     15  C   LIG    1        3.286  -0.899  -1.955  0.00  0.00    +0.260 C 
ENDBRANCH  12  14
ENDBRANCH   7  12
ENDBRANCH   2   5
BRANCH   1  16
ATOM     16  C   LIG    1        1.027   7.452   0.246  0.00  0.00    +0.360 C 
BRANCH  16  21
ATOM     17  C   LIG    1        4.463   8.799  -0.169  0.00  0.00    +0.120 C 
ATOM     18  N   LIG    1        4.298   8.636   1.286  0.00  0.00    -0.710 N 
ATOM     19  H   LIG    1        4.954   8.840   1.970  0.00  0.00    +0.440 HD
ATOM     20  C   LIG    1        3.058   8.151   1.480  0.00  0.00    +0.710 C 
ATOM     21  N   LIG    1        2.395   7.970   0.333  0.00  0.00    -0.560 N 
ATOM     22  O   LIG    1        2.594   7.903   2.575  0.00  0.00    -0.540 OA
ATOM     23  C   LIG    1        4.708  10.268  -0.521  0.00  0.00    +0.090 C 
ATOM     24  C   LIG    1        3.138   8.329  -0.733  0.00  0.00    +0.540 C 
ATOM     25  O   LIG    1        2.813   8.284  -1.901  0.00  0.00    -0.460 OA
BRANCH  17  27
ATOM     26  C   LIG    1        6.914   8.340  -0.003  0.00  0.00    +0.040 C 
ATOM     27  C   LIG    1        5.608   7.923  -0.682  0.00  0.00    +0.050 C 
ENDBRANCH  17  27
ENDBRANCH  16  21
ENDBRANCH   1  16
TORSDOF 6
