REMARK  Name = ZINCkj000005iH0P.0
REMARK                            x       y       z     vdW  Elec       q    Type
REMARK                         _______ _______ _______ _____ _____    ______ ____
ROOT
ATOM      1  N   LIG    1       -0.012   1.005   0.008  0.00  0.00    -0.510 N 
ATOM      2  H   LIG    1        0.935   1.354   0.000  0.00  0.00    +0.420 HD
ATOM      3  H   LIG    1        0.002  -0.004   0.002  0.00  0.00    +0.430 HD
ENDROOT
BRANCH   1   4
ATOM      4  C   LIG    1       -0.699   1.479   1.216  0.00  0.00    +0.340 C 
BRANCH   4   8
ATOM      5  C   LIG    1        1.368   0.062   4.682  0.00  0.00    +0.210 A 
ATOM      6  C   LIG    1        0.223  -0.585   4.240  0.00  0.00    -0.100 A 
ATOM      7  C   LIG    1       -0.446  -0.122   3.123  0.00  0.00    +0.130 A 
ATOM      8  C   LIG    1        0.030   0.979   2.437  0.00  0.00    -0.240 A 
ATOM      9  C   LIG    1        1.175   1.630   2.875  0.00  0.00    +0.190 A 
ATOM     10  C   LIG    1        1.845   1.170   3.999  0.00  0.00    -0.090 A 
BRANCH   5  12
ATOM     11  C   LIG    1        1.476  -1.538   6.438  0.00  0.00    +0.250 C 
ATOM     12  O   LIG    1        2.022  -0.391   5.784  0.00  0.00    -0.310 OA
ENDBRANCH   5  12
BRANCH   9  13
ATOM     13  O   LIG    1        1.639   2.716   2.204  0.00  0.00    -0.320 OA
ATOM     14  C   LIG    1        2.822   3.336   2.711  0.00  0.00    +0.270 C 
ENDBRANCH   9  13
ENDBRANCH   4   8
ENDBRANCH   1   4
BRANCH   1  15
ATOM     15  C   LIG    1       -0.722   1.492  -1.183  0.00  0.00    +0.300 C 
BRANCH  15  16
ATOM     16  C   LIG    1       -0.006   0.998  -2.441  0.00  0.00    +0.110 C 
ATOM     17  C   LIG    1        1.464   1.426  -2.396  0.00  0.00    -0.020 C 
ATOM     18  C   LIG    1        2.152   0.999  -3.695  0.00  0.00    +0.230 C 
ATOM     19  O   LIG    1        1.469   1.577  -4.809  0.00  0.00    -0.370 OA
ATOM     20  C   LIG    1        0.103   1.173  -4.929  0.00  0.00    +0.220 C 
ATOM     21  C   LIG    1       -0.668   1.609  -3.680  0.00  0.00    +0.020 C 
BRANCH  16  22
ATOM     22  O   LIG    1       -0.087  -0.427  -2.510  0.00  0.00    -0.560 OA
ATOM     23  H   LIG    1        0.347  -0.809  -3.285  0.00  0.00    +0.400 HD
ENDBRANCH  16  22
ENDBRANCH  15  16
ENDBRANCH   1  15
TORSDOF 7
