REMARK  Name = ZINCpk00000l6nwr.1
REMARK                            x       y       z     vdW  Elec       q    Type
REMARK                         _______ _______ _______ _____ _____    ______ ____
ROOT
ATOM      1  O   LIG    1        5.618  -1.671  -4.878  0.00  0.00    -0.530 OA
ATOM      2  C   LIG    1        5.671  -2.261  -3.820  0.00  0.00    +0.550 C 
ATOM      3  N   LIG    1        5.057  -1.753  -2.733  0.00  0.00    -0.720 N 
ATOM      4  H   LIG    1        5.100  -2.225  -1.887  0.00  0.00    +0.420 HD
ENDROOT
BRANCH   3   5
ATOM      5  C   LIG    1        4.325  -0.487  -2.830  0.00  0.00    +0.250 C 
ATOM      6  C   LIG    1        2.857  -0.744  -3.225  0.00  0.00    +0.060 C 
ATOM      7  C   LIG    1        2.023  -0.192  -2.050  0.00  0.00    +0.260 C 
ATOM      8  N   LIG    1        2.905   0.816  -1.406  0.00  0.00    -0.390 N 
ATOM      9  H   LIG    1        2.894   1.680  -1.926  0.00  0.00    +0.430 HD
ATOM     10  C   LIG    1        4.255   0.199  -1.449  0.00  0.00    +0.270 C 
BRANCH   8  11
ATOM     11  C   LIG    1        2.490   1.048  -0.016  0.00  0.00    +0.330 C 
BRANCH  11  12
ATOM     12  C   LIG    1        1.175   1.783   0.000  0.00  0.00    -0.160 A 
ATOM     13  C   LIG    1       -0.013   1.076   0.008  0.00  0.00    +0.040 A 
ATOM     14  C   LIG    1       -1.219   1.751   0.017  0.00  0.00    +0.030 A 
ATOM     15  C   LIG    1       -1.238   3.133   0.029  0.00  0.00    +0.040 A 
ATOM     16  C   LIG    1       -0.050   3.840   0.022  0.00  0.00    +0.010 A 
ATOM     17  C   LIG    1        1.156   3.165   0.008  0.00  0.00    +0.040 A 
ENDBRANCH  11  12
ENDBRANCH   8  11
ENDBRANCH   3   5
BRANCH   2  18
ATOM     18  C   LIG    1        6.424  -3.563  -3.720  0.00  0.00    +0.040 C 
ATOM     19  C   LIG    1        7.602  -3.417  -2.741  0.00  0.00    +0.040 C 
ATOM     20  C   LIG    1        8.885  -3.698  -3.550  0.00  0.00    +0.010 C 
ATOM     21  C   LIG    1        8.485  -3.394  -5.015  0.00  0.00    +0.010 C 
ATOM     22  C   LIG    1        7.033  -3.927  -5.090  0.00  0.00    +0.070 C 
BRANCH  18  23
ATOM     23  C   LIG    1        5.500  -4.659  -3.258  0.00  0.00    +0.060 A 
ATOM     24  N   LIG    1        5.211  -5.771  -3.909  0.00  0.00    -0.370 NA
ATOM     25  N   LIG    1        4.389  -6.448  -3.182  0.00  0.00    -0.190 NA
ATOM     26  N   LIG    1        4.148  -5.789  -2.102  0.00  0.00    -0.190 NA
ATOM     27  N   LIG    1        4.819  -4.688  -2.126  0.00  0.00    -0.400 NA
ENDBRANCH  18  23
ENDBRANCH   2  18
TORSDOF 5
