REMARK  Name = ZINCpk00000l6nwr.0
REMARK                            x       y       z     vdW  Elec       q    Type
REMARK                         _______ _______ _______ _____ _____    ______ ____
ROOT
ATOM      1  O   LIG    1       -1.871   4.155   3.136  0.00  0.00    -0.530 OA
ATOM      2  C   LIG    1       -2.818   3.866   2.436  0.00  0.00    +0.550 C 
ATOM      3  N   LIG    1       -2.616   3.294   1.232  0.00  0.00    -0.730 N 
ATOM      4  H   LIG    1       -3.373   3.063   0.672  0.00  0.00    +0.420 HD
ENDROOT
BRANCH   3   5
ATOM      5  C   LIG    1       -1.253   3.020   0.771  0.00  0.00    +0.260 C 
ATOM      6  C   LIG    1       -0.798   1.615   1.234  0.00  0.00    +0.070 C 
ATOM      7  C   LIG    1       -0.013   1.086   0.008  0.00  0.00    +0.260 C 
ATOM      8  N   LIG    1       -0.788   1.606  -1.147  0.00  0.00    -0.390 N 
ATOM      9  H   LIG    1       -1.597   1.026  -1.313  0.00  0.00    +0.430 HD
ATOM     10  C   LIG    1       -1.209   2.972  -0.768  0.00  0.00    +0.260 C 
BRANCH   8  11
ATOM     11  C   LIG    1        0.059   1.651  -2.347  0.00  0.00    +0.320 C 
BRANCH  11  12
ATOM     12  C   LIG    1        0.421   0.247  -2.758  0.00  0.00    -0.160 A 
ATOM     13  C   LIG    1        1.566  -0.346  -2.260  0.00  0.00    +0.040 A 
ATOM     14  C   LIG    1        1.896  -1.635  -2.634  0.00  0.00    +0.010 A 
ATOM     15  C   LIG    1        1.086  -2.328  -3.514  0.00  0.00    +0.040 A 
ATOM     16  C   LIG    1       -0.057  -1.734  -4.016  0.00  0.00    +0.020 A 
ATOM     17  C   LIG    1       -0.389  -0.446  -3.638  0.00  0.00    +0.040 A 
ENDBRANCH  11  12
ENDBRANCH   8  11
ENDBRANCH   3   5
BRANCH   2  18
ATOM     18  C   LIG    1       -4.220   4.148   2.911  0.00  0.00    +0.040 C 
ATOM     19  C   LIG    1       -4.902   5.157   1.971  0.00  0.00    +0.040 C 
ATOM     20  C   LIG    1       -5.257   6.389   2.830  0.00  0.00    +0.010 C 
ATOM     21  C   LIG    1       -4.266   6.320   4.019  0.00  0.00    +0.010 C 
ATOM     22  C   LIG    1       -4.184   4.801   4.308  0.00  0.00    +0.070 C 
BRANCH  18  23
ATOM     23  C   LIG    1       -5.014   2.868   2.960  0.00  0.00    +0.060 A 
ATOM     24  N   LIG    1       -5.593   2.338   4.027  0.00  0.00    -0.370 NA
ATOM     25  N   LIG    1       -6.174   1.249   3.655  0.00  0.00    -0.190 NA
ATOM     26  N   LIG    1       -5.972   1.075   2.395  0.00  0.00    -0.190 NA
ATOM     27  N   LIG    1       -5.264   2.054   1.945  0.00  0.00    -0.400 NA
ENDBRANCH  18  23
ENDBRANCH   2  18
TORSDOF 5
