REMARK  Name = ZINCrD000000fyNP.0
REMARK                            x       y       z     vdW  Elec       q    Type
REMARK                         _______ _______ _______ _____ _____    ______ ____
ROOT
ATOM      1  N   LIG    1       -0.859   5.480  -4.829  0.00  0.00    -0.680 N 
ATOM      2  H   LIG    1       -0.775   4.526  -4.678  0.00  0.00    +0.400 HD
ATOM      3  C   LIG    1       -1.059   6.313  -3.788  0.00  0.00    +0.700 C 
ATOM      4  N   LIG    1       -1.028   5.836  -2.528  0.00  0.00    -0.730 N 
ATOM      5  H   LIG    1       -0.862   4.893  -2.370  0.00  0.00    +0.400 HD
ATOM      6  O   LIG    1       -1.268   7.494  -3.986  0.00  0.00    -0.570 OA
ENDROOT
BRANCH   1  12
ATOM      7  C   LIG    1       -1.073   5.185  -7.217  0.00  0.00    -0.150 A 
ATOM      8  C   LIG    1       -0.991   5.695  -8.498  0.00  0.00    +0.060 A 
ATOM      9  C   LIG    1       -0.598   7.006  -8.697  0.00  0.00    -0.020 A 
ATOM     10  C   LIG    1       -0.291   7.811  -7.616  0.00  0.00    +0.030 A 
ATOM     11  C   LIG    1       -0.377   7.308  -6.332  0.00  0.00    +0.020 A 
ATOM     12  C   LIG    1       -0.771   5.993  -6.128  0.00  0.00    +0.180 A 
BRANCH   7  13
ATOM     13  C   LIG    1       -1.495   3.754  -7.001  0.00  0.00    +0.340 C 
BRANCH  13  16
ATOM     14  C   LIG    1       -5.316   3.690  -7.204  0.00  0.00    +0.090 C 
ATOM     15  C   LIG    1       -3.858   3.613  -7.579  0.00  0.00    +0.520 C 
ATOM     16  N   LIG    1       -2.911   3.715  -6.625  0.00  0.00    -0.610 N 
ATOM     17  C   LIG    1       -3.297   3.785  -5.214  0.00  0.00    +0.290 C 
ATOM     18  O   LIG    1       -3.538   3.461  -8.739  0.00  0.00    -0.540 OA
ENDBRANCH  13  16
ENDBRANCH   7  13
ENDBRANCH   1  12
BRANCH   4  19
ATOM     19  C   LIG    1       -1.246   6.741  -1.397  0.00  0.00    +0.280 C 
BRANCH  19  20
ATOM     20  C   LIG    1       -1.160   5.952  -0.089  0.00  0.00    +0.230 C 
ATOM     21  C   LIG    1       -1.262   6.915   1.095  0.00  0.00    +0.040 C 
BRANCH  20  22
ATOM     22  N   LIG    1        0.120   5.241  -0.031  0.00  0.00    -0.630 N 
ATOM     23  C   LIG    1        1.375   5.995   0.032  0.00  0.00    +0.280 C 
BRANCH  22  24
ATOM     24  C   LIG    1        0.144   3.845  -0.035  0.00  0.00    +0.210 A 
ATOM     25  C   LIG    1        1.357   3.170  -0.091  0.00  0.00    -0.080 A 
ATOM     26  C   LIG    1        1.378   1.789  -0.094  0.00  0.00    +0.050 A 
ATOM     27  C   LIG    1        0.193   1.078  -0.043  0.00  0.00    -0.060 A 
ATOM     28  C   LIG    1       -1.017   1.747   0.006  0.00  0.00    +0.050 A 
ATOM     29  C   LIG    1       -1.044   3.128   0.016  0.00  0.00    -0.090 A 
ENDBRANCH  22  24
ENDBRANCH  20  22
ENDBRANCH  19  20
ENDBRANCH   4  19
TORSDOF 7
