REMARK  Name = ZINCpk00000KfLbz.2
REMARK                            x       y       z     vdW  Elec       q    Type
REMARK                         _______ _______ _______ _____ _____    ______ ____
ROOT
ATOM      1  C   LIG    1        1.247   1.922   0.515  0.00  0.00    +0.260 C 
ATOM      2  C   LIG    1       -0.175   1.435   0.214  0.00  0.00    +0.300 C 
ATOM      3  N   LIG    1       -0.162  -0.036   0.167  0.00  0.00    -0.620 N 
ATOM      4  C   LIG    1        0.457  -0.758   1.290  0.00  0.00    +0.250 C 
ATOM      5  C   LIG    1        1.849  -0.164   1.538  0.00  0.00    +0.230 C 
ATOM      6  C   LIG    1       -0.701  -0.702  -0.874  0.00  0.00    +0.580 C 
ATOM      7  O   LIG    1       -1.273  -0.090  -1.756  0.00  0.00    -0.500 OA
ATOM      8  O   LIG    1        1.736   1.254   1.681  0.00  0.00    -0.380 OA
ENDROOT
BRANCH   1  13
ATOM      9  C   LIG    1        0.898   5.526   0.479  0.00  0.00    +0.230 A 
ATOM     10  N   LIG    1        1.476   5.408   1.645  0.00  0.00    -0.310 NA
ATOM     11  N   LIG    1        1.696   4.036   1.852  0.00  0.00    -0.460 N 
ATOM     12  H   LIG    1        2.106   3.623   2.628  0.00  0.00    +0.450 HD
ATOM     13  C   LIG    1        1.228   3.409   0.758  0.00  0.00    +0.290 A 
ATOM     14  N   LIG    1        0.750   4.315  -0.056  0.00  0.00    -0.520 NA
BRANCH   9  15
ATOM     15  C   LIG    1        0.470   6.823  -0.159  0.00  0.00    +0.150 C 
BRANCH  15  17
ATOM     16  C   LIG    1       -1.403   8.460  -0.394  0.00  0.00    +0.030 C 
ATOM     17  C   LIG    1       -0.968   7.144   0.253  0.00  0.00    +0.010 C 
ENDBRANCH  15  17
ENDBRANCH   9  15
ENDBRANCH   1  13
BRANCH   6  18
ATOM     18  C   LIG    1       -0.597  -2.171  -0.943  0.00  0.00    -0.160 A 
ATOM     19  C   LIG    1       -0.995  -2.965   0.139  0.00  0.00    +0.090 A 
ATOM     20  C   LIG    1       -0.883  -4.339   0.022  0.00  0.00    -0.030 A 
ATOM     21  C   LIG    1       -0.374  -4.884  -1.143  0.00  0.00    +0.290 A 
ATOM     22  N   LIG    1        0.001  -4.119  -2.149  0.00  0.00    -0.510 NA
ATOM     23  C   LIG    1       -0.090  -2.799  -2.093  0.00  0.00    +0.340 A 
BRANCH  23  24
ATOM     24  N   LIG    1        0.315  -2.035  -3.172  0.00  0.00    -0.490 N 
ATOM     25  C   LIG    1       -0.581  -2.229  -4.320  0.00  0.00    +0.230 C 
ATOM     26  C   LIG    1        1.707  -2.332  -3.534  0.00  0.00    +0.220 C 
ENDBRANCH  23  24
ENDBRANCH   6  18
TORSDOF 5
