REMARK  Name = ZINCpk00000KfLbz.0
REMARK                            x       y       z     vdW  Elec       q    Type
REMARK                         _______ _______ _______ _____ _____    ______ ____
ROOT
ATOM      1  C   LIG    1        0.685  -5.867  -1.165  0.00  0.00    +0.270 C 
ATOM      2  C   LIG    1        0.876  -4.867  -0.025  0.00  0.00    +0.300 C 
ATOM      3  N   LIG    1       -0.320  -4.013   0.057  0.00  0.00    -0.620 N 
ATOM      4  C   LIG    1       -1.637  -4.670   0.092  0.00  0.00    +0.240 C 
ATOM      5  C   LIG    1       -1.706  -5.679  -1.060  0.00  0.00    +0.230 C 
ATOM      6  C   LIG    1       -0.213  -2.671   0.092  0.00  0.00    +0.580 C 
ATOM      7  O   LIG    1        0.885  -2.149   0.136  0.00  0.00    -0.500 OA
ATOM      8  O   LIG    1       -0.566  -6.539  -1.000  0.00  0.00    -0.380 OA
ENDROOT
BRANCH   1  12
ATOM      9  C   LIG    1        2.931  -8.723  -1.094  0.00  0.00    +0.190 A 
ATOM     10  N   LIG    1        3.752  -7.709  -1.148  0.00  0.00    -0.280 NA
ATOM     11  N   LIG    1        3.083  -6.612  -1.179  0.00  0.00    -0.270 NA
ATOM     12  C   LIG    1        1.805  -6.875  -1.147  0.00  0.00    +0.180 A 
ATOM     13  N   LIG    1        1.672  -8.222  -1.087  0.00  0.00    -0.560 N 
ATOM     14  H   LIG    1        0.844  -8.725  -1.049  0.00  0.00    +0.430 HD
BRANCH   9  15
ATOM     15  C   LIG    1        3.313 -10.180  -1.044  0.00  0.00    +0.150 C 
BRANCH  15  17
ATOM     16  C   LIG    1        4.609 -11.989  -2.179  0.00  0.00    +0.020 C 
ATOM     17  C   LIG    1        4.221 -10.510  -2.230  0.00  0.00    +0.020 C 
ENDBRANCH  15  17
ENDBRANCH   9  15
ENDBRANCH   1  12
BRANCH   6  18
ATOM     18  C   LIG    1       -1.427  -1.833   0.077  0.00  0.00    -0.160 A 
ATOM     19  C   LIG    1       -2.459  -2.059   0.994  0.00  0.00    +0.090 A 
ATOM     20  C   LIG    1       -3.580  -1.250   0.935  0.00  0.00    -0.030 A 
ATOM     21  C   LIG    1       -3.646  -0.246  -0.015  0.00  0.00    +0.290 A 
ATOM     22  N   LIG    1       -2.660  -0.046  -0.868  0.00  0.00    -0.510 NA
ATOM     23  C   LIG    1       -1.566  -0.791  -0.856  0.00  0.00    +0.340 A 
BRANCH  23  24
ATOM     24  N   LIG    1       -0.556  -0.546  -1.768  0.00  0.00    -0.490 N 
ATOM     25  C   LIG    1        0.098   0.741  -1.496  0.00  0.00    +0.230 C 
ATOM     26  C   LIG    1       -1.068  -0.596  -3.144  0.00  0.00    +0.220 C 
ENDBRANCH  23  24
ENDBRANCH   6  18
TORSDOF 5
