REMARK  Name = ZINCpk00000KfLbz.1
REMARK                            x       y       z     vdW  Elec       q    Type
REMARK                         _______ _______ _______ _____ _____    ______ ____
ROOT
ATOM      1  C   LIG    1        2.163   1.010  -5.495  0.00  0.00    +0.280 C 
ATOM      2  C   LIG    1        1.480   1.667  -6.701  0.00  0.00    +0.290 C 
ATOM      3  N   LIG    1        2.503   1.935  -7.724  0.00  0.00    -0.610 N 
ATOM      4  C   LIG    1        3.398   0.833  -8.113  0.00  0.00    +0.240 C 
ATOM      5  C   LIG    1        3.987   0.217  -6.838  0.00  0.00    +0.220 C 
ATOM      6  C   LIG    1        2.617   3.153  -8.290  0.00  0.00    +0.580 C 
ATOM      7  O   LIG    1        1.822   4.030  -8.010  0.00  0.00    -0.500 OA
ATOM      8  O   LIG    1        2.925  -0.114  -5.941  0.00  0.00    -0.360 OA
ENDROOT
BRANCH   1  11
ATOM      9  C   LIG    1       -0.130   0.494  -2.748  0.00  0.00    +0.290 A 
ATOM     10  N   LIG    1        0.825   1.149  -3.357  0.00  0.00    -0.530 NA
ATOM     11  C   LIG    1        1.116   0.552  -4.513  0.00  0.00    +0.230 A 
ATOM     12  N   LIG    1        0.347  -0.495  -4.655  0.00  0.00    -0.280 NA
ATOM     13  N   LIG    1       -0.470  -0.556  -3.515  0.00  0.00    -0.480 N 
ATOM     14  H   LIG    1       -1.147  -1.223  -3.320  0.00  0.00    +0.440 HD
BRANCH   9  15
ATOM     15  C   LIG    1       -0.739   0.852  -1.417  0.00  0.00    +0.150 C 
BRANCH  15  17
ATOM     16  C   LIG    1       -0.658   0.426   1.044  0.00  0.00    +0.030 C 
ATOM     17  C   LIG    1       -0.041   0.062  -0.308  0.00  0.00    +0.010 C 
ENDBRANCH  15  17
ENDBRANCH   9  15
ENDBRANCH   1  11
BRANCH   6  18
ATOM     18  C   LIG    1        3.705   3.423  -9.247  0.00  0.00    -0.160 A 
ATOM     19  C   LIG    1        3.913   2.581 -10.345  0.00  0.00    +0.090 A 
ATOM     20  C   LIG    1        4.947   2.878 -11.215  0.00  0.00    -0.030 A 
ATOM     21  C   LIG    1        5.740   3.986 -10.978  0.00  0.00    +0.290 A 
ATOM     22  N   LIG    1        5.528   4.768  -9.937  0.00  0.00    -0.510 NA
ATOM     23  C   LIG    1        4.549   4.534  -9.077  0.00  0.00    +0.340 A 
BRANCH  23  24
ATOM     24  N   LIG    1        4.359   5.383  -8.002  0.00  0.00    -0.490 N 
ATOM     25  C   LIG    1        3.888   6.700  -8.450  0.00  0.00    +0.230 C 
ATOM     26  C   LIG    1        5.587   5.505  -7.205  0.00  0.00    +0.220 C 
ENDBRANCH  23  24
ENDBRANCH   6  18
TORSDOF 5
