REMARK  Name = ZINCtj00000nxLkN.1
REMARK                            x       y       z     vdW  Elec       q    Type
REMARK                         _______ _______ _______ _____ _____    ______ ____
ROOT
ATOM      1  C   LIG    1        5.605  -0.782   1.776  0.00  0.00    +0.140 C 
ATOM      2  C   LIG    1        6.448  -0.592   0.497  0.00  0.00    +0.300 C 
ATOM      3  N   LIG    1        6.118   0.779   0.031  0.00  0.00    -0.390 N 
ATOM      4  C   LIG    1        4.658   0.906   0.274  0.00  0.00    +0.290 C 
ATOM      5  H   LIG    1        6.628   1.466   0.566  0.00  0.00    +0.420 HD
ATOM      6  C   LIG    1        4.427   0.203   1.629  0.00  0.00    +0.000 C 
ENDROOT
BRANCH   6   7
ATOM      7  C   LIG    1        3.118  -0.543   1.615  0.00  0.00    +0.530 C 
ATOM      8  N   LIG    1        1.984   0.078   1.993  0.00  0.00    -0.610 N 
ATOM      9  C   LIG    1        0.680  -0.597   1.890  0.00  0.00    +0.270 C 
ATOM     10  C   LIG    1       -0.290   0.336   1.156  0.00  0.00    +0.230 C 
ATOM     11  O   LIG    1       -0.286   1.616   1.794  0.00  0.00    -0.370 OA
ATOM     12  C   LIG    1        0.977   2.284   1.757  0.00  0.00    +0.220 C 
ATOM     13  C   LIG    1        2.012   1.451   2.521  0.00  0.00    +0.250 C 
ATOM     14  O   LIG    1        3.086  -1.704   1.265  0.00  0.00    -0.510 OA
ENDBRANCH   6   7
BRANCH   1  19
ATOM     15  C   LIG    1        8.964   1.274   4.888  0.00  0.00    +0.340 C 
ATOM     16  N   LIG    1        7.880   0.450   4.348  0.00  0.00    -0.450 N 
ATOM     17  C   LIG    1        7.154  -0.465   5.027  0.00  0.00    +0.430 A 
ATOM     18  N   LIG    1        6.283  -0.996   4.213  0.00  0.00    -0.470 NA
ATOM     19  C   LIG    1        6.420  -0.445   2.998  0.00  0.00    -0.010 A 
ATOM     20  C   LIG    1        7.418   0.458   3.059  0.00  0.00    +0.100 A 
ENDBRANCH   1  19
BRANCH   3  21
ATOM     21  C   LIG    1        6.415   0.921  -1.401  0.00  0.00    +0.400 C 
BRANCH  21  22
ATOM     22  C   LIG    1        6.189   2.350  -1.822  0.00  0.00    -0.040 A 
ATOM     23  N   LIG    1        5.079   2.870  -2.275  0.00  0.00    -0.330 NA
ATOM     24  O   LIG    1        5.207   4.051  -2.528  0.00  0.00    +0.140 OA
ATOM     25  C   LIG    1        6.447   4.468  -2.276  0.00  0.00    +0.010 A 
ATOM     26  C   LIG    1        7.055   5.835  -2.439  0.00  0.00    +0.160 C 
ATOM     27  C   LIG    1        8.358   5.883  -1.630  0.00  0.00    +0.040 C 
ATOM     28  C   LIG    1        9.223   4.667  -1.972  0.00  0.00    +0.020 C 
ATOM     29  C   LIG    1        8.571   3.397  -1.407  0.00  0.00    +0.120 C 
ATOM     30  C   LIG    1        7.127   3.390  -1.814  0.00  0.00    -0.200 A 
ENDBRANCH  21  22
ENDBRANCH   3  21
TORSDOF 4
