REMARK  Name = ZINCtj00000nxLkN.0
REMARK                            x       y       z     vdW  Elec       q    Type
REMARK                         _______ _______ _______ _____ _____    ______ ____
ROOT
ATOM      1  C   LIG    1       -0.806   1.620  -1.204  0.00  0.00    +0.140 C 
ATOM      2  C   LIG    1       -0.013   1.086   0.008  0.00  0.00    +0.290 C 
ATOM      3  N   LIG    1       -0.753   1.587   1.194  0.00  0.00    -0.400 N 
ATOM      4  C   LIG    1       -2.185   1.447   0.813  0.00  0.00    +0.280 C 
ATOM      5  H   LIG    1       -0.528   2.555   1.368  0.00  0.00    +0.430 HD
ATOM      6  C   LIG    1       -2.235   1.858  -0.674  0.00  0.00    +0.030 C 
ENDROOT
BRANCH   6   7
ATOM      7  C   LIG    1       -2.607   3.312  -0.806  0.00  0.00    +0.510 C 
ATOM      8  N   LIG    1       -3.820   3.737  -0.400  0.00  0.00    -0.610 N 
ATOM      9  C   LIG    1       -4.800   2.798   0.169  0.00  0.00    +0.240 C 
ATOM     10  C   LIG    1       -5.309   3.382   1.497  0.00  0.00    +0.220 C 
ATOM     11  O   LIG    1       -5.765   4.719   1.277  0.00  0.00    -0.370 OA
ATOM     12  C   LIG    1       -4.745   5.621   0.838  0.00  0.00    +0.230 C 
ATOM     13  C   LIG    1       -4.206   5.152  -0.518  0.00  0.00    +0.270 C 
ATOM     14  O   LIG    1       -1.815   4.100  -1.277  0.00  0.00    -0.510 OA
ENDBRANCH   6   7
BRANCH   1  19
ATOM     15  C   LIG    1       -0.861  -2.711  -3.739  0.00  0.00    +0.340 C 
ATOM     16  N   LIG    1       -0.843  -1.284  -3.412  0.00  0.00    -0.450 N 
ATOM     17  C   LIG    1       -0.829  -0.260  -4.292  0.00  0.00    +0.410 A 
ATOM     18  N   LIG    1       -0.815   0.864  -3.627  0.00  0.00    -0.470 NA
ATOM     19  C   LIG    1       -0.819   0.599  -2.312  0.00  0.00    -0.010 A 
ATOM     20  C   LIG    1       -0.831  -0.738  -2.156  0.00  0.00    +0.120 A 
ENDBRANCH   1  19
BRANCH   3  21
ATOM     21  C   LIG    1       -0.450   0.767   2.374  0.00  0.00    +0.400 C 
BRANCH  21  22
ATOM     22  C   LIG    1       -1.114   1.367   3.587  0.00  0.00    -0.040 A 
ATOM     23  N   LIG    1       -2.311   1.103   4.039  0.00  0.00    -0.340 NA
ATOM     24  O   LIG    1       -2.565   1.746   5.038  0.00  0.00    +0.130 OA
ATOM     25  C   LIG    1       -1.545   2.530   5.380  0.00  0.00    +0.010 A 
ATOM     26  C   LIG    1       -1.411   3.486   6.537  0.00  0.00    +0.150 C 
ATOM     27  C   LIG    1        0.076   3.816   6.718  0.00  0.00    +0.050 C 
ATOM     28  C   LIG    1        0.682   4.227   5.374  0.00  0.00    +0.020 C 
ATOM     29  C   LIG    1        0.763   3.002   4.452  0.00  0.00    +0.120 C 
ATOM     30  C   LIG    1       -0.571   2.315   4.463  0.00  0.00    -0.190 A 
ENDBRANCH  21  22
ENDBRANCH   3  21
TORSDOF 4
