REMARK  Name = ZINCrD0000074Hld.0
REMARK                            x       y       z     vdW  Elec       q    Type
REMARK                         _______ _______ _______ _____ _____    ______ ____
ROOT
ATOM      1  C   LIG    1       -0.864   1.422   1.240  0.00  0.00    -0.030 C 
ATOM      2  C   LIG    1       -0.272   0.774  -0.014  0.00  0.00    +0.040 C 
ATOM      3  C   LIG    1       -1.002   1.298  -1.253  0.00  0.00    +0.020 C 
ATOM      4  C   LIG    1       -2.484   0.919  -1.166  0.00  0.00    +0.270 C 
ATOM      5  N   LIG    1       -3.025   1.415   0.107  0.00  0.00    -0.620 N 
ATOM      6  C   LIG    1       -4.125   2.193   0.129  0.00  0.00    +0.700 C 
ATOM      7  N   LIG    1       -4.680   2.609  -1.027  0.00  0.00    -0.640 N 
ATOM      8  H   LIG    1       -4.333   2.288  -1.875  0.00  0.00    +0.430 HD
ATOM      9  O   LIG    1       -4.616   2.522   1.191  0.00  0.00    -0.550 OA
ATOM     10  C   LIG    1       -2.344   1.045   1.355  0.00  0.00    +0.310 C 
ENDROOT
BRANCH   7  11
ATOM     11  C   LIG    1       -5.747   3.494  -1.005  0.00  0.00    +0.230 A 
ATOM     12  C   LIG    1       -6.408   4.008  -2.084  0.00  0.00    -0.100 A 
ATOM     13  C   LIG    1       -7.393   4.839  -1.514  0.00  0.00    +0.040 A 
ATOM     14  N   LIG    1       -7.239   4.764  -0.222  0.00  0.00    -0.370 NA
ATOM     15  C   LIG    1       -8.417   5.661  -2.254  0.00  0.00    +0.160 C 
ATOM     16  O   LIG    1       -6.333   4.024   0.081  0.00  0.00    +0.110 OA
ENDBRANCH   7  11
BRANCH   1  17
ATOM     17  C   LIG    1       -0.113   0.923   2.476  0.00  0.00    +0.300 C 
BRANCH  17  21
ATOM     18  N   LIG    1       -0.525   2.007   5.965  0.00  0.00    -0.690 N 
ATOM     19  H   LIG    1       -1.272   2.621   5.891  0.00  0.00    +0.410 HD
ATOM     20  C   LIG    1       -0.078   1.355   4.874  0.00  0.00    +0.700 C 
ATOM     21  N   LIG    1       -0.599   1.632   3.662  0.00  0.00    -0.740 N 
ATOM     22  H   LIG    1       -1.296   2.301   3.576  0.00  0.00    +0.400 HD
ATOM     23  O   LIG    1        0.796   0.516   4.982  0.00  0.00    -0.570 OA
BRANCH  18  28
ATOM     24  C   LIG    1        1.965   1.164  10.993  0.00  0.00    +0.100 C 
ATOM     25  C   LIG    1        1.304   1.388   9.657  0.00  0.00    -0.100 A 
ATOM     26  C   LIG    1        2.055   1.333   8.498  0.00  0.00    +0.020 A 
ATOM     27  C   LIG    1        1.452   1.538   7.272  0.00  0.00    +0.020 A 
ATOM     28  C   LIG    1        0.089   1.798   7.205  0.00  0.00    +0.160 A 
ATOM     29  C   LIG    1       -0.661   1.857   8.372  0.00  0.00    -0.020 A 
ATOM     30  C   LIG    1       -0.053   1.647   9.594  0.00  0.00    +0.030 A 
ENDBRANCH  18  28
ENDBRANCH  17  21
ENDBRANCH   1  17
TORSDOF 4
