REMARK  Name = ZINCvU0000000IH3.0
REMARK                            x       y       z     vdW  Elec       q    Type
REMARK                         _______ _______ _______ _____ _____    ______ ____
ROOT
ATOM      1  C   LIG    1        7.355  -0.984  -0.084  0.00  0.00    +0.380 A 
ATOM      2  N   LIG    1        8.001   0.159  -0.172  0.00  0.00    -0.490 NA
ATOM      3  C   LIG    1        9.320  -0.064  -0.138  0.00  0.00    +0.280 A 
ATOM      4  N   LIG    1        9.537  -1.357  -0.028  0.00  0.00    -0.240 NA
ATOM      5  N   LIG    1        8.279  -1.980   0.015  0.00  0.00    -0.330 N 
ENDROOT
BRANCH   3   6
ATOM      6  C   LIG    1       10.371   0.981  -0.214  0.00  0.00    +0.220 A 
ATOM      7  C   LIG    1       10.006   2.320  -0.330  0.00  0.00    +0.040 A 
ATOM      8  C   LIG    1       10.998   3.284  -0.399  0.00  0.00    +0.100 A 
ATOM      9  C   LIG    1       12.322   2.877  -0.349  0.00  0.00    +0.010 A 
ATOM     10  C   LIG    1       12.614   1.528  -0.233  0.00  0.00    +0.180 A 
ATOM     11 CL   LIG    1       14.271   1.012  -0.171  0.00  0.00    -0.020 Cl
ATOM     12  N   LIG    1       11.650   0.632  -0.164  0.00  0.00    -0.450 NA
ENDBRANCH   3   6
BRANCH   5  13
ATOM     13  C   LIG    1        8.026  -3.350   0.134  0.00  0.00    +0.200 A 
ATOM     14  C   LIG    1        8.727  -4.130   1.051  0.00  0.00    +0.000 A 
ATOM     15  C   LIG    1        8.448  -5.478   1.138  0.00  0.00    +0.320 A 
ATOM     16  N   LIG    1        7.532  -6.031   0.366  0.00  0.00    -0.470 NA
ATOM     17  C   LIG    1        6.846  -5.326  -0.516  0.00  0.00    +0.190 A 
ATOM     18 CL   LIG    1        5.654  -6.114  -1.502  0.00  0.00    -0.020 Cl
ATOM     19  C   LIG    1        7.062  -3.969  -0.659  0.00  0.00    +0.030 A 
ENDBRANCH   5  13
BRANCH   1  22
ATOM     20  C   LIG    1        3.698  -0.704  -0.228  0.00  0.00    +0.140 A 
ATOM     21  C   LIG    1        4.937  -0.141  -0.308  0.00  0.00    -0.030 A 
ATOM     22  C   LIG    1        5.885  -1.155  -0.086  0.00  0.00    +0.120 A 
ATOM     23  N   LIG    1        5.239  -2.286   0.122  0.00  0.00    -0.250 NA
ATOM     24  N   LIG    1        3.865  -2.030   0.044  0.00  0.00    -0.450 N 
ATOM     25  H   LIG    1        3.156  -2.682   0.161  0.00  0.00    +0.450 HD
BRANCH  20  30
ATOM     26  C   LIG    1       -1.327   2.025  -0.892  0.00  0.00    +0.100 C 
ATOM     27  C   LIG    1       -0.011   1.311  -0.714  0.00  0.00    -0.070 A 
ATOM     28  C   LIG    1        1.175   2.015  -0.824  0.00  0.00    +0.010 A 
ATOM     29  C   LIG    1        2.382   1.366  -0.667  0.00  0.00    +0.050 A 
ATOM     30  C   LIG    1        2.406  -0.002  -0.397  0.00  0.00    -0.050 A 
ATOM     31  C   LIG    1        1.207  -0.706  -0.287  0.00  0.00    +0.020 A 
ATOM     32  C   LIG    1        0.005  -0.046  -0.446  0.00  0.00    +0.010 A 
ENDBRANCH  20  30
ENDBRANCH   1  22
TORSDOF 4
