REMARK  Name = ZINCrg00000SjSwb.0
REMARK                            x       y       z     vdW  Elec       q    Type
REMARK                         _______ _______ _______ _____ _____    ______ ____
ROOT
ATOM      1  C   LIG    1       -2.179   3.731   0.915  0.00  0.00    +0.540 C 
ATOM      2  N   LIG    1       -2.927   3.022   0.046  0.00  0.00    -0.620 N 
ATOM      3  C   LIG    1       -4.170   3.571  -0.521  0.00  0.00    +0.350 C 
ATOM      4  C   LIG    1       -5.259   2.541  -0.364  0.00  0.00    +0.520 C 
ATOM      5  N   LIG    1       -4.974   1.236  -0.253  0.00  0.00    -0.670 N 
ATOM      6  H   LIG    1       -5.710   0.607  -0.188  0.00  0.00    +0.420 HD
ATOM      7  C   LIG    1       -3.722   0.756  -0.228  0.00  0.00    +0.520 C 
ATOM      8  O   LIG    1       -3.544  -0.435  -0.086  0.00  0.00    -0.480 OA
ATOM      9  O   LIG    1       -6.417   2.901  -0.336  0.00  0.00    -0.480 OA
ATOM     10  C   LIG    1       -2.534   1.669  -0.374  0.00  0.00    +0.170 C 
ATOM     11  C   LIG    1       -2.082   1.701  -1.834  0.00  0.00    +0.040 C 
ATOM     12  C   LIG    1       -0.884   2.643  -1.976  0.00  0.00    +0.020 C 
ATOM     13  C   LIG    1        0.263   2.146  -1.095  0.00  0.00    +0.000 C 
ATOM     14  C   LIG    1       -0.191   2.116   0.366  0.00  0.00    +0.020 C 
ATOM     15  C   LIG    1       -1.389   1.174   0.509  0.00  0.00    +0.070 C 
ATOM     16  O   LIG    1       -1.538   3.160   1.771  0.00  0.00    -0.450 OA
ENDROOT
BRANCH   1  17
ATOM     17  C   LIG    1       -2.141   5.235   0.823  0.00  0.00    +0.130 C 
BRANCH  17  18
ATOM     18  S   LIG    1       -1.058   5.891   2.116  0.00  0.00    +0.080 S 
BRANCH  18  24
ATOM     19  C   LIG    1       -2.089   9.320   0.506  0.00  0.00    +0.200 A 
ATOM     20  C   LIG    1       -1.426  10.255   1.247  0.00  0.00    -0.130 A 
ATOM     21  C   LIG    1       -0.610   9.826   2.309  0.00  0.00    +0.530 A 
ATOM     22  N   LIG    1       -0.510   8.503   2.558  0.00  0.00    -0.620 N 
ATOM     23  H   LIG    1        0.048   8.186   3.286  0.00  0.00    +0.420 HD
ATOM     24  C   LIG    1       -1.195   7.616   1.784  0.00  0.00    +0.360 A 
ATOM     25  O   LIG    1       -0.003  10.635   2.992  0.00  0.00    -0.530 OA
ATOM     26  N   LIG    1       -1.955   8.026   0.787  0.00  0.00    -0.540 NA
BRANCH  19  27
ATOM     27  C   LIG    1       -2.970   9.753  -0.638  0.00  0.00    +0.110 C 
BRANCH  27  29
ATOM     28  C   LIG    1       -3.070  10.136  -3.105  0.00  0.00    +0.030 C 
ATOM     29  C   LIG    1       -2.175   9.696  -1.944  0.00  0.00    +0.010 C 
ENDBRANCH  27  29
ENDBRANCH  19  27
ENDBRANCH  18  24
ENDBRANCH  17  18
ENDBRANCH   1  17
TORSDOF 5
