REMARK  Name = ZINCrg000000nWsg.0
REMARK                            x       y       z     vdW  Elec       q    Type
REMARK                         _______ _______ _______ _____ _____    ______ ____
ROOT
ATOM      1  C   LIG    1       -0.930   1.894   1.440  0.00  0.00    -0.630 A 
ATOM      2  C   LIG    1       -0.728   3.140   2.004  0.00  0.00    +0.110 A 
ATOM      3  C   LIG    1       -1.448   3.516   3.123  0.00  0.00    +0.110 A 
ATOM      4  C   LIG    1       -2.361   2.643   3.683  0.00  0.00    -0.630 A 
ATOM      5  C   LIG    1       -2.559   1.395   3.122  0.00  0.00    +0.110 A 
ATOM      6  C   LIG    1       -1.843   1.021   2.000  0.00  0.00    +0.110 A 
ENDROOT
BRANCH   1   7
ATOM      7  S   LIG    1       -0.017   1.417   0.010  0.00  0.00    +2.690 S 
ATOM      8  O   LIG    1        1.162   2.210   0.003  0.00  0.00    -0.940 OA
ATOM      9  O   LIG    1        0.002  -0.004   0.002  0.00  0.00    -0.940 OA
BRANCH   7  10
ATOM     10  N   LIG    1       -0.900   1.880  -1.312  0.00  0.00    -0.980 NA
BRANCH  10  11
ATOM     11  C   LIG    1       -1.879   0.961  -1.898  0.00  0.00    +0.300 C 
ATOM     12  C   LIG    1       -3.266   1.259  -1.323  0.00  0.00    +0.020 C 
ENDBRANCH  10  11
BRANCH  10  13
ATOM     13  C   LIG    1       -0.702   3.208  -1.897  0.00  0.00    +0.330 C 
BRANCH  13  16
ATOM     14  N   LIG    1        0.619   4.222  -3.726  0.00  0.00    -0.730 N 
ATOM     15  H   LIG    1        0.229   5.078  -3.491  0.00  0.00    +0.400 HD
ATOM     16  C   LIG    1        0.281   3.115  -3.035  0.00  0.00    +0.490 C 
ATOM     17  O   LIG    1        0.768   2.044  -3.329  0.00  0.00    -0.520 OA
BRANCH  14  19
ATOM     18  C   LIG    1        1.782   5.519  -5.443  0.00  0.00    +0.030 C 
ATOM     19  C   LIG    1        1.575   4.131  -4.833  0.00  0.00    +0.250 C 
ENDBRANCH  14  19
ENDBRANCH  13  16
ENDBRANCH  10  13
ENDBRANCH   7  10
ENDBRANCH   1   7
BRANCH   4  20
ATOM     20  S   LIG    1       -3.274   3.121   5.112  0.00  0.00    +2.690 S 
ATOM     21  O   LIG    1       -4.453   2.328   5.119  0.00  0.00    -0.950 OA
ATOM     22  O   LIG    1       -3.293   4.542   5.120  0.00  0.00    -0.950 OA
BRANCH  20  23
ATOM     23  N   LIG    1       -2.392   2.658   6.435  0.00  0.00    -0.990 NA
ATOM     24  C   LIG    1       -2.584   1.331   7.036  0.00  0.00    +0.290 C 
ATOM     25  C   LIG    1       -1.219   0.631   7.123  0.00  0.00    +0.010 C 
ATOM     26  C   LIG    1       -0.239   1.529   7.882  0.00  0.00    +0.020 C 
ATOM     27  C   LIG    1       -0.058   2.846   7.123  0.00  0.00    +0.010 C 
ATOM     28  C   LIG    1       -1.406   3.568   7.034  0.00  0.00    +0.290 C 
ENDBRANCH  20  23
ENDBRANCH   4  20
TORSDOF 8
