REMARK  Name = ZINCpk00000y6x9M.0
REMARK                            x       y       z     vdW  Elec       q    Type
REMARK                         _______ _______ _______ _____ _____    ______ ____
ROOT
ATOM      1  C   LIG    1       -0.013   1.086   0.008  0.00  0.00    +0.300 C 
ENDROOT
BRANCH   1   2
ATOM      2  C   LIG    1       -0.729   1.579   1.267  0.00  0.00    +0.000 C 
ATOM      3  C   LIG    1       -0.630   3.117   1.393  0.00  0.00    +0.060 C 
ATOM      4  C   LIG    1        0.591   3.341   2.258  0.00  0.00    +0.520 C 
ATOM      5  N   LIG    1        0.929   2.200   2.884  0.00  0.00    -0.620 N 
ATOM      6  C   LIG    1        2.070   2.063   3.793  0.00  0.00    +0.310 C 
ATOM      7  O   LIG    1        1.179   4.395   2.370  0.00  0.00    -0.520 OA
ATOM      8  C   LIG    1        0.007   1.111   2.541  0.00  0.00    +0.300 C 
BRANCH   8   9
ATOM      9  C   LIG    1       -0.977   0.888   3.660  0.00  0.00    -0.060 A 
ATOM     10  C   LIG    1       -1.462   1.955   4.402  0.00  0.00    -0.030 A 
ATOM     11  C   LIG    1       -2.367   1.713   5.418  0.00  0.00    +0.260 A 
ATOM     12  N   LIG    1       -2.761   0.485   5.691  0.00  0.00    -0.480 NA
ATOM     13  C   LIG    1       -2.318  -0.554   5.010  0.00  0.00    +0.260 A 
ATOM     14  C   LIG    1       -1.415  -0.388   3.977  0.00  0.00    -0.020 A 
ENDBRANCH   8   9
ENDBRANCH   1   2
BRANCH   1  15
ATOM     15  N   LIG    1       -0.721   1.571  -1.179  0.00  0.00    -0.710 N 
ATOM     16  H   LIG    1       -1.516   2.118  -1.079  0.00  0.00    +0.420 HD
BRANCH  15  25
ATOM     17  C   LIG    1        2.545  -0.673  -4.071  0.00  0.00    +0.160 C 
ATOM     18  C   LIG    1        1.312   0.173  -3.880  0.00  0.00    +0.270 A 
ATOM     19  N   LIG    1        0.657   0.622  -4.930  0.00  0.00    -0.500 NA
ATOM     20  C   LIG    1       -0.440   1.374  -4.793  0.00  0.00    +0.490 A 
ATOM     21  N   LIG    1       -1.258   1.935  -5.678  0.00  0.00    -0.540 NA
ATOM     22  C   LIG    1       -2.219   2.595  -5.044  0.00  0.00    +0.490 A 
ATOM     23  N   LIG    1       -2.051   2.481  -3.749  0.00  0.00    -0.360 NA
ATOM     24  N   LIG    1       -0.908   1.697  -3.551  0.00  0.00    -0.360 N 
ATOM     25  C   LIG    1       -0.258   1.252  -2.436  0.00  0.00    +0.490 A 
ATOM     26  C   LIG    1        0.876   0.479  -2.593  0.00  0.00    -0.150 A 
ENDBRANCH  15  25
ENDBRANCH   1  15
TORSDOF 4
