REMARK  Name = ZINCqH0000001lEp.1
REMARK                            x       y       z     vdW  Elec       q    Type
REMARK                         _______ _______ _______ _____ _____    ______ ____
ROOT
ATOM      1  N   LIG    1       -1.439  -0.822   2.442  0.00  0.00    -0.710 N 
ATOM      2  H   LIG    1       -1.787  -1.662   2.779  0.00  0.00    +0.400 HD
ATOM      3  C   LIG    1       -0.339  -0.277   2.996  0.00  0.00    +0.550 C 
ATOM      4  O   LIG    1        0.097   0.776   2.574  0.00  0.00    -0.510 OA
ENDROOT
BRANCH   3   5
ATOM      5  C   LIG    1        0.340  -0.960   4.121  0.00  0.00    -0.060 A 
ATOM      6  C   LIG    1       -0.167  -2.168   4.608  0.00  0.00    +0.030 A 
ATOM      7  C   LIG    1        0.460  -2.814   5.651  0.00  0.00    +0.140 A 
ATOM      8  C   LIG    1        1.597  -2.254   6.227  0.00  0.00    -0.160 A 
ATOM      9  C   LIG    1        2.298  -2.909   7.349  0.00  0.00    +0.550 A 
ATOM     10  N   LIG    1        3.396  -2.307   7.857  0.00  0.00    -0.610 N 
ATOM     11  H   LIG    1        3.868  -2.724   8.594  0.00  0.00    +0.450 HD
ATOM     12  C   LIG    1        3.845  -1.144   7.360  0.00  0.00    +0.540 A 
ATOM     13  N   LIG    1        3.244  -0.506   6.341  0.00  0.00    -0.580 N 
ATOM     14  H   LIG    1        3.608   0.333   6.019  0.00  0.00    +0.450 HD
ATOM     15  S   LIG    1        5.242  -0.442   8.056  0.00  0.00    -0.530 S 
ATOM     16  O   LIG    1        1.898  -3.963   7.805  0.00  0.00    -0.470 OA
ATOM     17  C   LIG    1        2.109  -1.037   5.745  0.00  0.00    +0.160 A 
ATOM     18  C   LIG    1        1.477  -0.394   4.692  0.00  0.00    +0.070 A 
ENDBRANCH   3   5
BRANCH   1  19
ATOM     19  C   LIG    1       -2.110  -0.145   1.329  0.00  0.00    +0.300 C 
BRANCH  19  20
ATOM     20  C   LIG    1       -3.559  -0.559   1.290  0.00  0.00    -0.100 A 
ATOM     21  C   LIG    1       -3.909  -1.874   1.532  0.00  0.00    +0.000 A 
ATOM     22  C   LIG    1       -5.238  -2.253   1.500  0.00  0.00    +0.010 A 
ATOM     23  C   LIG    1       -6.216  -1.318   1.218  0.00  0.00    +0.000 A 
ATOM     24  C   LIG    1       -5.866  -0.004   0.971  0.00  0.00    +0.020 A 
ATOM     25  C   LIG    1       -4.537   0.376   1.006  0.00  0.00    +0.020 A 
ENDBRANCH  19  20
BRANCH  19  26
ATOM     26  C   LIG    1       -1.433  -0.534   0.013  0.00  0.00    +0.030 C 
BRANCH  26  28
ATOM     27  C   LIG    1       -0.019   1.526   0.010  0.00  0.00    +0.020 C 
ATOM     28  C   LIG    1        0.002  -0.004   0.002  0.00  0.00    -0.020 C 
ATOM     29  C   LIG    1        0.718  -0.497  -1.257  0.00  0.00    +0.000 C 
ENDBRANCH  26  28
ENDBRANCH  19  26
ENDBRANCH   1  19
TORSDOF 5
