REMARK  Name = ZINCpk000000nHwB.0
REMARK                            x       y       z     vdW  Elec       q    Type
REMARK                         _______ _______ _______ _____ _____    ______ ____
ROOT
ATOM      1  C   LIG    1       -1.208   2.164   0.006  0.00  0.00    +0.570 C 
ATOM      2  N   LIG    1       -1.246   3.511   0.020  0.00  0.00    -0.720 N 
ATOM      3  H   LIG    1       -0.420   4.020   0.023  0.00  0.00    +0.400 HD
ATOM      4  O   LIG    1       -2.243   1.526   0.002  0.00  0.00    -0.500 OA
ENDROOT
BRANCH   2   5
ATOM      5  C   LIG    1       -2.535   4.207   0.030  0.00  0.00    +0.250 C 
ATOM      6  C   LIG    1       -3.042   4.373  -1.408  0.00  0.00    +0.020 C 
ATOM      7  C   LIG    1       -4.465   4.935  -1.358  0.00  0.00    +0.090 C 
ATOM      8  C   LIG    1       -4.514   6.120  -0.436  0.00  0.00    +0.520 C 
ATOM      9  N   LIG    1       -3.575   6.386   0.472  0.00  0.00    -0.710 N 
ATOM     10  H   LIG    1       -3.705   7.155   1.048  0.00  0.00    +0.400 HD
ATOM     11  O   LIG    1       -5.459   6.875  -0.523  0.00  0.00    -0.550 OA
ATOM     12  C   LIG    1       -2.365   5.593   0.652  0.00  0.00    +0.230 C 
BRANCH  12  13
ATOM     13  C   LIG    1       -2.082   5.444   2.149  0.00  0.00    +0.160 C 
ATOM     14  C   LIG    1       -1.972   6.838   2.817  0.00  0.00    +0.010 C 
ATOM     15  C   LIG    1       -2.341   6.490   4.285  0.00  0.00    +0.020 C 
ATOM     16  C   LIG    1       -3.380   5.362   4.105  0.00  0.00    +0.190 C 
ATOM     17  O   LIG    1       -3.186   4.799   2.803  0.00  0.00    -0.370 OA
ENDBRANCH  12  13
ENDBRANCH   2   5
BRANCH   1  23
ATOM     18  C   LIG    1        0.145   0.061  -0.018  0.00  0.00    +0.380 A 
ATOM     19  N   LIG    1        1.310  -0.563  -0.033  0.00  0.00    -0.540 NA
ATOM     20  C   LIG    1        2.452   0.097  -0.035  0.00  0.00    +0.340 A 
ATOM     21  C   LIG    1        2.480   1.480  -0.021  0.00  0.00    -0.070 A 
ATOM     22  C   LIG    1        1.289   2.185  -0.006  0.00  0.00    +0.130 A 
ATOM     23  C   LIG    1        0.090   1.463  -0.004  0.00  0.00    -0.220 A 
BRANCH  18  24
ATOM     24  O   LIG    1       -1.003  -0.657  -0.018  0.00  0.00    -0.260 OA
BRANCH  24  26
ATOM     25  C   LIG    1       -0.823  -2.603   1.404  0.00  0.00    +0.020 C 
ATOM     26  C   LIG    1       -0.878  -2.081  -0.033  0.00  0.00    +0.170 C 
ATOM     27  C   LIG    1       -2.082  -2.691  -0.752  0.00  0.00    +0.060 C 
ENDBRANCH  24  26
ENDBRANCH  18  24
ENDBRANCH   1  23
TORSDOF 5
