REMARK  Name = ZINCqH0000008lHg.0
REMARK                            x       y       z     vdW  Elec       q    Type
REMARK                         _______ _______ _______ _____ _____    ______ ____
ROOT
ATOM      1  C   LIG    1        1.844   6.500   1.293  0.00  0.00    +0.210 C 
ENDROOT
BRANCH   1   4
ATOM      2  N   LIG    1        4.198   7.185   0.961  0.00  0.00    -0.730 N 
ATOM      3  H   LIG    1        3.907   8.107   1.038  0.00  0.00    +0.400 HD
ATOM      4  C   LIG    1        3.300   6.185   1.062  0.00  0.00    +0.510 C 
ATOM      5  O   LIG    1        3.663   5.032   0.966  0.00  0.00    -0.510 OA
BRANCH   2   7
ATOM      6  C   LIG    1        6.293   6.600   2.078  0.00  0.00    +0.040 C 
ATOM      7  C   LIG    1        5.612   6.879   0.737  0.00  0.00    +0.290 C 
BRANCH   7   8
ATOM      8  C   LIG    1        6.281   8.054   0.070  0.00  0.00    -0.100 A 
ATOM      9  C   LIG    1        5.960   9.342   0.456  0.00  0.00    +0.040 A 
ATOM     10  C   LIG    1        6.575  10.419  -0.152  0.00  0.00    -0.010 A 
ATOM     11  C   LIG    1        7.506  10.209  -1.155  0.00  0.00    +0.100 A 
ATOM     12  C   LIG    1        7.823   8.919  -1.545  0.00  0.00    -0.010 A 
ATOM     13  F   LIG    1        8.105  11.262  -1.754  0.00  0.00    -0.140 F 
ATOM     14  C   LIG    1        7.210   7.842  -0.932  0.00  0.00    +0.060 A 
ENDBRANCH   7   8
ENDBRANCH   2   7
ENDBRANCH   1   4
BRANCH   1  15
ATOM     15  N   LIG    1        1.059   5.260   1.229  0.00  0.00    -0.500 NA
BRANCH  15  16
ATOM     16  C   LIG    1       -0.240   5.424   1.896  0.00  0.00    +0.200 C 
BRANCH  16  17
ATOM     17  C   LIG    1       -0.029   5.505   3.409  0.00  0.00    +0.140 C 
ATOM     18  C   LIG    1       -1.387   5.669   4.119  0.00  0.00    +0.010 C 
ATOM     19  C   LIG    1       -1.468   4.451   5.070  0.00  0.00    +0.010 C 
ATOM     20  C   LIG    1        0.023   4.047   5.207  0.00  0.00    +0.190 C 
ATOM     21  O   LIG    1        0.561   4.285   3.886  0.00  0.00    -0.350 OA
ENDBRANCH  16  17
ENDBRANCH  15  16
BRANCH  15  22
ATOM     22  C   LIG    1        0.885   4.819  -0.161  0.00  0.00    +0.270 C 
BRANCH  22  23
ATOM     23  C   LIG    1        0.295   3.432  -0.178  0.00  0.00    -0.160 A 
ATOM     24  C   LIG    1       -1.008   3.150  -0.196  0.00  0.00    -0.010 A 
ATOM     25  C   LIG    1       -1.314   1.800  -0.215  0.00  0.00    +0.000 A 
ATOM     26  C   LIG    1       -0.258   0.985  -0.202  0.00  0.00    -0.060 A 
ATOM     27  S   LIG    1        1.221   1.936  -0.177  0.00  0.00    +0.150 S 
ENDBRANCH  22  23
ENDBRANCH  15  22
ENDBRANCH   1  15
TORSDOF 8
