REMARK  Name = ZINCpk00000eavuv.0
REMARK                            x       y       z     vdW  Elec       q    Type
REMARK                         _______ _______ _______ _____ _____    ______ ____
ROOT
ATOM      1  N   LIG    1       -4.721   1.592   3.760  0.00  0.00    -0.560 N 
ATOM      2  C   LIG    1       -6.147   1.319   3.980  0.00  0.00    +0.310 C 
ATOM      3  C   LIG    1       -6.589   2.304   5.085  0.00  0.00    +0.000 C 
ATOM      4  C   LIG    1       -5.256   2.570   5.822  0.00  0.00    +0.100 C 
ATOM      5  C   LIG    1       -4.193   2.283   4.785  0.00  0.00    +0.520 C 
ATOM      6  O   LIG    1       -3.033   2.629   4.865  0.00  0.00    -0.500 OA
ENDROOT
BRANCH   1  11
ATOM      7  C   LIG    1       -1.980   1.176   1.340  0.00  0.00    +0.160 A 
ATOM      8  C   LIG    1       -2.587   0.359   0.397  0.00  0.00    -0.100 A 
ATOM      9  C   LIG    1       -3.897  -0.046   0.571  0.00  0.00    +0.080 A 
ATOM     10  C   LIG    1       -4.606   0.361   1.685  0.00  0.00    -0.060 A 
ATOM     11  C   LIG    1       -4.003   1.180   2.632  0.00  0.00    +0.200 A 
ATOM     12  C   LIG    1       -2.687   1.583   2.461  0.00  0.00    -0.030 A 
BRANCH   7  14
ATOM     13  C   LIG    1       -0.022   1.111  -0.007  0.00  0.00    +0.250 C 
ATOM     14  O   LIG    1       -0.692   1.573   1.168  0.00  0.00    -0.310 OA
ENDBRANCH   7  14
ENDBRANCH   1  11
BRANCH   3  15
ATOM     15  C   LIG    1       -7.596   1.664   6.005  0.00  0.00    +0.530 C 
ATOM     16  N   LIG    1       -8.106   2.364   7.038  0.00  0.00    -0.720 N 
ATOM     17  H   LIG    1       -7.824   3.280   7.189  0.00  0.00    +0.400 HD
ATOM     18  O   LIG    1       -7.948   0.519   5.817  0.00  0.00    -0.520 OA
BRANCH  16  19
ATOM     19  C   LIG    1       -9.085   1.742   7.933  0.00  0.00    +0.230 C 
ATOM     20  C   LIG    1      -10.486   1.886   7.335  0.00  0.00    +0.040 C 
BRANCH  19  21
ATOM     21  C   LIG    1       -9.039   2.433   9.297  0.00  0.00    +0.310 C 
BRANCH  21  22
ATOM     22  N   LIG    1       -7.736   2.194   9.922  0.00  0.00    -0.460 N 
ATOM     23  C   LIG    1       -6.619   2.974   9.794  0.00  0.00    +0.110 A 
ATOM     24  C   LIG    1       -5.652   2.393  10.530  0.00  0.00    +0.150 A 
ATOM     25  N   LIG    1       -6.165   1.289  11.092  0.00  0.00    -0.490 NA
ATOM     26  C   LIG    1       -7.415   1.167  10.738  0.00  0.00    +0.380 A 
ENDBRANCH  21  22
ENDBRANCH  19  21
ENDBRANCH  16  19
ENDBRANCH   3  15
TORSDOF 6
