REMARK  Name = ZINCpk000000nNY3.0
REMARK                            x       y       z     vdW  Elec       q    Type
REMARK                         _______ _______ _______ _____ _____    ______ ____
ROOT
ATOM      1  C   LIG    1       -2.906   3.513   2.498  0.00  0.00    +0.250 C 
ATOM      2  C   LIG    1       -3.334   2.193   1.915  0.00  0.00    +0.520 C 
ATOM      3  N   LIG    1       -2.502   1.387   1.253  0.00  0.00    -0.710 N 
ATOM      4  H   LIG    1       -2.873   0.585   0.855  0.00  0.00    +0.400 HD
ATOM      5  C   LIG    1       -1.075   1.627   1.089  0.00  0.00    +0.250 C 
ATOM      6  C   LIG    1       -0.749   3.110   1.273  0.00  0.00    +0.310 C 
ATOM      7  O   LIG    1       -4.488   1.847   2.052  0.00  0.00    -0.540 OA
ATOM      8  N   LIG    1       -1.438   3.585   2.485  0.00  0.00    -0.630 N 
ATOM      9  C   LIG    1       -0.750   4.067   3.539  0.00  0.00    +0.720 C 
ATOM     10  N   LIG    1       -1.409   4.589   4.592  0.00  0.00    -0.740 N 
ATOM     11  H   LIG    1       -2.378   4.554   4.624  0.00  0.00    +0.390 HD
ATOM     12  O   LIG    1        0.466   4.030   3.540  0.00  0.00    -0.580 OA
ENDROOT
BRANCH  10  13
ATOM     13  C   LIG    1       -0.663   5.211   5.688  0.00  0.00    +0.270 C 
ATOM     14  C   LIG    1       -0.382   6.695   5.372  0.00  0.00    +0.040 C 
ATOM     15  C   LIG    1       -1.089   7.485   6.493  0.00  0.00    +0.190 C 
ATOM     16  N   LIG    1       -1.186   6.526   7.623  0.00  0.00    -0.450 N 
ATOM     17  C   LIG    1       -1.516   5.230   6.975  0.00  0.00    +0.220 C 
BRANCH  16  18
ATOM     18  C   LIG    1       -2.184   6.905   8.514  0.00  0.00    +0.310 A 
ATOM     19  N   LIG    1       -3.198   6.087   8.750  0.00  0.00    -0.500 NA
ATOM     20  C   LIG    1       -4.166   6.408   9.589  0.00  0.00    +0.300 A 
ATOM     21  C   LIG    1       -4.154   7.617  10.254  0.00  0.00    -0.040 A 
ATOM     22  C   LIG    1       -3.108   8.505  10.035  0.00  0.00    +0.100 A 
ATOM     23  C   LIG    1       -2.105   8.138   9.155  0.00  0.00    -0.100 A 
ATOM     24 CL   LIG    1       -0.770   9.205   8.849  0.00  0.00    -0.040 Cl
ENDBRANCH  16  18
ENDBRANCH  10  13
BRANCH   1  26
ATOM     25  C   LIG    1       -5.011   4.577   1.675  0.00  0.00    +0.040 C 
ATOM     26  C   LIG    1       -3.483   4.655   1.659  0.00  0.00    -0.020 C 
ATOM     27  C   LIG    1       -3.035   5.995   2.246  0.00  0.00    +0.030 C 
ENDBRANCH   1  26
TORSDOF 3
