REMARK  Name = ZINCpe000000YeIG.0
REMARK                            x       y       z     vdW  Elec       q    Type
REMARK                         _______ _______ _______ _____ _____    ______ ____
ROOT
ATOM      1  N   LIG    1       -2.513   2.890   4.669  0.00  0.00    -0.690 N 
ATOM      2  H   LIG    1       -3.478   2.844   4.755  0.00  0.00    +0.410 HD
ENDROOT
BRANCH   1   7
ATOM      3  C   LIG    1       -0.190   1.862  -0.294  0.00  0.00    +0.350 C 
ATOM      4  N   LIG    1       -0.771   2.134   1.023  0.00  0.00    -0.560 N 
ATOM      5  C   LIG    1        0.040   2.307   2.084  0.00  0.00    +0.590 A 
ATOM      6  C   LIG    1       -0.529   2.575   3.358  0.00  0.00    -0.320 A 
ATOM      7  C   LIG    1       -1.923   2.640   3.465  0.00  0.00    +0.540 A 
ATOM      8  N   LIG    1       -2.685   2.449   2.345  0.00  0.00    -0.540 N 
ATOM      9  C   LIG    1       -4.145   2.513   2.442  0.00  0.00    +0.360 C 
ATOM     10  O   LIG    1        1.249   2.237   1.953  0.00  0.00    -0.510 OA
ATOM     11  C   LIG    1       -2.107   2.202   1.157  0.00  0.00    +0.710 A 
ATOM     12  O   LIG    1       -2.810   2.036   0.179  0.00  0.00    -0.520 OA
BRANCH   6  13
ATOM     13  C   LIG    1        0.303   2.770   4.507  0.00  0.00    +0.300 C 
ATOM     14  N   LIG    1        0.964   2.924   5.418  0.00  0.00    -0.440 NA
ENDBRANCH   6  13
ENDBRANCH   1   7
BRANCH   1  15
ATOM     15  C   LIG    1       -1.689   3.228   5.833  0.00  0.00    +0.280 C 
BRANCH  15  16
ATOM     16  C   LIG    1       -2.595   3.572   7.016  0.00  0.00    +0.040 C 
BRANCH  16  17
ATOM     17  C   LIG    1       -1.735   3.925   8.232  0.00  0.00    +0.200 C 
BRANCH  17  18
ATOM     18  N   LIG    1       -2.605   4.255   9.368  0.00  0.00    -0.490 N 
ATOM     19  C   LIG    1       -1.824   4.369  10.618  0.00  0.00    +0.230 C 
ATOM     20  C   LIG    1       -1.537   5.886  10.702  0.00  0.00    +0.060 C 
ATOM     21  C   LIG    1       -2.681   6.488   9.911  0.00  0.00    -0.140 A 
ATOM     22  C   LIG    1       -3.171   7.775   9.847  0.00  0.00    +0.030 A 
ATOM     23  C   LIG    1       -4.253   8.066   9.035  0.00  0.00    +0.000 A 
ATOM     24  C   LIG    1       -4.842   7.063   8.287  0.00  0.00    +0.020 A 
ATOM     25  C   LIG    1       -4.354   5.774   8.345  0.00  0.00    +0.010 A 
ATOM     26  C   LIG    1       -3.263   5.474   9.159  0.00  0.00    +0.090 A 
ENDBRANCH  17  18
ENDBRANCH  16  17
ENDBRANCH  15  16
ENDBRANCH   1  15
TORSDOF 6
