REMARK  Name = ZINCrD0000073FNN.1
REMARK                            x       y       z     vdW  Elec       q    Type
REMARK                         _______ _______ _______ _____ _____    ______ ____
ROOT
ATOM      1  N   LIG    1       -1.000   2.372  -0.355  0.00  0.00    -0.720 N 
ATOM      2  H   LIG    1       -1.150   3.228   0.076  0.00  0.00    +0.410 HD
ATOM      3  C   LIG    1        0.245   2.010  -0.723  0.00  0.00    +0.520 C 
ATOM      4  O   LIG    1        0.431   0.940  -1.261  0.00  0.00    -0.520 OA
ENDROOT
BRANCH   1   5
ATOM      5  C   LIG    1       -2.129   1.472  -0.605  0.00  0.00    +0.270 C 
BRANCH   5   6
ATOM      6  C   LIG    1       -3.419   2.117  -0.095  0.00  0.00    +0.210 C 
BRANCH   6  11
ATOM      7  C   LIG    1       -5.470  -1.052   0.077  0.00  0.00    +0.130 A 
ATOM      8  C   LIG    1       -6.658  -0.643  -0.511  0.00  0.00    -0.070 A 
ATOM      9  C   LIG    1       -6.792   0.657  -0.961  0.00  0.00    +0.050 A 
ATOM     10  C   LIG    1       -5.744   1.548  -0.826  0.00  0.00    -0.020 A 
ATOM     11  C   LIG    1       -4.559   1.142  -0.240  0.00  0.00    -0.080 A 
ATOM     12  C   LIG    1       -4.418  -0.157   0.207  0.00  0.00    -0.010 A 
BRANCH   7  14
ATOM     13  C   LIG    1       -6.457  -3.198   0.349  0.00  0.00    +0.250 C 
ATOM     14  O   LIG    1       -5.335  -2.330   0.520  0.00  0.00    -0.320 OA
ENDBRANCH   7  14
ENDBRANCH   6  11
BRANCH   6  15
ATOM     15  N   LIG    1       -3.260   2.477   1.320  0.00  0.00    -0.530 NA
ATOM     16  C   LIG    1       -3.064   1.280   2.150  0.00  0.00    +0.190 C 
ATOM     17  C   LIG    1       -4.406   3.264   1.795  0.00  0.00    +0.190 C 
ENDBRANCH   6  15
ENDBRANCH   5   6
ENDBRANCH   1   5
BRANCH   3  18
ATOM     18  C   LIG    1        1.404   2.939  -0.471  0.00  0.00    +0.150 C 
BRANCH  18  19
ATOM     19  C   LIG    1        2.674   2.306  -0.978  0.00  0.00    +0.090 A 
ATOM     20  C   LIG    1        3.474   2.922  -1.854  0.00  0.00    -0.060 A 
ATOM     21  S   LIG    1        4.841   1.864  -2.194  0.00  0.00    +0.140 S 
ATOM     22  C   LIG    1        4.179   0.661  -1.090  0.00  0.00    +0.130 A 
ATOM     23  N   LIG    1        3.066   1.116  -0.583  0.00  0.00    -0.430 NA
BRANCH  22  24
ATOM     24  C   LIG    1        4.787  -0.643  -0.784  0.00  0.00    +0.050 A 
ATOM     25  C   LIG    1        5.950  -1.125  -1.303  0.00  0.00    -0.010 A 
ATOM     26  C   LIG    1        6.149  -2.400  -0.738  0.00  0.00    -0.050 A 
ATOM     27  C   LIG    1        5.110  -2.632   0.089  0.00  0.00    +0.190 A 
ATOM     28  O   LIG    1        4.292  -1.567   0.063  0.00  0.00    -0.150 OA
ENDBRANCH  22  24
ENDBRANCH  18  19
ENDBRANCH   3  18
TORSDOF 8
