REMARK  Name = ZINCqH0000050OUq.0
REMARK                            x       y       z     vdW  Elec       q    Type
REMARK                         _______ _______ _______ _____ _____    ______ ____
ROOT
ATOM      1  N   LIG    1        7.626   0.942  -0.064  0.00  0.00    -0.660 N 
ATOM      2  H   LIG    1        8.143   0.200   0.286  0.00  0.00    +0.420 HD
ATOM      3  C   LIG    1        8.254   2.028  -0.558  0.00  0.00    +0.610 C 
ATOM      4  O   LIG    1        7.608   2.997  -0.909  0.00  0.00    -0.500 OA
ENDROOT
BRANCH   1   8
ATOM      5  C   LIG    1        3.461   0.773  -0.042  0.00  0.00    +0.100 A 
ATOM      6  C   LIG    1        4.185   0.173   0.979  0.00  0.00    +0.050 A 
ATOM      7  C   LIG    1        5.565   0.225   0.970  0.00  0.00    +0.010 A 
ATOM      8  C   LIG    1        6.228   0.886  -0.056  0.00  0.00    +0.160 A 
ATOM      9  C   LIG    1        5.502   1.491  -1.075  0.00  0.00    +0.050 A 
ATOM     10  C   LIG    1        4.123   1.435  -1.067  0.00  0.00    +0.050 A 
BRANCH   5  14
ATOM     11  C   LIG    1       -1.203  -0.905   0.198  0.00  0.00    +0.140 C 
ATOM     12  C   LIG    1        0.004  -0.011   0.069  0.00  0.00    +0.000 A 
ATOM     13  C   LIG    1        1.290  -0.407   0.127  0.00  0.00    -0.020 A 
ATOM     14  N   LIG    1        2.059   0.716  -0.035  0.00  0.00    -0.410 N 
ATOM     15  C   LIG    1        1.207   1.764  -0.185  0.00  0.00    +0.400 A 
ATOM     16  C   LIG    1        1.788  -1.815   0.330  0.00  0.00    +0.140 C 
ATOM     17  N   LIG    1       -0.017   1.316  -0.121  0.00  0.00    -0.480 NA
ENDBRANCH   5  14
ENDBRANCH   1   8
BRANCH   3  18
ATOM     18  C   LIG    1        9.726   2.040  -0.674  0.00  0.00    -0.010 A 
ATOM     19  N   LIG    1       10.545   1.067  -0.329  0.00  0.00    -0.250 NA
ATOM     20  N   LIG    1       11.763   1.401  -0.563  0.00  0.00    -0.370 N 
ATOM     21  H   LIG    1       12.537   0.842  -0.390  0.00  0.00    +0.450 HD
ATOM     22  C   LIG    1       11.809   2.659  -1.085  0.00  0.00    +0.100 A 
ATOM     23  C   LIG    1       10.518   3.099  -1.170  0.00  0.00    +0.010 A 
BRANCH  22  24
ATOM     24  C   LIG    1       13.024   3.406  -1.483  0.00  0.00    -0.140 A 
ATOM     25  C   LIG    1       13.082   4.658  -2.010  0.00  0.00    +0.230 A 
ATOM     26  O   LIG    1       14.369   4.968  -2.227  0.00  0.00    -0.170 OA
ATOM     27  C   LIG    1       15.169   3.953  -1.868  0.00  0.00    +0.190 A 
ATOM     28  C   LIG    1       14.415   2.945  -1.397  0.00  0.00    -0.060 A 
ENDBRANCH  22  24
ENDBRANCH   3  18
TORSDOF 4
