REMARK  Name = ZINCrg000000nGeB.0
REMARK                            x       y       z     vdW  Elec       q    Type
REMARK                         _______ _______ _______ _____ _____    ______ ____
ROOT
ATOM      1  N   LIG    1       -3.997  -5.185   0.859  0.00  0.00    -0.560 NA
ATOM      2  C   LIG    1       -3.575  -5.050  -0.541  0.00  0.00    +0.210 C 
ATOM      3  C   LIG    1       -2.274  -4.246  -0.608  0.00  0.00    +0.040 C 
ATOM      4  C   LIG    1       -2.501  -2.864   0.011  0.00  0.00    +0.230 C 
ATOM      5  C   LIG    1       -2.986  -3.034   1.454  0.00  0.00    +0.020 C 
ATOM      6  C   LIG    1       -4.266  -3.873   1.461  0.00  0.00    +0.180 C 
ENDROOT
BRANCH   4   7
ATOM      7  N   LIG    1       -1.244  -2.111   0.003  0.00  0.00    -0.720 N 
ATOM      8  H   LIG    1       -0.397  -2.583  -0.008  0.00  0.00    +0.400 HD
ATOM      9  C   LIG    1       -1.266  -0.764   0.011  0.00  0.00    +0.560 C 
ATOM     10  O   LIG    1       -2.329  -0.173   0.024  0.00  0.00    -0.530 OA
BRANCH   9  11
ATOM     11  C   LIG    1        0.002  -0.004   0.002  0.00  0.00    -0.140 A 
ATOM     12  C   LIG    1       -0.017   1.391   0.010  0.00  0.00    +0.080 A 
ATOM     13  C   LIG    1        1.170   2.095   0.002  0.00  0.00    +0.000 A 
ATOM     14  C   LIG    1        2.378   1.419  -0.013  0.00  0.00    +0.040 A 
ATOM     15  C   LIG    1        2.403   0.036  -0.021  0.00  0.00    +0.000 A 
ATOM     16  C   LIG    1        1.224  -0.679  -0.013  0.00  0.00    +0.040 A 
ENDBRANCH   9  11
ENDBRANCH   4   7
BRANCH   1  17
ATOM     17  C   LIG    1       -5.166  -6.067   0.974  0.00  0.00    +0.500 C 
BRANCH  17  21
ATOM     18  N   LIG    1       -4.838  -8.080   3.975  0.00  0.00    -0.570 N 
ATOM     19  C   LIG    1       -5.582  -7.088   4.511  0.00  0.00    +0.510 C 
ATOM     20  C   LIG    1       -5.829  -6.124   3.388  0.00  0.00    +0.510 C 
ATOM     21  N   LIG    1       -5.204  -6.655   2.315  0.00  0.00    -0.570 N 
ATOM     22  O   LIG    1       -6.457  -5.088   3.434  0.00  0.00    -0.410 OA
ATOM     23  O   LIG    1       -5.967  -6.995   5.657  0.00  0.00    -0.410 OA
ATOM     24  C   LIG    1       -4.628  -7.813   2.676  0.00  0.00    +0.720 C 
ATOM     25  O   LIG    1       -3.994  -8.527   1.925  0.00  0.00    -0.480 OA
BRANCH  18  26
ATOM     26  C   LIG    1       -4.347  -9.259   4.693  0.00  0.00    +0.320 C 
BRANCH  26  28
ATOM     27  C   LIG    1       -4.868 -11.614   5.345  0.00  0.00    +0.030 C 
ATOM     28  C   LIG    1       -5.381 -10.383   4.595  0.00  0.00    +0.000 C 
ENDBRANCH  26  28
ENDBRANCH  18  26
ENDBRANCH  17  21
ENDBRANCH   1  17
TORSDOF 6
