REMARK  Name = ZINCrH000004pNz7.2
REMARK                            x       y       z     vdW  Elec       q    Type
REMARK                         _______ _______ _______ _____ _____    ______ ____
ROOT
ATOM      1  N   LIG    1       -1.045  -2.204  -0.000  0.00  0.00    -0.730 N 
ATOM      2  H   LIG    1       -0.159  -2.600  -0.010  0.00  0.00    +0.400 HD
ATOM      3  C   LIG    1       -1.184  -0.864   0.008  0.00  0.00    +0.590 C 
ATOM      4  O   LIG    1       -2.295  -0.367   0.021  0.00  0.00    -0.530 OA
ENDROOT
BRANCH   3   5
ATOM      5  C   LIG    1        0.002  -0.004   0.002  0.00  0.00    -0.270 A 
ATOM      6  C   LIG    1       -0.016   1.361   0.009  0.00  0.00    +0.110 A 
ATOM      7  C   LIG    1        1.213   1.965   0.001  0.00  0.00    -0.110 A 
ATOM      8  C   LIG    1        2.267   1.068   0.001  0.00  0.00    -0.130 A 
ATOM      9  C   LIG    1        3.670   1.536  -0.000  0.00  0.00    -0.020 A 
ATOM     10  C   LIG    1        4.731   0.681  -0.267  0.00  0.00    +0.020 A 
ATOM     11  C   LIG    1        6.020   1.178  -0.278  0.00  0.00    +0.010 A 
ATOM     12  C   LIG    1        6.245   2.518  -0.016  0.00  0.00    +0.020 A 
ATOM     13  C   LIG    1        5.192   3.366   0.279  0.00  0.00    +0.010 A 
ATOM     14  C   LIG    1        3.900   2.881   0.310  0.00  0.00    -0.060 A 
ATOM     15  C   LIG    1        2.764   3.776   0.720  0.00  0.00    +0.080 C 
ATOM     16  C   LIG    1        1.475   3.463  -0.033  0.00  0.00    +0.120 C 
ATOM     17  S   LIG    1        1.666  -0.574  -0.017  0.00  0.00    +0.190 S 
ENDBRANCH   3   5
BRANCH   1  18
ATOM     18  C   LIG    1       -2.231  -3.064   0.006  0.00  0.00    +0.260 C 
BRANCH  18  19
ATOM     19  C   LIG    1       -1.797  -4.531  -0.006  0.00  0.00    +0.020 C 
BRANCH  19  20
ATOM     20  C   LIG    1       -3.036  -5.429   0.001  0.00  0.00    +0.180 C 
BRANCH  20  24
ATOM     21  C   LIG    1       -0.863  -9.024  -2.564  0.00  0.00    +0.050 C 
ATOM     22  C   LIG    1       -1.486  -8.637  -1.222  0.00  0.00    +0.160 C 
ATOM     23  C   LIG    1       -1.955  -7.181  -1.276  0.00  0.00    +0.150 C 
ATOM     24  N   LIG    1       -2.620  -6.838  -0.011  0.00  0.00    -0.540 NA
ATOM     25  C   LIG    1       -3.765  -7.728   0.234  0.00  0.00    +0.150 C 
ATOM     26  C   LIG    1       -3.277  -9.178   0.273  0.00  0.00    +0.160 C 
ATOM     27  C   LIG    1       -4.475 -10.115   0.447  0.00  0.00    +0.050 C 
ATOM     28  O   LIG    1       -2.606  -9.484  -0.953  0.00  0.00    -0.380 OA
ENDBRANCH  20  24
ENDBRANCH  19  20
ENDBRANCH  18  19
ENDBRANCH   1  18
TORSDOF 5
