REMARK  Name = ZINCpe000000Uyjb.0
REMARK                            x       y       z     vdW  Elec       q    Type
REMARK                         _______ _______ _______ _____ _____    ______ ____
ROOT
ATOM      1  C   LIG    1        1.162   7.835  -2.910  0.00  0.00    +0.220 C 
ENDROOT
BRANCH   1   2
ATOM      2  O   LIG    1        2.278   7.194  -3.531  0.00  0.00    -0.530 OA
ATOM      3  H   LIG    1        3.132   7.426  -3.140  0.00  0.00    +0.370 HD
ENDBRANCH   1   2
BRANCH   1   4
ATOM      4  C   LIG    1        1.314   9.353  -3.027  0.00  0.00    +0.160 C 
BRANCH   4   6
ATOM      5  C   LIG    1       -0.084   9.483  -5.000  0.00  0.00    +0.190 C 
ATOM      6  N   LIG    1        1.250   9.744  -4.441  0.00  0.00    -0.510 NA
BRANCH   6   7
ATOM      7  C   LIG    1        1.627  11.153  -4.616  0.00  0.00    +0.200 C 
BRANCH   7   8
ATOM      8  C   LIG    1        1.788  11.452  -6.084  0.00  0.00    +0.530 C 
ATOM      9  N   LIG    1        2.133  12.691  -6.485  0.00  0.00    -0.620 N 
ATOM     10  C   LIG    1        2.376  13.841  -5.602  0.00  0.00    +0.240 C 
ATOM     11  C   LIG    1        2.718  15.047  -6.503  0.00  0.00    +0.030 C 
ATOM     12  C   LIG    1        2.087  14.651  -7.864  0.00  0.00    +0.040 C 
ATOM     13  C   LIG    1        2.324  13.120  -7.883  0.00  0.00    +0.250 C 
ATOM     14  O   LIG    1        1.606  10.577  -6.904  0.00  0.00    -0.510 OA
ENDBRANCH   7   8
ENDBRANCH   6   7
ENDBRANCH   4   6
ENDBRANCH   1   4
BRANCH   1  15
ATOM     15  C   LIG    1        1.104   7.440  -1.433  0.00  0.00    +0.140 C 
BRANCH  15  16
ATOM     16  O   LIG    1        0.845   6.039  -1.324  0.00  0.00    -0.370 OA
BRANCH  16  17
ATOM     17  C   LIG    1        0.771   5.565   0.022  0.00  0.00    +0.230 C 
BRANCH  17  18
ATOM     18  C   LIG    1        0.496   4.083   0.018  0.00  0.00    -0.080 A 
ATOM     19  C   LIG    1       -0.808   3.624   0.028  0.00  0.00    +0.050 A 
ATOM     20  C   LIG    1       -1.065   2.265   0.019  0.00  0.00    +0.040 A 
ATOM     21  C   LIG    1       -0.016   1.361   0.009  0.00  0.00    +0.040 A 
ATOM     22  O   LIG    1        0.002  -0.004   0.002  0.00  0.00    -0.310 OA
ATOM     23  C   LIG    1        1.336  -0.373   0.399  0.00  0.00    +0.430 C 
ATOM     24  O   LIG    1        2.139   0.749  -0.014  0.00  0.00    -0.310 OA
ATOM     25  C   LIG    1        1.297   1.824  -0.001  0.00  0.00    +0.030 A 
ATOM     26  C   LIG    1        1.548   3.186   0.004  0.00  0.00    +0.060 A 
ENDBRANCH  17  18
ENDBRANCH  16  17
ENDBRANCH  15  16
ENDBRANCH   1  15
TORSDOF 9
