REMARK  Name = ZINCpe000000XFF6.0
REMARK                            x       y       z     vdW  Elec       q    Type
REMARK                         _______ _______ _______ _____ _____    ______ ____
ROOT
ATOM      1  N   LIG    1       -4.140   1.512   4.036  0.00  0.00    -0.540 NA
ATOM      2  C   LIG    1       -4.533   0.526   3.019  0.00  0.00    +0.180 C 
ATOM      3  C   LIG    1       -5.103  -0.715   3.710  0.00  0.00    +0.180 C 
ATOM      4  N   LIG    1       -6.254  -0.328   4.537  0.00  0.00    -0.520 NA
ATOM      5  C   LIG    1       -5.861   0.658   5.553  0.00  0.00    +0.200 C 
ATOM      6  C   LIG    1       -5.291   1.899   4.863  0.00  0.00    +0.200 C 
ENDROOT
BRANCH   4   7
ATOM      7  C   LIG    1       -6.876  -1.505   5.157  0.00  0.00    +0.170 C 
ATOM      8  C   LIG    1       -5.809  -2.369   5.869  0.00  0.00    +0.010 C 
ATOM      9  C   LIG    1       -5.451  -3.394   4.771  0.00  0.00    +0.250 C 
ATOM     10  N   LIG    1       -6.635  -3.472   3.907  0.00  0.00    -0.620 N 
ATOM     11  C   LIG    1       -7.449  -2.421   4.099  0.00  0.00    +0.530 C 
ATOM     12  O   LIG    1       -8.493  -2.234   3.510  0.00  0.00    -0.510 OA
BRANCH  10  13
ATOM     13  C   LIG    1       -6.894  -4.557   2.957  0.00  0.00    +0.250 C 
ATOM     14  C   LIG    1       -6.999  -3.983   1.540  0.00  0.00    -0.010 C 
ATOM     15  C   LIG    1       -7.350  -5.110   0.566  0.00  0.00    +0.220 C 
ATOM     16  O   LIG    1       -8.570  -5.731   0.976  0.00  0.00    -0.380 OA
ATOM     17  C   LIG    1       -8.515  -6.327   2.273  0.00  0.00    +0.220 C 
ATOM     18  C   LIG    1       -8.213  -5.249   3.316  0.00  0.00    -0.010 C 
ENDBRANCH  10  13
ENDBRANCH   4   7
BRANCH   1  19
ATOM     19  C   LIG    1       -3.517   2.689   3.415  0.00  0.00    +0.300 C 
BRANCH  19  24
ATOM     20  C   LIG    1        0.136   1.126   0.234  0.00  0.00    +0.160 C 
ATOM     21  C   LIG    1       -0.629   1.623   1.433  0.00  0.00    +0.020 A 
ATOM     22  N   LIG    1       -0.140   1.920   2.603  0.00  0.00    -0.360 NA
ATOM     23  O   LIG    1       -1.002   2.293   3.364  0.00  0.00    +0.110 OA
ATOM     24  C   LIG    1       -2.209   2.290   2.782  0.00  0.00    -0.020 A 
ATOM     25  C   LIG    1       -2.020   1.864   1.510  0.00  0.00    -0.060 A 
ENDBRANCH  19  24
ENDBRANCH   1  19
TORSDOF 4
