REMARK  Name = ZINCnE000001KDHO.0
REMARK                            x       y       z     vdW  Elec       q    Type
REMARK                         _______ _______ _______ _____ _____    ______ ____
ROOT
ATOM      1  C   LIG    1        4.753  -1.423   2.775  0.00  0.00    +0.100 A 
ATOM      2  C   LIG    1        5.106  -2.230   3.843  0.00  0.00    +0.020 A 
ATOM      3  C   LIG    1        4.174  -2.516   4.845  0.00  0.00    -0.100 A 
ATOM      4  C   LIG    1        2.885  -1.985   4.766  0.00  0.00    +0.020 A 
ATOM      5  C   LIG    1        2.535  -1.173   3.688  0.00  0.00    -0.120 A 
ATOM      6 CL   LIG    1        1.722  -2.336   6.006  0.00  0.00    -0.000 Cl
ATOM      7  C   LIG    1        3.472  -0.899   2.690  0.00  0.00    +0.010 A 
ENDROOT
BRANCH   5   8
ATOM      8  C   LIG    1        1.172  -0.609   3.598  0.00  0.00    +0.560 C 
ATOM      9  N   LIG    1        0.835   0.176   2.555  0.00  0.00    -0.700 N 
ATOM     10  H   LIG    1        1.487   0.370   1.864  0.00  0.00    +0.400 HD
ATOM     11  O   LIG    1        0.355  -0.852   4.465  0.00  0.00    -0.500 OA
BRANCH   9  12
ATOM     12  C   LIG    1       -0.516   0.735   2.466  0.00  0.00    +0.110 C 
ATOM     13  C   LIG    1       -1.671  -0.118   2.995  0.00  0.00    +0.020 C 
ATOM     14  C   LIG    1       -1.211   1.116   3.775  0.00  0.00    +0.020 C 
BRANCH  12  15
ATOM     15  C   LIG    1       -0.789   1.611   1.242  0.00  0.00    +0.040 C 
ATOM     16  C   LIG    1        0.221   2.783   1.169  0.00  0.00    +0.020 C 
ATOM     17  C   LIG    1        0.242   3.176  -0.322  0.00  0.00    -0.010 C 
ATOM     18  C   LIG    1       -0.215   1.937  -1.111  0.00  0.00    -0.010 C 
ATOM     19  C   LIG    1       -0.499   0.833  -0.070  0.00  0.00    +0.020 C 
ENDBRANCH  12  15
ENDBRANCH   9  12
ENDBRANCH   5   8
BRANCH   3  20
ATOM     20  C   LIG    1        4.552  -3.375   5.982  0.00  0.00    +0.520 C 
ATOM     21  O   LIG    1        3.736  -3.623   6.858  0.00  0.00    -0.650 OA
ATOM     22  O   LIG    1        5.682  -3.839   6.050  0.00  0.00    -0.690 OA
ENDBRANCH   3  20
BRANCH   1  24
ATOM     23  C   LIG    1        6.962  -1.725   1.949  0.00  0.00    +0.250 C 
ATOM     24  O   LIG    1        5.663  -1.148   1.803  0.00  0.00    -0.320 OA
ENDBRANCH   1  24
TORSDOF 5
