REMARK  Name = ZINC650000002CTv.0
REMARK                            x       y       z     vdW  Elec       q    Type
REMARK                         _______ _______ _______ _____ _____    ______ ____
ROOT
ATOM      1  C   LIG    1       -2.046   1.484   0.028  0.00  0.00    -0.030 C 
ATOM      2  C   LIG    1       -0.914   1.585  -1.004  0.00  0.00    +0.330 C 
ATOM      3  N   LIG    1       -0.012   1.005   0.008  0.00  0.00    -0.530 N 
ATOM      4  H   LIG    1        0.912   1.411   0.001  0.00  0.00    +0.440 HD
ATOM      5  H   LIG    1        0.002  -0.004   0.002  0.00  0.00    +0.450 HD
ATOM      6  C   LIG    1       -0.895   1.574   1.043  0.00  0.00    +0.310 C 
ENDROOT
BRANCH   1   7
ATOM      7  C   LIG    1       -2.992   2.686   0.040  0.00  0.00    +0.320 C 
BRANCH   7   8
ATOM      8  N   LIG    1       -4.097   2.431   0.974  0.00  0.00    -0.640 N 
ATOM      9  H   LIG    1       -3.726   2.286   1.901  0.00  0.00    +0.440 HD
ATOM     10  H   LIG    1       -4.602   1.608   0.681  0.00  0.00    +0.440 HD
ATOM     11  H   LIG    1       -4.721   3.224   0.982  0.00  0.00    +0.450 HD
ENDBRANCH   7   8
ENDBRANCH   1   7
TORSDOF 2
