REMARK  Name = ZINCqH0000037x49.0
REMARK                            x       y       z     vdW  Elec       q    Type
REMARK                         _______ _______ _______ _____ _____    ______ ____
ROOT
ATOM      1  C   LIG    1       -2.013   5.172   0.049  0.00  0.00    -0.230 A 
ATOM      2  C   LIG    1       -3.089   4.334   0.055  0.00  0.00    +0.280 A 
ATOM      3  N   LIG    1       -4.234   5.057   0.070  0.00  0.00    -0.460 N 
ATOM      4  C   LIG    1       -3.951   6.407   0.074  0.00  0.00    +0.090 A 
ATOM      5  C   LIG    1       -4.748   7.547   0.087  0.00  0.00    -0.010 A 
ATOM      6  C   LIG    1       -4.162   8.795   0.105  0.00  0.00    +0.030 A 
ATOM      7  C   LIG    1       -2.782   8.928   0.095  0.00  0.00    -0.020 A 
ATOM      8  C   LIG    1       -1.976   7.811   0.076  0.00  0.00    +0.070 A 
ATOM      9  C   LIG    1       -2.553   6.544   0.068  0.00  0.00    -0.060 A 
ENDROOT
BRANCH   1  12
ATOM     10  N   LIG    1       -0.254   3.481   0.023  0.00  0.00    -0.710 N 
ATOM     11  H   LIG    1       -0.943   2.799   0.026  0.00  0.00    +0.410 HD
ATOM     12  C   LIG    1       -0.596   4.785   0.033  0.00  0.00    +0.590 C 
ATOM     13  O   LIG    1        0.268   5.641   0.030  0.00  0.00    -0.540 OA
BRANCH  10  15
ATOM     14  C   LIG    1        1.851   3.686  -1.222  0.00  0.00    +0.050 C 
ATOM     15  C   LIG    1        1.159   3.095   0.008  0.00  0.00    +0.180 C 
ATOM     16  C   LIG    1        1.856   3.587   1.293  0.00  0.00    +0.030 C 
ATOM     17  C   LIG    1        2.851   2.454   1.644  0.00  0.00    +0.020 C 
ATOM     18  C   LIG    1        2.056   1.175   1.278  0.00  0.00    -0.010 C 
ATOM     19  C   LIG    1        1.286   1.562  -0.002  0.00  0.00    +0.170 C 
BRANCH  19  20
ATOM     20  O   LIG    1       -0.011   0.963   0.007  0.00  0.00    -0.570 OA
ATOM     21  H   LIG    1        0.002  -0.004   0.002  0.00  0.00    +0.390 HD
ENDBRANCH  19  20
ENDBRANCH  10  15
ENDBRANCH   1  12
BRANCH   3  22
ATOM     22  C   LIG    1       -5.583   4.486   0.080  0.00  0.00    +0.350 C 
BRANCH  22  23
ATOM     23  C   LIG    1       -6.107   4.411  -1.331  0.00  0.00    -0.120 A 
ATOM     24  C   LIG    1       -6.816   5.472  -1.863  0.00  0.00    +0.020 A 
ATOM     25  C   LIG    1       -7.293   5.406  -3.158  0.00  0.00    +0.010 A 
ATOM     26  C   LIG    1       -7.069   4.274  -3.920  0.00  0.00    +0.010 A 
ATOM     27  C   LIG    1       -6.365   3.210  -3.386  0.00  0.00    +0.010 A 
ATOM     28  C   LIG    1       -5.884   3.279  -2.092  0.00  0.00    +0.020 A 
ENDBRANCH  22  23
ENDBRANCH   3  22
TORSDOF 5
