REMARK  Name = ZINCrH000004s5gu.0
REMARK                            x       y       z     vdW  Elec       q    Type
REMARK                         _______ _______ _______ _____ _____    ______ ____
ROOT
ATOM      1  C   LIG    1       -2.521   1.406   0.022  0.00  0.00    +0.330 C 
ENDROOT
BRANCH   1   8
ATOM      2  C   LIG    1       -1.232   1.909  -2.514  0.00  0.00    +0.090 C 
ATOM      3  C   LIG    1       -0.601   2.403  -1.238  0.00  0.00    -0.070 A 
ATOM      4  C   LIG    1        0.591   3.101  -1.281  0.00  0.00    -0.010 A 
ATOM      5  C   LIG    1        1.170   3.553  -0.110  0.00  0.00    +0.010 A 
ATOM      6  C   LIG    1        0.556   3.308   1.104  0.00  0.00    -0.010 A 
ATOM      7  C   LIG    1       -0.637   2.611   1.147  0.00  0.00    +0.050 A 
ATOM      8  C   LIG    1       -1.218   2.162  -0.024  0.00  0.00    -0.100 A 
ENDBRANCH   1   8
BRANCH   1   9
ATOM      9  N   LIG    1       -3.606   2.274  -0.441  0.00  0.00    -0.730 N 
ATOM     10  H   LIG    1       -4.160   2.001  -1.188  0.00  0.00    +0.400 HD
ATOM     11  C   LIG    1       -3.834   3.453   0.171  0.00  0.00    +0.710 C 
ATOM     12  O   LIG    1       -3.083   3.838   1.047  0.00  0.00    -0.590 OA
ATOM     13  N   LIG    1       -4.893   4.205  -0.187  0.00  0.00    -0.870 N 
ATOM     14  H   LIG    1       -5.057   5.053   0.254  0.00  0.00    +0.410 HD
ATOM     15  H   LIG    1       -5.492   3.897  -0.886  0.00  0.00    +0.400 HD
ENDBRANCH   1   9
BRANCH   1  16
ATOM     16  C   LIG    1       -2.801   0.961   1.459  0.00  0.00    +0.060 C 
BRANCH  16  17
ATOM     17  C   LIG    1       -4.039   0.102   1.486  0.00  0.00    +0.530 C 
ATOM     18  N   LIG    1       -4.481  -0.407   2.654  0.00  0.00    -0.620 N 
ATOM     19  C   LIG    1       -3.853  -0.203   3.972  0.00  0.00    +0.250 C 
ATOM     20  C   LIG    1       -4.998  -0.419   4.994  0.00  0.00    +0.040 C 
ATOM     21  C   LIG    1       -5.795  -1.572   4.329  0.00  0.00    +0.050 C 
ATOM     22  C   LIG    1       -5.672  -1.252   2.824  0.00  0.00    +0.260 C 
ATOM     23  O   LIG    1       -4.638  -0.132   0.458  0.00  0.00    -0.530 OA
BRANCH  22  24
ATOM     24  C   LIG    1       -5.510  -2.530   2.042  0.00  0.00    -0.080 A 
ATOM     25  C   LIG    1       -4.245  -3.002   1.745  0.00  0.00    +0.010 A 
ATOM     26  C   LIG    1       -4.096  -4.177   1.032  0.00  0.00    +0.000 A 
ATOM     27  C   LIG    1       -5.212  -4.875   0.608  0.00  0.00    +0.000 A 
ATOM     28  C   LIG    1       -6.476  -4.400   0.901  0.00  0.00    +0.000 A 
ATOM     29  C   LIG    1       -6.625  -3.227   1.618  0.00  0.00    -0.080 A 
ATOM     30  C   LIG    1       -8.004  -2.709   1.937  0.00  0.00    +0.090 C 
ENDBRANCH  22  24
ENDBRANCH  16  17
ENDBRANCH   1  16
TORSDOF 5
