REMARK  Name = ZINCnE000001Ubqh.0
REMARK                            x       y       z     vdW  Elec       q    Type
REMARK                         _______ _______ _______ _____ _____    ______ ____
ROOT
ATOM      1  O   LIG    1       -3.530   1.393  -0.995  0.00  0.00    -1.020 OA
ATOM      2  S   LIG    1       -2.715   0.822   0.019  0.00  0.00    +2.590 S 
ATOM      3  O   LIG    1       -2.356  -0.553   0.045  0.00  0.00    -1.020 OA
ENDROOT
BRANCH   2   4
ATOM      4  C   LIG    1       -1.206   1.731   0.017  0.00  0.00    -0.600 A 
ATOM      5  C   LIG    1       -0.013   1.076   0.008  0.00  0.00    +0.170 A 
ATOM      6  C   LIG    1        1.190   1.779   0.000  0.00  0.00    +0.000 A 
ATOM      7  C   LIG    1        1.207   3.142   0.007  0.00  0.00    +0.160 A 
ATOM      8  C   LIG    1       -0.007   3.855   0.022  0.00  0.00    +0.090 A 
ATOM      9  N   LIG    1       -0.022   5.191   0.029  0.00  0.00    -0.460 NA
ATOM     10  C   LIG    1       -1.150   5.860   0.043  0.00  0.00    +0.330 A 
ATOM     11  C   LIG    1       -2.385   5.214   0.051  0.00  0.00    -0.150 A 
ATOM     12  C   LIG    1       -2.441   3.849   0.045  0.00  0.00    +0.160 A 
ATOM     13  I   LIG    1       -4.154   6.336   0.074  0.00  0.00    -0.010 I 
ATOM     14  F   LIG    1        2.384   3.806  -0.001  0.00  0.00    -0.120 F 
ATOM     15  C   LIG    1       -1.228   3.135   0.030  0.00  0.00    -0.000 A 
ENDBRANCH   2   4
BRANCH   2  16
ATOM     16  N   LIG    1       -3.473   1.134   1.458  0.00  0.00    -1.070 NA
BRANCH  16  17
ATOM     17  C   LIG    1       -4.709   0.540   1.742  0.00  0.00    +0.260 A 
ATOM     18  C   LIG    1       -5.300  -0.310   0.819  0.00  0.00    -0.160 A 
ATOM     19  C   LIG    1       -6.520  -0.895   1.101  0.00  0.00    +0.040 A 
ATOM     20  C   LIG    1       -7.153  -0.636   2.302  0.00  0.00    -0.100 A 
ATOM     21  C   LIG    1       -6.570   0.210   3.227  0.00  0.00    +0.010 A 
ATOM     22  C   LIG    1       -5.345   0.797   2.954  0.00  0.00    +0.040 A 
BRANCH  22  23
ATOM     23  O   LIG    1       -4.768   1.625   3.866  0.00  0.00    -0.480 OA
ATOM     24  H   LIG    1       -5.016   2.554   3.765  0.00  0.00    +0.360 HD
ENDBRANCH  22  23
ENDBRANCH  16  17
ENDBRANCH   2  16
TORSDOF 4
