REMARK  Name = ZINCrD000000Aja6.0
REMARK                            x       y       z     vdW  Elec       q    Type
REMARK                         _______ _______ _______ _____ _____    ______ ____
ROOT
ATOM      1  O   LIG    1        1.874  -6.752  -0.152  0.00  0.00    -0.510 OA
ATOM      2  C   LIG    1        0.688  -6.500  -0.140  0.00  0.00    +0.520 C 
ATOM      3  N   LIG    1        0.270  -5.224  -0.027  0.00  0.00    -0.670 N 
ATOM      4  H   LIG    1       -0.676  -5.029   0.060  0.00  0.00    +0.420 HD
ENDROOT
BRANCH   3   5
ATOM      5  C   LIG    1        1.202  -4.179  -0.037  0.00  0.00    +0.150 A 
ATOM      6  C   LIG    1        0.971  -3.035   0.717  0.00  0.00    +0.020 A 
ATOM      7  C   LIG    1        1.888  -2.001   0.711  0.00  0.00    +0.040 A 
ATOM      8  C   LIG    1        3.042  -2.100  -0.040  0.00  0.00    +0.040 A 
ATOM      9  C   LIG    1        3.280  -3.243  -0.805  0.00  0.00    -0.010 A 
ATOM     10  C   LIG    1        2.355  -4.287  -0.799  0.00  0.00    +0.080 A 
BRANCH   9  11
ATOM     11  C   LIG    1        4.513  -3.350  -1.615  0.00  0.00    +0.210 A 
ATOM     12  N   LIG    1        4.862  -4.363  -2.372  0.00  0.00    -0.270 NA
ATOM     13  N   LIG    1        5.994  -4.108  -2.927  0.00  0.00    -0.290 NA
ATOM     14  C   LIG    1        6.409  -2.931  -2.550  0.00  0.00    +0.420 A 
ATOM     15  O   LIG    1        5.487  -2.423  -1.714  0.00  0.00    -0.220 OA
ENDBRANCH   9  11
ENDBRANCH   3   5
BRANCH   2  16
ATOM     16  C   LIG    1       -0.320  -7.616  -0.249  0.00  0.00    +0.080 C 
BRANCH  16  17
ATOM     17  C   LIG    1        0.412  -8.954  -0.364  0.00  0.00    +0.230 C 
BRANCH  17  18
ATOM     18  C   LIG    1       -0.596 -10.070  -0.473  0.00  0.00    +0.180 A 
ATOM     19  N   LIG    1       -1.111 -10.547  -1.579  0.00  0.00    -0.470 NA
ATOM     20  C   LIG    1       -1.956 -11.529  -1.192  0.00  0.00    +0.210 A 
ATOM     21  N   LIG    1       -1.911 -11.584   0.114  0.00  0.00    -0.370 NA
ATOM     22  O   LIG    1       -1.136 -10.754   0.540  0.00  0.00    +0.090 OA
BRANCH  20  23
ATOM     23  C   LIG    1       -2.783 -12.381  -2.082  0.00  0.00    -0.030 A 
ATOM     24  C   LIG    1       -2.734 -12.205  -3.463  0.00  0.00    +0.070 A 
ATOM     25  C   LIG    1       -3.501 -13.004  -4.286  0.00  0.00    +0.010 A 
ATOM     26  C   LIG    1       -4.327 -13.971  -3.741  0.00  0.00    +0.030 A 
ATOM     27  C   LIG    1       -4.385 -14.146  -2.370  0.00  0.00    +0.010 A 
ATOM     28  C   LIG    1       -3.617 -13.356  -1.538  0.00  0.00    +0.050 A 
ENDBRANCH  20  23
ENDBRANCH  17  18
ENDBRANCH  16  17
ENDBRANCH   2  16
TORSDOF 6
