REMARK  Name = ZINCrD00000F5Lld.0
REMARK                            x       y       z     vdW  Elec       q    Type
REMARK                         _______ _______ _______ _____ _____    ______ ____
ROOT
ATOM      1  C   LIG    1        1.769   7.034  -0.051  0.00  0.00    +0.390 C 
ATOM      2  O   LIG    1        2.908   6.612  -0.073  0.00  0.00    -0.450 OA
ENDROOT
BRANCH   1   3
ATOM      3  C   LIG    1        0.693   6.143   0.062  0.00  0.00    -0.230 C 
ATOM      4  C   LIG    1        0.925   4.812   0.184  0.00  0.00    +0.270 C 
ATOM      5  N   LIG    1       -0.012   3.836   0.320  0.00  0.00    -0.530 N 
ATOM      6  C   LIG    1        0.564   2.571   0.420  0.00  0.00    +0.130 A 
ATOM      7  C   LIG    1       -0.022   1.315   0.568  0.00  0.00    -0.020 A 
ATOM      8  C   LIG    1        0.768   0.186   0.640  0.00  0.00    +0.040 A 
ATOM      9  C   LIG    1        2.145   0.291   0.576  0.00  0.00    -0.010 A 
ATOM     10  C   LIG    1        2.734   1.535   0.429  0.00  0.00    +0.070 A 
ATOM     11  C   LIG    1        1.949   2.663   0.351  0.00  0.00    -0.130 A 
ATOM     12  C   LIG    1       -1.456   4.085   0.357  0.00  0.00    +0.320 C 
ATOM     13  C   LIG    1        2.276   4.130   0.193  0.00  0.00    +0.000 C 
ATOM     14  C   LIG    1        3.009   4.376  -1.127  0.00  0.00    +0.080 C 
ATOM     15  C   LIG    1        3.116   4.622   1.373  0.00  0.00    +0.080 C 
ENDBRANCH   1   3
BRANCH   1  16
ATOM     16  C   LIG    1        1.512   8.516  -0.144  0.00  0.00    +0.200 C 
BRANCH  16  17
ATOM     17  O   LIG    1        2.758   9.210  -0.251  0.00  0.00    -0.290 OA
BRANCH  17  21
ATOM     18  C   LIG    1        2.594  13.324  -0.535  0.00  0.00    -0.180 A 
ATOM     19  C   LIG    1        3.829  12.670  -0.545  0.00  0.00    +0.120 A 
ATOM     20  C   LIG    1        3.879  11.297  -0.450  0.00  0.00    -0.020 A 
ATOM     21  C   LIG    1        2.704  10.562  -0.344  0.00  0.00    +0.160 A 
ATOM     22  C   LIG    1        1.473  11.209  -0.339  0.00  0.00    -0.080 A 
ATOM     23  C   LIG    1        1.415  12.582  -0.428  0.00  0.00    +0.090 A 
BRANCH  18  27
ATOM     24  C   LIG    1        1.286  16.885  -0.726  0.00  0.00    +0.290 C 
ATOM     25  N   LIG    1        1.343  15.425  -0.626  0.00  0.00    -0.730 N 
ATOM     26  H   LIG    1        0.524  14.911  -0.552  0.00  0.00    +0.400 HD
ATOM     27  C   LIG    1        2.535  14.796  -0.636  0.00  0.00    +0.560 C 
ATOM     28  O   LIG    1        3.562  15.440  -0.728  0.00  0.00    -0.540 OA
ENDBRANCH  18  27
ENDBRANCH  17  21
ENDBRANCH  16  17
ENDBRANCH   1  16
TORSDOF 5
