REMARK  Name = ZINCrg000000opUG.0
REMARK                            x       y       z     vdW  Elec       q    Type
REMARK                         _______ _______ _______ _____ _____    ______ ____
ROOT
ATOM      1  C   LIG    1       -3.230   3.559  -5.250  0.00  0.00    -0.150 A 
ATOM      2  C   LIG    1       -4.136   4.589  -4.992  0.00  0.00    +0.100 A 
ATOM      3  C   LIG    1       -3.921   5.444  -3.931  0.00  0.00    +0.000 A 
ATOM      4  C   LIG    1       -2.809   5.283  -3.124  0.00  0.00    +0.160 A 
ATOM      5  C   LIG    1       -1.907   4.265  -3.374  0.00  0.00    -0.690 A 
ATOM      6  C   LIG    1       -2.107   3.406  -4.434  0.00  0.00    +0.190 A 
ENDROOT
BRANCH   1   9
ATOM      7  N   LIG    1       -4.536   2.793  -7.174  0.00  0.00    -0.710 N 
ATOM      8  H   LIG    1       -5.168   3.508  -6.997  0.00  0.00    +0.410 HD
ATOM      9  C   LIG    1       -3.454   2.639  -6.385  0.00  0.00    +0.570 C 
ATOM     10  O   LIG    1       -2.663   1.743  -6.607  0.00  0.00    -0.520 OA
BRANCH   7  11
ATOM     11  C   LIG    1       -4.758   1.882  -8.299  0.00  0.00    +0.290 C 
BRANCH  11  12
ATOM     12  C   LIG    1       -5.615   2.578  -9.358  0.00  0.00    +0.010 C 
ATOM     13  C   LIG    1       -6.961   2.973  -8.748  0.00  0.00    +0.030 C 
BRANCH  12  15
ATOM     14  C   LIG    1       -6.596   2.362 -11.646  0.00  0.00    +0.020 C 
ATOM     15  C   LIG    1       -5.847   1.626 -10.533  0.00  0.00    +0.030 C 
ENDBRANCH  12  15
ENDBRANCH  11  12
BRANCH  11  16
ATOM     16  C   LIG    1       -5.470   0.646  -7.811  0.00  0.00    +0.450 C 
ATOM     17  O   LIG    1       -5.761   0.538  -6.643  0.00  0.00    -0.500 OA
BRANCH  16  18
ATOM     18  O   LIG    1       -5.780  -0.335  -8.673  0.00  0.00    -0.350 OA
ATOM     19  C   LIG    1       -6.465  -1.495  -8.133  0.00  0.00    +0.250 C 
ENDBRANCH  16  18
ENDBRANCH  11  16
ENDBRANCH   7  11
ENDBRANCH   1   9
BRANCH   5  20
ATOM     20  S   LIG    1       -0.494   4.069  -2.339  0.00  0.00    +2.690 S 
ATOM     21  O   LIG    1        0.476   3.375  -3.112  0.00  0.00    -0.940 OA
ATOM     22  O   LIG    1       -0.252   5.337  -1.746  0.00  0.00    -0.950 OA
BRANCH  20  23
ATOM     23  N   LIG    1       -0.926   3.051  -1.107  0.00  0.00    -1.000 NA
ATOM     24  C   LIG    1       -0.756   1.595  -1.232  0.00  0.00    +0.270 C 
ATOM     25  C   LIG    1       -0.013   1.086   0.008  0.00  0.00    +0.220 C 
ATOM     26  O   LIG    1       -0.684   1.548   1.183  0.00  0.00    -0.380 OA
ATOM     27  C   LIG    1       -0.712   2.971   1.319  0.00  0.00    +0.220 C 
ATOM     28  C   LIG    1       -1.491   3.576   0.146  0.00  0.00    +0.270 C 
ENDBRANCH  20  23
ENDBRANCH   5  20
TORSDOF 8
