REMARK  Name = ZINCrD000006fiwA.0
REMARK                            x       y       z     vdW  Elec       q    Type
REMARK                         _______ _______ _______ _____ _____    ______ ____
ROOT
ATOM      1  C   LIG    1       -2.367  -0.147   1.769  0.00  0.00    +0.520 C 
ATOM      2  N   LIG    1       -2.109   1.081   1.277  0.00  0.00    -0.730 N 
ATOM      3  H   LIG    1       -2.832   1.626   0.929  0.00  0.00    +0.410 HD
ATOM      4  O   LIG    1       -1.463  -0.829   2.203  0.00  0.00    -0.530 OA
ENDROOT
BRANCH   1   9
ATOM      5  C   LIG    1       -6.909  -2.061   4.048  0.00  0.00    +0.550 C 
ATOM      6  N   LIG    1       -6.110  -1.664   3.038  0.00  0.00    -0.610 N 
ATOM      7  C   LIG    1       -5.227  -2.624   2.361  0.00  0.00    +0.260 C 
ATOM      8  C   LIG    1       -3.796  -2.079   2.384  0.00  0.00    +0.050 C 
ATOM      9  C   LIG    1       -3.779  -0.673   1.778  0.00  0.00    -0.010 C 
ATOM     10  C   LIG    1       -4.663   0.255   2.615  0.00  0.00    +0.030 C 
ATOM     11  C   LIG    1       -6.105  -0.264   2.594  0.00  0.00    +0.280 C 
ATOM     12  O   LIG    1       -7.564  -1.242   4.664  0.00  0.00    -0.540 OA
BRANCH   5  14
ATOM     13  C   LIG    1       -7.851  -3.890   5.335  0.00  0.00    +0.140 C 
ATOM     14  C   LIG    1       -6.990  -3.486   4.406  0.00  0.00    -0.090 C 
ENDBRANCH   5  14
ENDBRANCH   1   9
BRANCH   2  15
ATOM     15  C   LIG    1       -0.736   1.592   1.267  0.00  0.00    +0.350 C 
ATOM     16  C   LIG    1       -0.017   1.098   0.011  0.00  0.00    +0.040 C 
BRANCH  15  17
ATOM     17  C   LIG    1       -0.761   3.099   1.272  0.00  0.00    +0.020 A 
ATOM     18  C   LIG    1        0.005   3.876   2.049  0.00  0.00    -0.160 A 
ATOM     19  C   LIG    1       -0.350   5.262   1.719  0.00  0.00    -0.090 A 
ATOM     20  C   LIG    1        0.080   6.510   2.166  0.00  0.00    +0.030 A 
ATOM     21  C   LIG    1       -0.482   7.655   1.635  0.00  0.00    +0.110 A 
ATOM     22  C   LIG    1       -1.471   7.562   0.661  0.00  0.00    -0.030 A 
ATOM     23  C   LIG    1       -1.902   6.331   0.213  0.00  0.00    +0.070 A 
ATOM     24  C   LIG    1       -1.349   5.169   0.735  0.00  0.00    +0.020 A 
ATOM     25  C   LIG    1        1.028   3.420   3.057  0.00  0.00    +0.130 C 
ATOM     26  O   LIG    1       -1.560   3.857   0.501  0.00  0.00    -0.190 OA
BRANCH  21  27
ATOM     27  O   LIG    1       -0.068   8.877   2.066  0.00  0.00    -0.310 OA
ATOM     28  C   LIG    1       -0.691  10.019   1.475  0.00  0.00    +0.250 C 
ENDBRANCH  21  27
ENDBRANCH  15  17
ENDBRANCH   2  15
TORSDOF 5
