REMARK  Name = ZINCpk00000y6wXJ.0
REMARK                            x       y       z     vdW  Elec       q    Type
REMARK                         _______ _______ _______ _____ _____    ______ ____
ROOT
ATOM      1  C   LIG    1       -0.416   3.820   2.205  0.00  0.00    +0.600 C 
ATOM      2  N   LIG    1       -1.129   3.084   1.330  0.00  0.00    -0.600 N 
ATOM      3  C   LIG    1       -1.300   1.638   1.532  0.00  0.00    +0.260 C 
ATOM      4  C   LIG    1       -0.860   0.907   0.260  0.00  0.00    +0.030 C 
ATOM      5  C   LIG    1       -1.628   1.469  -0.938  0.00  0.00    +0.060 C 
ATOM      6  C   LIG    1       -1.306   2.956  -1.101  0.00  0.00    +0.110 C 
ATOM      7  C   LIG    1       -1.751   3.711   0.156  0.00  0.00    +0.290 C 
ATOM      8  O   LIG    1       -0.197   4.994   1.975  0.00  0.00    -0.530 OA
ENDROOT
BRANCH   1  12
ATOM      9  C   LIG    1       -0.129   1.015   6.329  0.00  0.00    +0.320 C 
ATOM     10  N   LIG    1        0.242   1.962   5.274  0.00  0.00    -0.470 N 
ATOM     11  C   LIG    1       -0.551   2.306   4.231  0.00  0.00    +0.280 A 
ATOM     12  C   LIG    1        0.098   3.204   3.436  0.00  0.00    -0.220 A 
ATOM     13  C   LIG    1        1.414   3.439   4.058  0.00  0.00    -0.060 A 
ATOM     14  C   LIG    1        2.508   4.236   3.733  0.00  0.00    +0.060 A 
ATOM     15  C   LIG    1        3.621   4.230   4.546  0.00  0.00    -0.010 A 
ATOM     16  C   LIG    1        3.654   3.434   5.681  0.00  0.00    +0.030 A 
ATOM     17  C   LIG    1        2.578   2.640   6.014  0.00  0.00    -0.010 A 
ATOM     18  C   LIG    1        1.446   2.633   5.207  0.00  0.00    +0.090 A 
ENDBRANCH   1  12
BRANCH   6  19
ATOM     19  O   LIG    1        0.102   3.123  -1.283  0.00  0.00    -0.540 OA
ATOM     20  H   LIG    1        0.378   4.043  -1.392  0.00  0.00    +0.380 HD
ENDBRANCH   6  19
BRANCH   6  21
ATOM     21  C   LIG    1       -2.048   3.510  -2.319  0.00  0.00    +0.320 C 
BRANCH  21  22
ATOM     22  N   LIG    1       -1.739   4.933  -2.473  0.00  0.00    -0.300 N 
ATOM     23  C   LIG    1       -1.242   5.521  -3.587  0.00  0.00    +0.140 A 
ATOM     24  C   LIG    1       -1.111   6.835  -3.293  0.00  0.00    +0.140 A 
ATOM     25  N   LIG    1       -1.529   6.986  -2.031  0.00  0.00    -0.260 NA
ATOM     26  N   LIG    1       -1.900   5.842  -1.576  0.00  0.00    -0.080 NA
ENDBRANCH  21  22
ENDBRANCH   6  21
TORSDOF 4
