REMARK  Name = ZINCrg00000SjSxv.0
REMARK                            x       y       z     vdW  Elec       q    Type
REMARK                         _______ _______ _______ _____ _____    ______ ____
ROOT
ATOM      1  O   LIG    1       -5.920   3.229   2.881  0.00  0.00    -0.310 OA
ENDROOT
BRANCH   1   2
ATOM      2  C   LIG    1       -7.068   3.328   2.184  0.00  0.00    +0.550 C 
ATOM      3  O   LIG    1       -7.089   3.037   1.004  0.00  0.00    -0.490 OA
BRANCH   2   6
ATOM      4  N   LIG    1       -9.321   4.512   4.755  0.00  0.00    -0.320 N 
ATOM      5  N   LIG    1       -8.278   4.101   4.130  0.00  0.00    -0.120 NA
ATOM      6  C   LIG    1       -8.302   3.791   2.853  0.00  0.00    +0.010 A 
ATOM      7  C   LIG    1       -9.508   3.894   2.117  0.00  0.00    +0.140 A 
ATOM      8  C   LIG    1      -10.625   4.324   2.768  0.00  0.00    -0.020 A 
ATOM      9  C   LIG    1      -10.512   4.641   4.140  0.00  0.00    +0.480 A 
ATOM     10  O   LIG    1      -11.485   5.030   4.763  0.00  0.00    -0.510 OA
BRANCH   4  11
ATOM     11  C   LIG    1       -9.215   4.843   6.178  0.00  0.00    +0.360 C 
BRANCH  11  12
ATOM     12  C   LIG    1       -9.503   3.595   7.015  0.00  0.00    +0.180 C 
BRANCH  12  14
ATOM     13  C   LIG    1       -8.664   1.407   7.516  0.00  0.00    +0.200 C 
ATOM     14  O   LIG    1       -8.488   2.618   6.778  0.00  0.00    -0.380 OA
ENDBRANCH  12  14
ENDBRANCH  11  12
ENDBRANCH   4  11
ENDBRANCH   2   6
ENDBRANCH   1   2
BRANCH   1  15
ATOM     15  C   LIG    1       -4.748   2.768   2.160  0.00  0.00    +0.240 C 
BRANCH  15  16
ATOM     16  C   LIG    1       -3.568   2.721   3.096  0.00  0.00    +0.420 C 
ATOM     17  O   LIG    1       -3.702   3.046   4.258  0.00  0.00    -0.420 OA
BRANCH  16  18
ATOM     18  C   LIG    1       -2.303   2.300   2.620  0.00  0.00    -0.100 A 
ATOM     19  C   LIG    1       -1.147   2.211   3.365  0.00  0.00    -0.010 A 
ATOM     20  C   LIG    1       -0.134   1.750   2.493  0.00  0.00    -0.260 A 
ATOM     21  C   LIG    1       -0.717   1.576   1.246  0.00  0.00    +0.120 A 
ATOM     22  C   LIG    1       -0.010   1.095   0.005  0.00  0.00    +0.160 C 
ATOM     23  C   LIG    1       -0.993   2.541   4.827  0.00  0.00    +0.140 C 
ATOM     24  N   LIG    1       -2.011   1.912   1.328  0.00  0.00    -0.520 N 
ATOM     25  H   LIG    1       -2.645   1.885   0.594  0.00  0.00    +0.420 HD
BRANCH  20  26
ATOM     26  C   LIG    1        1.269   1.502   2.842  0.00  0.00    +0.430 C 
ATOM     27  O   LIG    1        2.069   2.413   2.820  0.00  0.00    -0.450 OA
ATOM     28  C   LIG    1        1.715   0.115   3.228  0.00  0.00    +0.080 C 
ENDBRANCH  20  26
ENDBRANCH  16  18
ENDBRANCH  15  16
ENDBRANCH   1  15
TORSDOF 9
