REMARK  Name = ZINCqH0000002SRb.0
REMARK                            x       y       z     vdW  Elec       q    Type
REMARK                         _______ _______ _______ _____ _____    ______ ____
ROOT
ATOM      1  N   LIG    1       -0.011   0.966   0.007  0.00  0.00    -0.640 N 
ATOM      2  H   LIG    1        0.002  -0.004   0.002  0.00  0.00    +0.420 HD
ATOM      3  C   LIG    1        1.147   1.655   0.000  0.00  0.00    +0.700 C 
ATOM      4  N   LIG    1        2.323   0.998  -0.015  0.00  0.00    -0.610 N 
ATOM      5  C   LIG    1        3.574   1.781  -0.029  0.00  0.00    +0.300 C 
ATOM      6  C   LIG    1        4.625   1.165   0.917  0.00  0.00    +0.040 C 
ATOM      7  C   LIG    1        3.953   0.683   2.184  0.00  0.00    +0.210 C 
ATOM      8  N   LIG    1        3.585  -0.723   2.026  0.00  0.00    -0.530 N 
ATOM      9  C   LIG    1        2.328  -0.980   1.432  0.00  0.00    +0.190 C 
ATOM     10  C   LIG    1        2.311  -0.451  -0.022  0.00  0.00    +0.280 C 
ATOM     11  O   LIG    1        1.130   2.871   0.007  0.00  0.00    -0.550 OA
ENDROOT
BRANCH   8  12
ATOM     12  C   LIG    1        3.720  -1.412   3.226  0.00  0.00    +0.140 A 
ATOM     13  C   LIG    1        2.883  -1.120   4.295  0.00  0.00    -0.020 A 
ATOM     14  C   LIG    1        3.018  -1.805   5.486  0.00  0.00    +0.050 A 
ATOM     15  C   LIG    1        3.986  -2.786   5.625  0.00  0.00    +0.020 A 
ATOM     16  C   LIG    1        4.827  -3.089   4.576  0.00  0.00    +0.070 A 
ATOM     17  C   LIG    1        4.698  -2.410   3.362  0.00  0.00    -0.010 A 
BRANCH  17  18
ATOM     18  C   LIG    1        5.562  -2.725   2.265  0.00  0.00    +0.270 C 
ATOM     19  N   LIG    1        6.248  -2.975   1.394  0.00  0.00    -0.410 NA
ENDBRANCH  17  18
ENDBRANCH   8  12
BRANCH   1  23
ATOM     20  C   LIG    1       -3.442   1.879   0.028  0.00  0.00    +0.100 A 
ATOM     21  C   LIG    1       -3.149   3.180   0.033  0.00  0.00    -0.150 A 
ATOM     22  S   LIG    1       -1.395   3.345   0.026  0.00  0.00    +0.250 S 
ATOM     23  C   LIG    1       -1.224   1.644   0.017  0.00  0.00    +0.260 A 
ATOM     24  N   LIG    1       -2.391   1.080   0.014  0.00  0.00    -0.510 NA
BRANCH  20  25
ATOM     25  C   LIG    1       -4.857   1.363   0.033  0.00  0.00    +0.120 C 
BRANCH  25  27
ATOM     26  C   LIG    1       -6.497  -0.107  -1.148  0.00  0.00    +0.010 C 
ATOM     27  C   LIG    1       -5.059   0.417  -1.153  0.00  0.00    +0.010 C 
ENDBRANCH  25  27
ENDBRANCH  20  25
ENDBRANCH   1  23
TORSDOF 5
