REMARK  Name = ZINCpk00000xXDup.0
REMARK                            x       y       z     vdW  Elec       q    Type
REMARK                         _______ _______ _______ _____ _____    ______ ____
ROOT
ATOM      1  N   LIG    1       -2.794   2.627  -1.198  0.00  0.00    -0.980 NA
ENDROOT
BRANCH   1   2
ATOM      2  S   LIG    1       -1.150   2.660  -1.399  0.00  0.00    +2.600 S 
ATOM      3  O   LIG    1       -0.676   3.398  -0.281  0.00  0.00    -0.940 OA
ATOM      4  O   LIG    1       -0.968   3.139  -2.724  0.00  0.00    -0.950 OA
ATOM      5  C   LIG    1       -0.644   0.922  -1.275  0.00  0.00    -0.280 C 
ENDBRANCH   1   2
BRANCH   1   6
ATOM      6  C   LIG    1       -3.375   2.863   0.125  0.00  0.00    +0.440 C 
BRANCH   6  11
ATOM      7  N   LIG    1       -4.867   0.917   0.793  0.00  0.00    -0.360 N 
ATOM      8  N   LIG    1       -4.683  -0.275   1.513  0.00  0.00    -0.310 NA
ATOM      9  C   LIG    1       -3.432  -0.298   1.891  0.00  0.00    +0.420 A 
ATOM     10  N   LIG    1       -2.826   0.804   1.451  0.00  0.00    -0.540 NA
ATOM     11  C   LIG    1       -3.677   1.542   0.785  0.00  0.00    +0.260 A 
BRANCH   7  12
ATOM     12  C   LIG    1       -6.108   1.383   0.169  0.00  0.00    +0.330 C 
BRANCH  12  14
ATOM     13  C   LIG    1       -8.323   2.456   0.600  0.00  0.00    +0.040 C 
ATOM     14  C   LIG    1       -6.973   2.085   1.218  0.00  0.00    -0.030 C 
ATOM     15  C   LIG    1       -6.266   3.354   1.696  0.00  0.00    +0.020 C 
ENDBRANCH  12  14
ENDBRANCH   7  12
ENDBRANCH   6  11
ENDBRANCH   1   6
BRANCH   1  16
ATOM     16  C   LIG    1       -3.666   2.361  -2.345  0.00  0.00    +0.390 C 
BRANCH  16  17
ATOM     17  C   LIG    1       -4.192   3.665  -2.889  0.00  0.00    -0.030 A 
ATOM     18  C   LIG    1       -3.660   4.370  -3.908  0.00  0.00    +0.170 A 
ATOM     19  N   LIG    1       -4.442   5.475  -4.070  0.00  0.00    -0.450 N 
ATOM     20  C   LIG    1       -4.282   6.551  -5.050  0.00  0.00    +0.280 C 
ATOM     21  C   LIG    1       -5.597   7.332  -5.146  0.00  0.00    +0.030 C 
ATOM     22  C   LIG    1       -6.065   7.719  -3.740  0.00  0.00    +0.020 C 
ATOM     23  C   LIG    1       -6.507   6.457  -2.989  0.00  0.00    +0.150 C 
ATOM     24  C   LIG    1       -5.427   5.413  -3.144  0.00  0.00    +0.210 A 
ATOM     25  N   LIG    1       -5.274   4.325  -2.446  0.00  0.00    -0.480 NA
ENDBRANCH  16  17
ENDBRANCH   1  16
TORSDOF 7
