REMARK  Name = ZINCrD00000hQ5uk.0
REMARK                            x       y       z     vdW  Elec       q    Type
REMARK                         _______ _______ _______ _____ _____    ______ ____
ROOT
ATOM      1  C   LIG    1       -2.939   6.289  -2.979  0.00  0.00    +0.320 C 
ENDROOT
BRANCH   1   5
ATOM      2  C   LIG    1       -5.636   9.601  -2.941  0.00  0.00    -0.080 A 
ATOM      3  C   LIG    1       -4.274   9.818  -2.848  0.00  0.00    +0.020 A 
ATOM      4  C   LIG    1       -3.401   8.746  -2.860  0.00  0.00    +0.040 A 
ATOM      5  C   LIG    1       -3.890   7.457  -2.965  0.00  0.00    -0.110 A 
ATOM      6  C   LIG    1       -5.252   7.241  -3.064  0.00  0.00    +0.040 A 
ATOM      7  C   LIG    1       -6.125   8.312  -3.046  0.00  0.00    +0.000 A 
BRANCH   2   8
ATOM      8  C   LIG    1       -6.587  10.770  -2.928  0.00  0.00    +0.280 C 
ATOM      9  C   LIG    1       -7.186  10.924  -1.528  0.00  0.00    +0.040 C 
BRANCH   8  11
ATOM     10  C   LIG    1       -8.322  11.580  -4.435  0.00  0.00    +0.550 C 
ATOM     11  N   LIG    1       -7.661  10.536  -3.896  0.00  0.00    -0.720 N 
ATOM     12  H   LIG    1       -7.897   9.630  -4.149  0.00  0.00    +0.400 HD
ATOM     13  O   LIG    1       -8.027  12.716  -4.117  0.00  0.00    -0.540 OA
BRANCH  10  15
ATOM     14  C   LIG    1      -10.053  12.375  -5.938  0.00  0.00    +0.150 C 
ATOM     15  C   LIG    1       -9.401  11.345  -5.407  0.00  0.00    -0.090 C 
ENDBRANCH  10  15
ENDBRANCH   8  11
ENDBRANCH   2   8
ENDBRANCH   1   5
BRANCH   1  16
ATOM     16  N   LIG    1       -2.711   5.828  -1.607  0.00  0.00    -0.730 N 
ATOM     17  H   LIG    1       -3.152   6.273  -0.866  0.00  0.00    +0.400 HD
ATOM     18  C   LIG    1       -1.889   4.786  -1.373  0.00  0.00    +0.490 C 
ATOM     19  O   LIG    1       -1.338   4.229  -2.299  0.00  0.00    -0.510 OA
BRANCH  18  20
ATOM     20  C   LIG    1       -1.655   4.312   0.038  0.00  0.00    +0.330 C 
BRANCH  20  21
ATOM     21  N   LIG    1       -0.730   3.176   0.025  0.00  0.00    -0.470 N 
ATOM     22  C   LIG    1       -1.102   1.859   0.017  0.00  0.00    +0.230 A 
ATOM     23  C   LIG    1       -0.013   1.076   0.008  0.00  0.00    -0.050 A 
ATOM     24  C   LIG    1        1.153   1.963   0.002  0.00  0.00    -0.110 A 
ATOM     25  C   LIG    1        2.533   1.752  -0.011  0.00  0.00    +0.050 A 
ATOM     26  C   LIG    1        3.383   2.822  -0.014  0.00  0.00    -0.030 A 
ATOM     27  C   LIG    1        2.885   4.118  -0.003  0.00  0.00    +0.020 A 
ATOM     28  C   LIG    1        1.527   4.349   0.010  0.00  0.00    -0.020 A 
ATOM     29  C   LIG    1        0.643   3.275   0.013  0.00  0.00    +0.110 A 
ENDBRANCH  20  21
ENDBRANCH  18  20
ENDBRANCH   1  16
TORSDOF 7
