REMARK  Name = ZINCpk00000y6xta.0
REMARK                            x       y       z     vdW  Elec       q    Type
REMARK                         _______ _______ _______ _____ _____    ______ ____
ROOT
ATOM      1  C   LIG    1        6.589  -3.689  -1.713  0.00  0.00    +0.610 C 
ATOM      2  N   LIG    1        5.436  -3.044  -1.451  0.00  0.00    -0.720 N 
ATOM      3  H   LIG    1        4.878  -2.732  -2.181  0.00  0.00    +0.410 HD
ATOM      4  O   LIG    1        7.289  -4.080  -0.798  0.00  0.00    -0.520 OA
ENDROOT
BRANCH   1  11
ATOM      5  C   LIG    1        8.574  -5.977  -6.887  0.00  0.00    +0.070 C 
ATOM      6  C   LIG    1        9.207  -5.160  -5.759  0.00  0.00    +0.250 C 
ATOM      7  O   LIG    1       10.002  -6.017  -4.927  0.00  0.00    -0.360 OA
ATOM      8  C   LIG    1       10.469  -5.408  -3.720  0.00  0.00    +0.140 C 
ATOM      9  C   LIG    1        9.290  -5.196  -2.758  0.00  0.00    +0.110 C 
ATOM     10  C   LIG    1        8.168  -4.573  -3.542  0.00  0.00    -0.140 A 
ATOM     11  C   LIG    1        7.005  -3.922  -3.111  0.00  0.00    -0.010 A 
ATOM     12  N   LIG    1        6.347  -3.561  -4.202  0.00  0.00    -0.260 NA
ATOM     13  N   LIG    1        7.000  -3.920  -5.254  0.00  0.00    -0.260 N 
ATOM     14  C   LIG    1        6.570  -3.678  -6.633  0.00  0.00    +0.370 C 
ATOM     15  C   LIG    1       11.508  -6.317  -3.061  0.00  0.00    +0.080 C 
ATOM     16  C   LIG    1        8.128  -4.552  -4.901  0.00  0.00    -0.030 A 
ENDBRANCH   1  11
BRANCH   2  17
ATOM     17  C   LIG    1        5.024  -2.813  -0.064  0.00  0.00    +0.320 C 
BRANCH  17  18
ATOM     18  C   LIG    1        3.709  -2.078  -0.046  0.00  0.00    -0.080 A 
ATOM     19  C   LIG    1        2.522  -2.789  -0.037  0.00  0.00    +0.020 A 
ATOM     20  C   LIG    1        1.315  -2.121  -0.022  0.00  0.00    +0.080 A 
ATOM     21  C   LIG    1        1.292  -0.726  -0.014  0.00  0.00    -0.130 A 
ATOM     22  C   LIG    1        2.493  -0.015  -0.028  0.00  0.00    +0.040 A 
ATOM     23  C   LIG    1        3.694  -0.694  -0.038  0.00  0.00    +0.020 A 
BRANCH  21  24
ATOM     24  C   LIG    1        0.002  -0.004   0.002  0.00  0.00    +0.560 C 
ATOM     25  O   LIG    1       -1.042  -0.626   0.009  0.00  0.00    -0.540 OA
ATOM     26  N   LIG    1       -0.016   1.344   0.009  0.00  0.00    -0.850 N 
ATOM     27  H   LIG    1       -0.863   1.817   0.016  0.00  0.00    +0.410 HD
ATOM     28  H   LIG    1        0.817   1.840   0.004  0.00  0.00    +0.400 HD
ENDBRANCH  21  24
ENDBRANCH  17  18
ENDBRANCH   2  17
TORSDOF 4
