REMARK  Name = ZINCkj000005k8tQ.1
REMARK                            x       y       z     vdW  Elec       q    Type
REMARK                         _______ _______ _______ _____ _____    ______ ____
ROOT
ATOM      1  N   LIG    1       -1.238   2.069   0.019  0.00  0.00    -0.660 N 
ATOM      2  H   LIG    1       -1.251   3.036   0.090  0.00  0.00    +0.410 HD
ATOM      3  C   LIG    1       -2.394   1.385  -0.081  0.00  0.00    +0.520 C 
ATOM      4  O   LIG    1       -2.382   0.172  -0.088  0.00  0.00    -0.470 OA
ENDROOT
BRANCH   3   5
ATOM      5  C   LIG    1       -3.702   2.126  -0.184  0.00  0.00    +0.170 C 
ATOM      6  C   LIG    1       -3.957   2.895   1.114  0.00  0.00    +0.260 C 
ATOM      7  N   LIG    1       -5.260   3.570   1.033  0.00  0.00    -0.380 N 
ATOM      8  C   LIG    1       -6.318   2.569   0.839  0.00  0.00    +0.240 C 
ATOM      9  C   LIG    1       -6.058   1.800  -0.459  0.00  0.00    +0.280 C 
ATOM     10  C   LIG    1       -5.508   4.310   2.278  0.00  0.00    +0.340 C 
ATOM     11  H   LIG    1       -5.258   4.212   0.255  0.00  0.00    +0.430 HD
ATOM     12  O   LIG    1       -4.765   1.192  -0.396  0.00  0.00    -0.330 OA
ENDBRANCH   3   5
BRANCH   1  15
ATOM     13  C   LIG    1        0.997   3.306  -1.232  0.00  0.00    +0.100 C 
ATOM     14  C   LIG    1        1.097   1.951  -0.581  0.00  0.00    -0.080 A 
ATOM     15  C   LIG    1       -0.017   1.384   0.020  0.00  0.00    +0.130 A 
ATOM     16  C   LIG    1        0.078   0.134   0.619  0.00  0.00    +0.030 A 
ATOM     17  C   LIG    1        1.281  -0.545   0.616  0.00  0.00    +0.030 A 
ATOM     18  C   LIG    1        2.393   0.016   0.017  0.00  0.00    -0.020 A 
ATOM     19  C   LIG    1        2.304   1.266  -0.583  0.00  0.00    +0.100 A 
BRANCH  19  20
ATOM     20  N   LIG    1        3.429   1.832  -1.188  0.00  0.00    -0.510 N 
ATOM     21  C   LIG    1        3.872   1.027  -2.334  0.00  0.00    +0.200 C 
ATOM     22  C   LIG    1        4.516   2.009  -0.217  0.00  0.00    +0.210 C 
ENDBRANCH  19  20
ENDBRANCH   1  15
TORSDOF 3
