REMARK  Name = ZINCkj000005k8tQ.2
REMARK                            x       y       z     vdW  Elec       q    Type
REMARK                         _______ _______ _______ _____ _____    ______ ____
ROOT
ATOM      1  N   LIG    1        1.156   3.489   0.009  0.00  0.00    -0.650 N 
ATOM      2  H   LIG    1        1.986   3.986   0.085  0.00  0.00    +0.410 HD
ATOM      3  C   LIG    1       -0.017   4.146  -0.078  0.00  0.00    +0.460 C 
ATOM      4  O   LIG    1       -1.061   3.528  -0.072  0.00  0.00    -0.490 OA
ENDROOT
BRANCH   3   5
ATOM      5  C   LIG    1       -0.032   5.650  -0.184  0.00  0.00    +0.240 C 
ATOM      6  C   LIG    1        0.524   6.258   1.106  0.00  0.00    +0.270 C 
ATOM      7  N   LIG    1       -0.340   5.883   2.234  0.00  0.00    -0.390 N 
ATOM      8  C   LIG    1       -1.699   6.389   1.998  0.00  0.00    +0.250 C 
ATOM      9  C   LIG    1       -2.251   5.780   0.707  0.00  0.00    +0.270 C 
ATOM     10  C   LIG    1        0.192   6.466   3.473  0.00  0.00    +0.340 C 
ATOM     11  H   LIG    1       -0.365   4.878   2.319  0.00  0.00    +0.420 HD
ATOM     12  O   LIG    1       -1.375   6.101  -0.379  0.00  0.00    -0.320 OA
ENDBRANCH   3   5
BRANCH   1  15
ATOM     13  C   LIG    1        3.357   2.163   1.229  0.00  0.00    +0.100 C 
ATOM     14  C   LIG    1        2.232   1.404   0.575  0.00  0.00    -0.090 A 
ATOM     15  C   LIG    1        1.177   2.090  -0.009  0.00  0.00    +0.130 A 
ATOM     16  C   LIG    1        0.141   1.387  -0.612  0.00  0.00    +0.030 A 
ATOM     17  C   LIG    1        0.161   0.006  -0.630  0.00  0.00    +0.040 A 
ATOM     18  C   LIG    1        1.210  -0.681  -0.051  0.00  0.00    -0.020 A 
ATOM     19  C   LIG    1        2.249   0.016   0.554  0.00  0.00    +0.110 A 
BRANCH  19  20
ATOM     20  N   LIG    1        3.309  -0.679   1.141  0.00  0.00    -0.510 N 
ATOM     21  C   LIG    1        4.061  -1.440   0.134  0.00  0.00    +0.210 C 
ATOM     22  C   LIG    1        2.831  -1.558   2.217  0.00  0.00    +0.200 C 
ENDBRANCH  19  20
ENDBRANCH   1  15
TORSDOF 3
