REMARK  Name = ZINCpk000000pJu7.0
REMARK                            x       y       z     vdW  Elec       q    Type
REMARK                         _______ _______ _______ _____ _____    ______ ____
ROOT
ATOM      1  C   LIG    1        2.165   0.655  -0.015  0.00  0.00    +0.220 C 
ATOM      2  N   LIG    1        1.252  -0.501  -0.013  0.00  0.00    -0.710 N 
ATOM      3  H   LIG    1        1.503  -1.438  -0.019  0.00  0.00    +0.440 HD
ATOM      4  C   LIG    1        0.002  -0.004   0.002  0.00  0.00    +0.700 C 
ATOM      5  N   LIG    1       -0.016   1.334   0.009  0.00  0.00    -0.580 N 
ATOM      6  O   LIG    1       -0.999  -0.693   0.008  0.00  0.00    -0.530 OA
ATOM      7  C   LIG    1        1.230   1.848   0.000  0.00  0.00    +0.540 C 
ATOM      8  O   LIG    1        1.538   3.020   0.003  0.00  0.00    -0.440 OA
ENDROOT
BRANCH   1   9
ATOM      9  C   LIG    1        3.010   0.660  -1.263  0.00  0.00    -0.260 A 
ATOM     10  C   LIG    1        2.657   0.152  -2.466  0.00  0.00    +0.270 A 
ATOM     11  N   LIG    1        3.684   0.357  -3.317  0.00  0.00    -0.370 N 
ATOM     12  N   LIG    1        4.707   1.004  -2.610  0.00  0.00    -0.290 NA
ATOM     13  C   LIG    1        3.726  -0.034  -4.728  0.00  0.00    +0.360 C 
ATOM     14  C   LIG    1        4.301   1.186  -1.380  0.00  0.00    +0.270 A 
ENDBRANCH   1   9
BRANCH   1  16
ATOM     15  C   LIG    1        2.164   0.572   2.482  0.00  0.00    +0.020 C 
ATOM     16  C   LIG    1        3.047   0.647   1.235  0.00  0.00    +0.070 C 
ENDBRANCH   1  16
BRANCH   5  17
ATOM     17  C   LIG    1       -1.239   2.140   0.020  0.00  0.00    +0.500 C 
BRANCH  17  18
ATOM     18  C   LIG    1       -1.651   2.409   1.444  0.00  0.00    +0.150 A 
ATOM     19  N   LIG    1       -1.281   3.426   2.185  0.00  0.00    -0.450 NA
ATOM     20  C   LIG    1       -1.892   3.251   3.370  0.00  0.00    +0.180 A 
ATOM     21  N   LIG    1       -2.584   2.154   3.293  0.00  0.00    -0.370 NA
ATOM     22  O   LIG    1       -2.459   1.655   2.195  0.00  0.00    +0.100 OA
BRANCH  20  23
ATOM     23  C   LIG    1       -1.789   4.158   4.569  0.00  0.00    +0.020 C 
ATOM     24  C   LIG    1       -2.299   5.553   4.199  0.00  0.00    +0.060 C 
ATOM     25  C   LIG    1       -0.328   4.251   5.015  0.00  0.00    +0.060 C 
ATOM     26  C   LIG    1       -2.635   3.592   5.712  0.00  0.00    +0.050 C 
ENDBRANCH  20  23
ENDBRANCH  17  18
ENDBRANCH   5  17
TORSDOF 5
