REMARK  Name = ZINCpk00000eamAR.0
REMARK                            x       y       z     vdW  Elec       q    Type
REMARK                         _______ _______ _______ _____ _____    ______ ____
ROOT
ATOM      1  C   LIG    1       -0.336   0.344  -0.171  0.00  0.00    +0.240 C 
ATOM      2  C   LIG    1       -0.566   0.009   1.308  0.00  0.00    +0.030 C 
ATOM      3  C   LIG    1       -0.655  -1.512   1.451  0.00  0.00    +0.090 C 
ATOM      4  C   LIG    1        0.496  -2.161   0.738  0.00  0.00    +0.520 C 
ATOM      5  N   LIG    1        1.237  -1.540  -0.181  0.00  0.00    -0.710 N 
ATOM      6  H   LIG    1        1.941  -2.047  -0.615  0.00  0.00    +0.410 HD
ATOM      7  O   LIG    1        0.766  -3.311   1.011  0.00  0.00    -0.540 OA
ATOM      8  C   LIG    1        1.054  -0.149  -0.577  0.00  0.00    +0.330 C 
ENDROOT
BRANCH   8   9
ATOM      9  C   LIG    1        1.207  -0.028  -2.072  0.00  0.00    -0.060 A 
ATOM     10  C   LIG    1        2.143   0.684  -2.727  0.00  0.00    +0.170 A 
ATOM     11  N   LIG    1        1.936   0.529  -4.043  0.00  0.00    -0.490 NA
ATOM     12  C   LIG    1        0.907  -0.252  -4.228  0.00  0.00    +0.410 A 
ATOM     13  N   LIG    1        0.426  -0.626  -3.023  0.00  0.00    -0.450 N 
ATOM     14  C   LIG    1       -0.720  -1.506  -2.780  0.00  0.00    +0.310 C 
ENDBRANCH   8   9
BRANCH   1  16
ATOM     15  C   LIG    1       -1.617   2.378  -0.566  0.00  0.00    +0.570 C 
ATOM     16  N   LIG    1       -0.419   1.793  -0.365  0.00  0.00    -0.710 N 
ATOM     17  H   LIG    1        0.387   2.332  -0.353  0.00  0.00    +0.400 HD
ATOM     18  O   LIG    1       -2.627   1.703  -0.586  0.00  0.00    -0.530 OA
BRANCH  15  21
ATOM     19  C   LIG    1       -3.011   5.820  -1.155  0.00  0.00    +0.120 A 
ATOM     20  C   LIG    1       -2.939   4.449  -0.977  0.00  0.00    -0.010 A 
ATOM     21  C   LIG    1       -1.702   3.841  -0.763  0.00  0.00    -0.110 A 
ATOM     22  C   LIG    1       -0.543   4.619  -0.740  0.00  0.00    +0.010 A 
ATOM     23  C   LIG    1       -0.625   5.984  -0.924  0.00  0.00    +0.050 A 
ATOM     24  C   LIG    1       -1.853   6.585  -1.130  0.00  0.00    -0.090 A 
ATOM     25  C   LIG    1       -1.935   8.077  -1.330  0.00  0.00    +0.100 C 
BRANCH  19  27
ATOM     26  C   LIG    1       -5.365   5.568  -1.371  0.00  0.00    +0.240 C 
ATOM     27  O   LIG    1       -4.215   6.416  -1.358  0.00  0.00    -0.310 OA
ENDBRANCH  19  27
ENDBRANCH  15  21
ENDBRANCH   1  16
TORSDOF 4
