REMARK  Name = ZINCpk00000InR1J.0
REMARK                            x       y       z     vdW  Elec       q    Type
REMARK                         _______ _______ _______ _____ _____    ______ ____
ROOT
ATOM      1  N   LIG    1        0.002  -0.004   0.002  0.00  0.00    -0.560 NA
ATOM      2  C   LIG    1        1.000  -0.509  -0.940  0.00  0.00    +0.180 C 
ATOM      3  C   LIG    1        1.616  -1.772  -0.378  0.00  0.00    +0.040 C 
ATOM      4  C   LIG    1        0.842  -2.997  -0.892  0.00  0.00    +0.250 C 
ATOM      5  N   LIG    1       -0.612  -2.743  -0.913  0.00  0.00    -0.600 N 
ATOM      6  C   LIG    1       -1.296  -2.049   0.159  0.00  0.00    +0.300 C 
ATOM      7  C   LIG    1       -1.331  -3.174  -1.969  0.00  0.00    +0.510 C 
ATOM      8  O   LIG    1       -2.527  -2.977  -2.009  0.00  0.00    -0.510 OA
ATOM      9  C   LIG    1       -1.305  -0.528  -0.127  0.00  0.00    +0.180 C 
ENDROOT
BRANCH   1  10
ATOM     10  C   LIG    1       -0.018   1.465   0.010  0.00  0.00    +0.260 C 
BRANCH  10  13
ATOM     11  N   LIG    1       -1.112   2.627   3.289  0.00  0.00    -0.370 N 
ATOM     12  C   LIG    1       -0.143   2.217   2.443  0.00  0.00    +0.250 A 
ATOM     13  C   LIG    1       -0.723   1.951   1.250  0.00  0.00    -0.240 A 
ATOM     14  C   LIG    1       -2.092   2.212   1.369  0.00  0.00    +0.230 A 
ATOM     15  N   LIG    1       -2.327   2.611   2.593  0.00  0.00    -0.290 NA
BRANCH  11  17
ATOM     16  C   LIG    1       -1.493   4.423   4.904  0.00  0.00    +0.040 C 
ATOM     17  C   LIG    1       -0.925   3.019   4.688  0.00  0.00    +0.310 C 
ENDBRANCH  11  17
ENDBRANCH  10  13
ENDBRANCH   1  10
BRANCH   7  18
ATOM     18  C   LIG    1       -0.648  -3.899  -3.099  0.00  0.00    +0.230 C 
BRANCH  18  19
ATOM     19  O   LIG    1       -1.613  -4.251  -4.092  0.00  0.00    -0.280 OA
BRANCH  19  20
ATOM     20  C   LIG    1       -1.159  -4.915  -5.187  0.00  0.00    +0.080 A 
ATOM     21  C   LIG    1       -2.038  -5.298  -6.195  0.00  0.00    +0.050 A 
ATOM     22  C   LIG    1       -1.526  -5.968  -7.295  0.00  0.00    +0.020 A 
ATOM     23  C   LIG    1       -0.173  -6.244  -7.348  0.00  0.00    +0.220 A 
ATOM     24  N   LIG    1        0.632  -5.872  -6.372  0.00  0.00    -0.450 NA
ATOM     25  C   LIG    1        0.187  -5.228  -5.312  0.00  0.00    +0.180 A 
ENDBRANCH  19  20
ENDBRANCH  18  19
ENDBRANCH   7  18
TORSDOF 6
