REMARK  Name = ZINCrD00000F5Lxy.0
REMARK                            x       y       z     vdW  Elec       q    Type
REMARK                         _______ _______ _______ _____ _____    ______ ____
ROOT
ATOM      1  C   LIG    1       -3.427   3.627   4.634  0.00  0.00    +0.120 C 
ATOM      2  N   LIG    1       -3.647   4.342   3.574  0.00  0.00    -0.180 NA
ENDROOT
BRANCH   1   3
ATOM      3  C   LIG    1       -3.676   4.196   5.972  0.00  0.00    -0.100 A 
ATOM      4  C   LIG    1       -3.422   5.547   6.219  0.00  0.00    +0.010 A 
ATOM      5  C   LIG    1       -3.662   6.073   7.471  0.00  0.00    +0.020 A 
ATOM      6  C   LIG    1       -4.144   5.263   8.484  0.00  0.00    +0.030 A 
ATOM      7  C   LIG    1       -4.393   3.923   8.249  0.00  0.00    +0.020 A 
ATOM      8  C   LIG    1       -4.162   3.384   7.000  0.00  0.00    +0.040 A 
ENDBRANCH   1   3
BRANCH   2   9
ATOM      9  N   LIG    1       -4.269   5.592   3.689  0.00  0.00    -0.580 N 
ATOM     10  H   LIG    1       -4.613   5.886   4.547  0.00  0.00    +0.390 HD
ATOM     11  C   LIG    1       -4.390   6.387   2.607  0.00  0.00    +0.570 C 
ATOM     12  O   LIG    1       -3.959   6.019   1.531  0.00  0.00    -0.480 OA
BRANCH  11  13
ATOM     13  C   LIG    1       -5.048   7.708   2.728  0.00  0.00    -0.080 A 
ATOM     14  C   LIG    1       -5.555   8.148   3.954  0.00  0.00    -0.020 A 
ATOM     15  C   LIG    1       -6.156   9.390   4.024  0.00  0.00    +0.270 A 
ATOM     16  N   LIG    1       -6.263  10.150   2.952  0.00  0.00    -0.460 NA
ATOM     17  C   LIG    1       -5.804   9.772   1.776  0.00  0.00    +0.270 A 
ATOM     18  C   LIG    1       -5.184   8.548   1.618  0.00  0.00    +0.040 A 
ENDBRANCH  11  13
ENDBRANCH   2   9
BRANCH   1  19
ATOM     19  C   LIG    1       -2.916   2.216   4.499  0.00  0.00    +0.300 C 
BRANCH  19  20
ATOM     20  O   LIG    1       -2.755   1.898   3.115  0.00  0.00    -0.280 OA
BRANCH  20  26
ATOM     21  C   LIG    1       -2.119   0.275   1.488  0.00  0.00    +0.100 A 
ATOM     22  C   LIG    1       -1.648  -0.993   1.190  0.00  0.00    -0.030 A 
ATOM     23  C   LIG    1       -1.364  -1.883   2.209  0.00  0.00    +0.010 A 
ATOM     24  C   LIG    1       -1.548  -1.511   3.527  0.00  0.00    +0.010 A 
ATOM     25  C   LIG    1       -2.018  -0.246   3.832  0.00  0.00    -0.050 A 
ATOM     26  C   LIG    1       -2.299   0.652   2.816  0.00  0.00    +0.100 A 
BRANCH  21  28
ATOM     27  C   LIG    1       -2.184   0.698  -0.851  0.00  0.00    +0.230 C 
ATOM     28  O   LIG    1       -2.398   1.152   0.487  0.00  0.00    -0.300 OA
ENDBRANCH  21  28
ENDBRANCH  20  26
ENDBRANCH  19  20
ENDBRANCH   1  19
TORSDOF 7
