REMARK  Name = ZINCpk00000EJ0wo.0
REMARK                            x       y       z     vdW  Elec       q    Type
REMARK                         _______ _______ _______ _____ _____    ______ ____
ROOT
ATOM      1  C   LIG    1       -0.209   8.974  -3.618  0.00  0.00    +0.540 C 
ATOM      2  N   LIG    1       -0.338   9.004  -4.960  0.00  0.00    -0.600 N 
ATOM      3  C   LIG    1       -0.287   7.763  -5.744  0.00  0.00    +0.260 C 
ATOM      4  C   LIG    1       -1.546   7.688  -6.622  0.00  0.00    +0.030 C 
ATOM      5  C   LIG    1       -1.649   8.960  -7.465  0.00  0.00    +0.010 C 
ATOM      6  C   LIG    1       -1.776  10.176  -6.544  0.00  0.00    +0.140 C 
ATOM      7  C   LIG    1       -0.526  10.279  -5.665  0.00  0.00    +0.310 C 
ATOM      8  O   LIG    1       -0.156  10.011  -2.991  0.00  0.00    -0.540 OA
ENDROOT
BRANCH   1  10
ATOM      9  C   LIG    1        1.110   6.889  -3.367  0.00  0.00    +0.060 C 
ATOM     10  C   LIG    1       -0.131   7.653  -2.898  0.00  0.00    -0.080 C 
ATOM     11  C   LIG    1       -1.383   6.829  -3.205  0.00  0.00    +0.060 C 
BRANCH  10  12
ATOM     12  C   LIG    1       -0.039   7.898  -1.391  0.00  0.00    +0.210 C 
BRANCH  12  13
ATOM     13  O   LIG    1        0.035   6.645  -0.708  0.00  0.00    -0.380 OA
BRANCH  13  14
ATOM     14  C   LIG    1        0.125   6.762   0.714  0.00  0.00    +0.220 C 
BRANCH  14  15
ATOM     15  C   LIG    1        0.197   5.388   1.328  0.00  0.00    -0.090 A 
ATOM     16  C   LIG    1        1.425   4.786   1.532  0.00  0.00    +0.020 A 
ATOM     17  C   LIG    1        1.492   3.525   2.094  0.00  0.00    +0.000 A 
ATOM     18  C   LIG    1        0.331   2.866   2.454  0.00  0.00    +0.010 A 
ATOM     19  C   LIG    1       -0.897   3.466   2.245  0.00  0.00    +0.000 A 
ATOM     20  C   LIG    1       -0.964   4.729   1.686  0.00  0.00    +0.020 A 
ENDBRANCH  14  15
ENDBRANCH  13  14
ENDBRANCH  12  13
ENDBRANCH  10  12
ENDBRANCH   1  10
BRANCH   6  21
ATOM     21  O   LIG    1       -2.931  10.027  -5.715  0.00  0.00    -0.550 OA
ATOM     22  H   LIG    1       -3.761   9.956  -6.206  0.00  0.00    +0.380 HD
ENDBRANCH   6  21
BRANCH   6  23
ATOM     23  C   LIG    1       -1.913  11.445  -7.388  0.00  0.00    +0.040 C 
BRANCH  23  24
ATOM     24  C   LIG    1       -3.144  11.343  -8.252  0.00  0.00    +0.520 C 
ATOM     25  O   LIG    1       -3.842  10.353  -8.199  0.00  0.00    -0.540 OA
ATOM     26  N   LIG    1       -3.468  12.352  -9.085  0.00  0.00    -0.850 N 
ATOM     27  H   LIG    1       -4.260  12.287  -9.641  0.00  0.00    +0.400 HD
ATOM     28  H   LIG    1       -2.909  13.144  -9.128  0.00  0.00    +0.400 HD
ENDBRANCH  23  24
ENDBRANCH   6  23
TORSDOF 8
