REMARK  Name = ZINCqH0000038hNF.0
REMARK                            x       y       z     vdW  Elec       q    Type
REMARK                         _______ _______ _______ _____ _____    ______ ____
ROOT
ATOM      1  C   LIG    1       -2.494   0.991   0.020  0.00  0.00    +0.580 C 
ATOM      2  N   LIG    1       -2.478  -0.353  -0.089  0.00  0.00    -0.570 N 
ATOM      3  C   LIG    1       -3.726  -1.108  -0.197  0.00  0.00    +0.320 C 
ATOM      4  C   LIG    1       -3.653  -2.360   0.679  0.00  0.00    -0.020 C 
ATOM      5  C   LIG    1       -3.055  -2.022   2.018  0.00  0.00    +0.530 C 
ATOM      6  N   LIG    1       -1.726  -1.807   2.142  0.00  0.00    -0.680 N 
ATOM      7  H   LIG    1       -1.343  -1.650   3.019  0.00  0.00    +0.410 HD
ATOM      8  C   LIG    1       -0.897  -1.810   1.014  0.00  0.00    +0.130 A 
ATOM      9  C   LIG    1        0.278  -2.541   0.995  0.00  0.00    +0.020 A 
ATOM     10  C   LIG    1        1.096  -2.501  -0.138  0.00  0.00    +0.050 A 
ATOM     11  C   LIG    1        0.738  -1.732  -1.230  0.00  0.00    +0.020 A 
ATOM     12  C   LIG    1       -0.440  -1.008  -1.218  0.00  0.00    +0.040 A 
ATOM     13  O   LIG    1       -3.771  -1.940   2.994  0.00  0.00    -0.510 OA
ATOM     14  C   LIG    1       -5.062  -2.921   0.880  0.00  0.00    +0.080 C 
ATOM     15  C   LIG    1       -1.265  -1.053  -0.106  0.00  0.00    +0.110 A 
ATOM     16  O   LIG    1       -3.553   1.580   0.113  0.00  0.00    -0.490 OA
ENDROOT
BRANCH   1  21
ATOM     17  C   LIG    1       -3.080   4.806  -3.211  0.00  0.00    +0.130 C 
ATOM     18  C   LIG    1       -1.928   4.374  -2.341  0.00  0.00    +0.170 A 
ATOM     19  N   LIG    1       -2.065   3.315  -1.578  0.00  0.00    -0.470 NA
ATOM     20  C   LIG    1       -1.075   2.894  -0.791  0.00  0.00    +0.170 A 
ATOM     21  C   LIG    1       -1.228   1.745   0.025  0.00  0.00    -0.110 A 
ATOM     22  C   LIG    1       -0.175   1.341   0.834  0.00  0.00    +0.080 A 
ATOM     23  C   LIG    1        1.024   2.042   0.842  0.00  0.00    +0.010 A 
ATOM     24  C   LIG    1        1.197   3.147   0.061  0.00  0.00    +0.080 A 
ATOM     25  C   LIG    1        0.156   3.594  -0.768  0.00  0.00    -0.120 A 
ATOM     26  C   LIG    1        0.308   4.731  -1.584  0.00  0.00    +0.090 A 
ATOM     27  C   LIG    1       -0.746   5.109  -2.367  0.00  0.00    -0.030 A 
ENDBRANCH   1  21
TORSDOF 1
