REMARK  Name = ZINCkj00000zzw3j.1
REMARK                            x       y       z     vdW  Elec       q    Type
REMARK                         _______ _______ _______ _____ _____    ______ ____
ROOT
ATOM      1  C   LIG    1       -1.806   2.845  -0.121  0.00  0.00    +0.170 C 
ATOM      2  C   LIG    1       -0.909   2.613   1.097  0.00  0.00    +0.210 C 
ATOM      3  N   LIG    1       -0.789   1.169   1.346  0.00  0.00    -0.530 NA
ATOM      4  C   LIG    1       -0.233   0.481   0.173  0.00  0.00    +0.210 C 
ATOM      5  C   LIG    1       -1.136   0.731  -1.037  0.00  0.00    +0.280 C 
ATOM      6  N   LIG    1       -1.225   2.175  -1.292  0.00  0.00    -0.380 N 
ATOM      7  H   LIG    1       -0.302   2.543  -1.467  0.00  0.00    +0.420 HD
ENDROOT
BRANCH   1   9
ATOM      8  C   LIG    1       -2.594   5.033   0.792  0.00  0.00    +0.060 C 
ATOM      9  C   LIG    1       -1.915   4.346  -0.395  0.00  0.00    +0.030 C 
ENDBRANCH   1   9
BRANCH   3  10
ATOM     10  C   LIG    1        0.020   0.906   2.543  0.00  0.00    +0.230 C 
BRANCH  10  11
ATOM     11  C   LIG    1       -0.535   1.710   3.721  0.00  0.00    +0.190 C 
BRANCH  11  12
ATOM     12  O   LIG    1       -1.864   1.273   4.011  0.00  0.00    -0.360 OA
BRANCH  12  13
ATOM     13  C   LIG    1       -2.478   1.964   5.101  0.00  0.00    +0.220 C 
BRANCH  13  14
ATOM     14  C   LIG    1       -3.890   1.417   5.321  0.00  0.00    +0.460 C 
ATOM     15  F   LIG    1       -4.650   1.608   4.161  0.00  0.00    -0.180 F 
ATOM     16  F   LIG    1       -4.492   2.093   6.388  0.00  0.00    -0.170 F 
ATOM     17  F   LIG    1       -3.821   0.051   5.613  0.00  0.00    -0.170 F 
ENDBRANCH  13  14
ENDBRANCH  12  13
ENDBRANCH  11  12
ENDBRANCH  10  11
ENDBRANCH   3  10
BRANCH   6  18
ATOM     18  C   LIG    1       -2.078   2.413  -2.465  0.00  0.00    +0.220 C 
BRANCH  18  19
ATOM     19  C   LIG    1       -1.373   1.896  -3.720  0.00  0.00    +0.210 C 
ATOM     20  C   LIG    1       -2.161   2.324  -4.960  0.00  0.00    +0.050 C 
BRANCH  19  21
ATOM     21  O   LIG    1       -1.298   0.470  -3.672  0.00  0.00    -0.550 OA
ATOM     22  H   LIG    1       -2.159   0.032  -3.628  0.00  0.00    +0.390 HD
ENDBRANCH  19  21
ENDBRANCH  18  19
ENDBRANCH   6  18
TORSDOF 9
