REMARK  Name = ZINCkj00000zzw3j.0
REMARK                            x       y       z     vdW  Elec       q    Type
REMARK                         _______ _______ _______ _____ _____    ______ ____
ROOT
ATOM      1  C   LIG    1       -3.035   1.497  -2.726  0.00  0.00    +0.180 C 
ATOM      2  C   LIG    1       -2.186   1.215  -1.484  0.00  0.00    +0.210 C 
ATOM      3  N   LIG    1       -2.193  -0.228  -1.207  0.00  0.00    -0.530 NA
ATOM      4  C   LIG    1       -1.670  -0.983  -2.355  0.00  0.00    +0.220 C 
ATOM      5  C   LIG    1       -2.524  -0.683  -3.590  0.00  0.00    +0.270 C 
ATOM      6  N   LIG    1       -2.488   0.758  -3.872  0.00  0.00    -0.380 N 
ATOM      7  H   LIG    1       -3.040   0.954  -4.693  0.00  0.00    +0.430 HD
ENDROOT
BRANCH   1   9
ATOM      8  C   LIG    1       -3.960   3.295  -4.193  0.00  0.00    +0.040 C 
ATOM      9  C   LIG    1       -3.014   2.996  -3.029  0.00  0.00    +0.050 C 
ENDBRANCH   1   9
BRANCH   3  10
ATOM     10  C   LIG    1       -1.433  -0.534   0.013  0.00  0.00    +0.240 C 
BRANCH  10  11
ATOM     11  C   LIG    1       -1.942   0.339   1.162  0.00  0.00    +0.190 C 
BRANCH  11  12
ATOM     12  O   LIG    1       -3.312   0.029   1.426  0.00  0.00    -0.360 OA
BRANCH  12  13
ATOM     13  C   LIG    1       -3.887   0.793   2.488  0.00  0.00    +0.220 C 
BRANCH  13  14
ATOM     14  C   LIG    1       -5.347   0.379   2.681  0.00  0.00    +0.460 C 
ATOM     15  F   LIG    1       -6.058   0.614   1.499  0.00  0.00    -0.180 F 
ATOM     16  F   LIG    1       -5.910   1.127   3.721  0.00  0.00    -0.170 F 
ATOM     17  F   LIG    1       -5.408  -0.982   2.999  0.00  0.00    -0.170 F 
ENDBRANCH  13  14
ENDBRANCH  12  13
ENDBRANCH  11  12
ENDBRANCH  10  11
ENDBRANCH   3  10
BRANCH   6  18
ATOM     18  C   LIG    1       -1.099   1.177  -4.105  0.00  0.00    +0.220 C 
BRANCH  18  19
ATOM     19  C   LIG    1       -0.570   0.503  -5.372  0.00  0.00    +0.200 C 
ATOM     20  C   LIG    1        0.913   0.839  -5.548  0.00  0.00    +0.050 C 
BRANCH  19  21
ATOM     21  O   LIG    1       -1.302   0.975  -6.505  0.00  0.00    -0.550 OA
ATOM     22  H   LIG    1       -1.240   1.930  -6.642  0.00  0.00    +0.390 HD
ENDBRANCH  19  21
ENDBRANCH  18  19
ENDBRANCH   6  18
TORSDOF 9
