REMARK  Name = ZINCpk00000y6ue7.0
REMARK                            x       y       z     vdW  Elec       q    Type
REMARK                         _______ _______ _______ _____ _____    ______ ____
ROOT
ATOM      1  N   LIG    1       -1.495   1.534   5.811  0.00  0.00    -0.720 N 
ATOM      2  H   LIG    1       -0.713   1.343   6.351  0.00  0.00    +0.410 HD
ATOM      3  C   LIG    1       -1.393   1.575   4.468  0.00  0.00    +0.610 C 
ATOM      4  O   LIG    1       -2.374   1.814   3.791  0.00  0.00    -0.520 OA
ENDROOT
BRANCH   3   5
ATOM      5  C   LIG    1       -0.090   1.328   3.818  0.00  0.00    -0.010 A 
ATOM      6  N   LIG    1        1.056   1.057   4.422  0.00  0.00    -0.260 NA
ATOM      7  N   LIG    1        1.992   0.900   3.550  0.00  0.00    -0.260 N 
ATOM      8  C   LIG    1        1.500   1.064   2.314  0.00  0.00    -0.030 A 
ATOM      9  C   LIG    1        2.192   0.984   0.977  0.00  0.00    +0.250 C 
ATOM     10  C   LIG    1        3.517   1.746   1.032  0.00  0.00    +0.070 C 
ATOM     11  O   LIG    1        1.329   1.580  -0.002  0.00  0.00    -0.360 OA
ATOM     12  C   LIG    1       -0.013   1.086   0.008  0.00  0.00    +0.140 C 
ATOM     13  C   LIG    1       -0.751   1.592  -1.233  0.00  0.00    +0.080 C 
ATOM     14  C   LIG    1       -0.736   1.581   1.270  0.00  0.00    +0.110 C 
ATOM     15  C   LIG    1        3.389   0.587   3.863  0.00  0.00    +0.370 C 
ATOM     16  C   LIG    1        0.175   1.337   2.442  0.00  0.00    -0.140 A 
ENDBRANCH   3   5
BRANCH   1  17
ATOM     17  C   LIG    1       -2.788   1.778   6.455  0.00  0.00    +0.270 C 
BRANCH  17  18
ATOM     18  C   LIG    1       -2.629   1.674   7.973  0.00  0.00    +0.260 C 
BRANCH  18  19
ATOM     19  N   LIG    1       -3.922   1.918   8.618  0.00  0.00    -0.720 N 
ATOM     20  H   LIG    1       -4.705   2.109   8.077  0.00  0.00    +0.410 HD
BRANCH  19  25
ATOM     21  C   LIG    1       -4.442   1.771  14.210  0.00  0.00    +0.100 C 
ATOM     22  C   LIG    1       -4.266   1.802  12.714  0.00  0.00    -0.200 A 
ATOM     23  C   LIG    1       -3.020   1.564  12.150  0.00  0.00    +0.100 A 
ATOM     24  C   LIG    1       -2.901   1.602  10.772  0.00  0.00    -0.110 A 
ATOM     25  C   LIG    1       -4.027   1.877  10.003  0.00  0.00    +0.400 A 
ATOM     26  N   LIG    1       -5.198   2.104  10.579  0.00  0.00    -0.540 NA
ATOM     27  C   LIG    1       -5.342   2.069  11.891  0.00  0.00    +0.310 A 
ENDBRANCH  19  25
ENDBRANCH  18  19
ENDBRANCH  17  18
ENDBRANCH   1  17
TORSDOF 5
