REMARK  Name = ZINCpe00000gMon3.0
REMARK                            x       y       z     vdW  Elec       q    Type
REMARK                         _______ _______ _______ _____ _____    ______ ____
ROOT
ATOM      1  N   LIG    1        4.075   3.810  -3.873  0.00  0.00    -0.530 N 
ATOM      2  C   LIG    1        4.133   2.464  -3.916  0.00  0.00    +0.610 A 
ATOM      3  N   LIG    1        3.514   1.723  -3.039  0.00  0.00    -0.560 NA
ATOM      4  C   LIG    1        2.780   2.270  -2.058  0.00  0.00    +0.440 A 
ATOM      5  C   LIG    1        2.684   3.648  -1.964  0.00  0.00    -0.220 A 
ATOM      6  C   LIG    1        3.360   4.430  -2.911  0.00  0.00    +0.530 A 
ATOM      7  O   LIG    1        3.304   5.649  -2.866  0.00  0.00    -0.540 OA
ENDROOT
BRANCH   4   8
ATOM      8  N   LIG    1        2.130   1.465  -1.145  0.00  0.00    -0.600 N 
ATOM      9  C   LIG    1        0.862   1.893  -0.538  0.00  0.00    +0.280 C 
ATOM     10  C   LIG    1       -0.183   0.794  -0.753  0.00  0.00    +0.010 C 
ATOM     11  C   LIG    1        0.357  -0.531  -0.210  0.00  0.00    +0.020 C 
ATOM     12  C   LIG    1        1.627  -0.917  -0.973  0.00  0.00    -0.020 C 
ATOM     13  C   LIG    1        2.692   0.163  -0.761  0.00  0.00    +0.290 C 
BRANCH  12  14
ATOM     14  C   LIG    1        2.147  -2.258  -0.452  0.00  0.00    +0.180 C 
BRANCH  14  15
ATOM     15  O   LIG    1        1.200  -3.285  -0.752  0.00  0.00    -0.570 OA
ATOM     16  H   LIG    1        1.465  -4.165  -0.450  0.00  0.00    +0.380 HD
ENDBRANCH  14  15
ENDBRANCH  12  14
ENDBRANCH   4   8
BRANCH   1  17
ATOM     17  C   LIG    1        4.791   4.604  -4.875  0.00  0.00    +0.420 C 
BRANCH  17  21
ATOM     18  C   LIG    1        8.383   4.815  -3.930  0.00  0.00    -0.240 A 
ATOM     19  C   LIG    1        7.848   5.942  -3.376  0.00  0.00    +0.290 A 
ATOM     20  O   LIG    1        6.543   5.973  -3.661  0.00  0.00    -0.150 OA
ATOM     21  C   LIG    1        6.184   4.898  -4.381  0.00  0.00    -0.040 A 
ATOM     22  C   LIG    1        7.264   4.132  -4.595  0.00  0.00    +0.040 A 
BRANCH  18  23
ATOM     23  C   LIG    1        9.788   4.377  -3.875  0.00  0.00    +0.540 C 
ATOM     24  O   LIG    1       10.123   3.343  -4.419  0.00  0.00    -0.500 OA
BRANCH  23  26
ATOM     25  C   LIG    1       12.066   4.628  -3.207  0.00  0.00    +0.290 C 
ATOM     26  O   LIG    1       10.701   5.121  -3.221  0.00  0.00    -0.360 OA
ENDBRANCH  23  26
ENDBRANCH  18  23
ENDBRANCH  17  21
ENDBRANCH   1  17
TORSDOF 7
