REMARK  Name = ZINCqH0000033bNU.0
REMARK                            x       y       z     vdW  Elec       q    Type
REMARK                         _______ _______ _______ _____ _____    ______ ____
ROOT
ATOM      1  N   LIG    1       -1.638  -1.852   0.039  0.00  0.00    -0.610 N 
ATOM      2  C   LIG    1       -1.526  -0.514   0.153  0.00  0.00    +0.520 C 
ATOM      3  O   LIG    1       -0.436  -0.008   0.315  0.00  0.00    -0.530 OA
ENDROOT
BRANCH   1   4
ATOM      4  C   LIG    1       -2.944  -2.458  -0.235  0.00  0.00    +0.230 C 
ATOM      5  C   LIG    1       -3.248  -3.520   0.826  0.00  0.00    -0.010 C 
ATOM      6  C   LIG    1       -4.577  -4.201   0.488  0.00  0.00    +0.220 C 
ATOM      7  O   LIG    1       -4.499  -4.771  -0.820  0.00  0.00    -0.370 OA
ATOM      8  C   LIG    1       -4.263  -3.818  -1.859  0.00  0.00    +0.120 C 
ATOM      9  C   LIG    1       -5.385  -2.779  -1.862  0.00  0.00    +0.020 C 
ATOM     10  C   LIG    1       -4.228  -4.535  -3.210  0.00  0.00    +0.060 C 
ATOM     11  C   LIG    1       -2.923  -3.120  -1.616  0.00  0.00    +0.010 C 
ENDBRANCH   1   4
BRANCH   2  12
ATOM     12  C   LIG    1       -2.756   0.354   0.080  0.00  0.00    -0.020 C 
ATOM     13  C   LIG    1       -2.344   1.828   0.106  0.00  0.00    +0.070 C 
ATOM     14  C   LIG    1       -3.599   2.704   0.092  0.00  0.00    +0.200 C 
ATOM     15  N   LIG    1       -4.430   2.389   1.262  0.00  0.00    -0.470 N 
ATOM     16  C   LIG    1       -4.877   0.990   1.234  0.00  0.00    +0.210 C 
ATOM     17  C   LIG    1       -3.660   0.063   1.281  0.00  0.00    +0.040 C 
BRANCH  15  18
ATOM     18  C   LIG    1       -5.513   3.256   1.352  0.00  0.00    +0.320 A 
ATOM     19  C   LIG    1       -5.295   4.629   1.391  0.00  0.00    -0.020 A 
ATOM     20  C   LIG    1       -6.381   5.481   1.480  0.00  0.00    +0.110 A 
ATOM     21  C   LIG    1       -7.655   4.928   1.528  0.00  0.00    -0.120 A 
ATOM     22  C   LIG    1       -7.798   3.555   1.485  0.00  0.00    +0.310 A 
ATOM     23 CL   LIG    1       -9.052   5.953   1.641  0.00  0.00    -0.050 Cl
ATOM     24  N   LIG    1       -6.743   2.767   1.395  0.00  0.00    -0.510 NA
ENDBRANCH  15  18
ENDBRANCH   2  12
BRANCH   1  26
ATOM     25  C   LIG    1       -0.208  -2.979   1.672  0.00  0.00    +0.020 C 
ATOM     26  C   LIG    1       -0.454  -2.701   0.187  0.00  0.00    +0.270 C 
ENDBRANCH   1  26
TORSDOF 4
