REMARK  Name = ZINCkj000005jrpr.0
REMARK                            x       y       z     vdW  Elec       q    Type
REMARK                         _______ _______ _______ _____ _____    ______ ____
ROOT
ATOM      1  S   LIG    1       -0.017   1.417   0.010  0.00  0.00    +2.710 S 
ATOM      2  O   LIG    1        1.162   2.210   0.003  0.00  0.00    -0.940 OA
ATOM      3  O   LIG    1        0.002  -0.004   0.002  0.00  0.00    -0.930 OA
ENDROOT
BRANCH   1   9
ATOM      4  C   LIG    1       -2.718   5.259  -6.058  0.00  0.00    +0.080 C 
ATOM      5  C   LIG    1       -2.858   4.677  -4.650  0.00  0.00    +0.170 C 
ATOM      6  C   LIG    1       -1.537   4.829  -3.859  0.00  0.00    +0.090 C 
ATOM      7  C   LIG    1       -1.506   3.546  -3.051  0.00  0.00    -0.180 A 
ATOM      8  C   LIG    1       -0.771   3.164  -1.951  0.00  0.00    +0.180 A 
ATOM      9  C   LIG    1       -0.957   1.909  -1.397  0.00  0.00    -0.710 A 
ATOM     10  C   LIG    1       -1.877   1.042  -1.955  0.00  0.00    +0.180 A 
ATOM     11  C   LIG    1       -2.618   1.424  -3.056  0.00  0.00    -0.080 A 
ATOM     12 CL   LIG    1       -3.776   0.328  -3.741  0.00  0.00    -0.040 Cl
ATOM     13  C   LIG    1       -2.434   2.684  -3.622  0.00  0.00    +0.190 A 
ATOM     14  O   LIG    1       -3.035   3.252  -4.703  0.00  0.00    -0.280 OA
ENDBRANCH   1   9
BRANCH   1  15
ATOM     15  N   LIG    1       -0.875   1.865   1.354  0.00  0.00    -1.010 NA
ATOM     16  C   LIG    1       -1.875   1.037   2.051  0.00  0.00    +0.320 C 
ATOM     17  C   LIG    1       -2.790   2.051   2.782  0.00  0.00    +0.070 C 
ATOM     18  C   LIG    1       -1.767   3.132   3.222  0.00  0.00    +0.170 C 
ATOM     19  C   LIG    1       -0.760   3.154   2.053  0.00  0.00    +0.300 C 
BRANCH  18  20
ATOM     20  N   LIG    1       -2.423   4.437   3.372  0.00  0.00    -0.630 N 
ATOM     21  H   LIG    1       -2.850   4.702   2.497  0.00  0.00    +0.430 HD
ATOM     22  H   LIG    1       -1.738   5.130   3.635  0.00  0.00    +0.440 HD
ATOM     23  H   LIG    1       -3.132   4.378   4.087  0.00  0.00    +0.440 HD
ENDBRANCH  18  20
ENDBRANCH   1  15
TORSDOF 3
