REMARK  Name = ZINCpe00000MJLs5.2
REMARK                            x       y       z     vdW  Elec       q    Type
REMARK                         _______ _______ _______ _____ _____    ______ ____
ROOT
ATOM      1  C   LIG    1       -0.637   1.924   2.097  0.00  0.00    +0.080 C 
ATOM      2  C   LIG    1       -1.656   1.810   0.962  0.00  0.00    +0.130 C 
ENDROOT
BRANCH   2   3
ATOM      3  C   LIG    1       -2.291   3.155   0.719  0.00  0.00    +0.520 C 
ATOM      4  N   LIG    1       -1.675   4.058  -0.068  0.00  0.00    -0.620 N 
ATOM      5  C   LIG    1       -0.443   3.708  -0.788  0.00  0.00    +0.270 C 
ATOM      6  C   LIG    1       -0.640   4.024  -2.278  0.00  0.00    +0.020 C 
ATOM      7  C   LIG    1       -1.063   5.487  -2.432  0.00  0.00    +0.030 C 
ATOM      8  C   LIG    1       -2.394   5.713  -1.711  0.00  0.00    -0.020 C 
ATOM      9  C   LIG    1       -2.219   5.415  -0.219  0.00  0.00    +0.310 C 
ATOM     10  O   LIG    1       -3.357   3.424   1.232  0.00  0.00    -0.510 OA
BRANCH   8  11
ATOM     11  C   LIG    1       -2.825   7.146  -1.890  0.00  0.00    +0.530 C 
ATOM     12  O   LIG    1       -2.978   7.859  -0.921  0.00  0.00    -0.540 OA
ATOM     13  N   LIG    1       -3.041   7.635  -3.128  0.00  0.00    -0.850 N 
ATOM     14  H   LIG    1       -3.319   8.557  -3.243  0.00  0.00    +0.400 HD
ATOM     15  H   LIG    1       -2.919   7.065  -3.903  0.00  0.00    +0.400 HD
ENDBRANCH   8  11
ENDBRANCH   2   3
BRANCH   2  16
ATOM     16  N   LIG    1       -2.694   0.838   1.332  0.00  0.00    -0.510 NA
ATOM     17  C   LIG    1       -2.120  -0.282   2.089  0.00  0.00    +0.180 C 
ATOM     18  C   LIG    1       -3.245  -1.196   2.581  0.00  0.00    +0.020 C 
ATOM     19  C   LIG    1       -4.034  -1.720   1.378  0.00  0.00    +0.010 C 
ATOM     20  C   LIG    1       -4.580  -0.533   0.580  0.00  0.00    +0.030 C 
ATOM     21  C   LIG    1       -3.416   0.362   0.145  0.00  0.00    +0.140 C 
BRANCH  21  22
ATOM     22  C   LIG    1       -3.959   1.560  -0.636  0.00  0.00    +0.340 C 
BRANCH  22  23
ATOM     23  N   LIG    1       -4.651   1.087  -1.837  0.00  0.00    -0.370 N 
ATOM     24  C   LIG    1       -5.930   1.355  -2.174  0.00  0.00    +0.230 A 
ATOM     25  C   LIG    1       -6.185   0.736  -3.350  0.00  0.00    -0.120 A 
ATOM     26  C   LIG    1       -5.023   0.066  -3.744  0.00  0.00    +0.220 A 
ATOM     27  N   LIG    1       -4.103   0.276  -2.839  0.00  0.00    -0.300 NA
ENDBRANCH  22  23
ENDBRANCH  21  22
ENDBRANCH   2  16
TORSDOF 5
