REMARK  Name = ZINCnE000001Q8td.0
REMARK                            x       y       z     vdW  Elec       q    Type
REMARK                         _______ _______ _______ _____ _____    ______ ____
ROOT
ATOM      1  S   LIG    1       -1.567  -0.962  -0.006  0.00  0.00    +2.690 S 
ATOM      2  O   LIG    1       -1.398   0.210  -0.792  0.00  0.00    -0.950 OA
ATOM      3  O   LIG    1       -0.487  -1.798   0.386  0.00  0.00    -0.930 OA
ENDROOT
BRANCH   1   4
ATOM      4  C   LIG    1       -2.699  -1.989  -0.883  0.00  0.00    -0.690 A 
ATOM      5  C   LIG    1       -3.299  -1.525  -2.034  0.00  0.00    +0.180 A 
ATOM      6  C   LIG    1       -4.197  -2.342  -2.728  0.00  0.00    -0.150 A 
ATOM      7  C   LIG    1       -4.479  -3.624  -2.250  0.00  0.00    +0.130 A 
ATOM      8  C   LIG    1       -3.871  -4.076  -1.098  0.00  0.00    +0.000 A 
ATOM      9  C   LIG    1       -2.982  -3.262  -0.415  0.00  0.00    +0.040 A 
ATOM     10 CL   LIG    1       -2.216  -3.842   1.031  0.00  0.00    -0.050 Cl
BRANCH   6  11
ATOM     11  C   LIG    1       -4.843  -1.852  -3.960  0.00  0.00    +0.520 C 
ATOM     12  O   LIG    1       -5.628  -2.569  -4.565  0.00  0.00    -0.680 OA
ATOM     13  O   LIG    1       -4.594  -0.730  -4.376  0.00  0.00    -0.680 OA
ENDBRANCH   6  11
ENDBRANCH   1   4
BRANCH   1  14
ATOM     14  N   LIG    1       -2.319  -0.484   1.389  0.00  0.00    -0.950 N 
ATOM     15  C   LIG    1       -3.225   0.667   1.376  0.00  0.00    +0.310 C 
BRANCH  14  21
ATOM     16  C   LIG    1        0.467  -1.265   5.362  0.00  0.00    +0.100 C 
ATOM     17  C   LIG    1       -0.747  -1.578   4.525  0.00  0.00    -0.090 A 
ATOM     18  C   LIG    1       -1.635  -2.555   4.936  0.00  0.00    +0.010 A 
ATOM     19  C   LIG    1       -2.750  -2.845   4.172  0.00  0.00    +0.000 A 
ATOM     20  C   LIG    1       -2.980  -2.161   2.995  0.00  0.00    +0.030 A 
ATOM     21  C   LIG    1       -2.090  -1.178   2.579  0.00  0.00    +0.140 A 
ATOM     22  C   LIG    1       -0.968  -0.892   3.347  0.00  0.00    -0.060 A 
ATOM     23  C   LIG    1        0.003   0.168   2.897  0.00  0.00    +0.080 C 
ENDBRANCH  14  21
ENDBRANCH   1  14
TORSDOF 4
