REMARK  Name = ZINCpe00000ca0bB.0
REMARK                            x       y       z     vdW  Elec       q    Type
REMARK                         _______ _______ _______ _____ _____    ______ ____
ROOT
ATOM      1  O   LIG    1        2.687   4.872  -1.914  0.00  0.00    -0.530 OA
ATOM      2  C   LIG    1        2.607   4.094  -0.987  0.00  0.00    +0.530 C 
ATOM      3  N   LIG    1        3.523   3.117  -0.845  0.00  0.00    -0.710 N 
ATOM      4  H   LIG    1        3.459   2.495  -0.103  0.00  0.00    +0.410 HD
ENDROOT
BRANCH   2   5
ATOM      5  C   LIG    1        1.481   4.221   0.008  0.00  0.00    +0.100 C 
ATOM      6  C   LIG    1        0.564   5.385  -0.393  0.00  0.00    +0.070 C 
ATOM      7  C   LIG    1       -0.705   5.362   0.462  0.00  0.00    +0.040 C 
ATOM      8  C   LIG    1       -1.591   4.180   0.046  0.00  0.00    +0.140 C 
ATOM      9  C   LIG    1       -0.738   2.939   0.027  0.00  0.00    +0.020 A 
ATOM     10  N   LIG    1       -1.084   1.684   0.016  0.00  0.00    -0.270 NA
ATOM     11  N   LIG    1       -0.011   0.966   0.007  0.00  0.00    -0.260 N 
ATOM     12  H   LIG    1        0.002  -0.004   0.002  0.00  0.00    +0.470 HD
ATOM     13  N   LIG    1        1.042   1.713   0.001  0.00  0.00    -0.270 NA
ATOM     14  C   LIG    1        0.662   2.958   0.012  0.00  0.00    +0.010 A 
ENDBRANCH   2   5
BRANCH   3  15
ATOM     15  C   LIG    1        4.617   2.993  -1.811  0.00  0.00    +0.240 C 
ATOM     16  C   LIG    1        4.459   1.806  -2.779  0.00  0.00    +0.270 C 
ATOM     17  N   LIG    1        5.904   1.575  -2.570  0.00  0.00    -0.640 N 
ATOM     18  C   LIG    1        6.879   0.983  -3.288  0.00  0.00    +0.550 C 
ATOM     19  O   LIG    1        8.011   0.942  -2.855  0.00  0.00    -0.520 OA
ATOM     20  C   LIG    1        5.851   2.254  -1.260  0.00  0.00    +0.280 C 
BRANCH  18  21
ATOM     21  C   LIG    1        6.562   0.373  -4.629  0.00  0.00    +0.070 C 
ATOM     22  C   LIG    1        5.531  -0.706  -4.458  0.00  0.00    -0.030 C 
ATOM     23  C   LIG    1        5.727  -1.730  -3.642  0.00  0.00    +0.010 C 
ATOM     24  C   LIG    1        6.928  -1.883  -2.841  0.00  0.00    -0.040 C 
ATOM     25  C   LIG    1        8.164  -1.618  -3.253  0.00  0.00    +0.040 C 
ATOM     26  C   LIG    1        8.519  -1.130  -4.573  0.00  0.00    +0.020 C 
ATOM     27  C   LIG    1        7.812  -0.216  -5.219  0.00  0.00    -0.010 C 
ENDBRANCH  18  21
ENDBRANCH   3  15
TORSDOF 3
