REMARK  Name = ZINCpe00000ca0bB.1
REMARK                            x       y       z     vdW  Elec       q    Type
REMARK                         _______ _______ _______ _____ _____    ______ ____
ROOT
ATOM      1  O   LIG    1        4.798  -2.009   3.054  0.00  0.00    -0.510 OA
ATOM      2  C   LIG    1        4.599  -1.989   1.858  0.00  0.00    +0.520 C 
ATOM      3  N   LIG    1        4.045  -0.903   1.284  0.00  0.00    -0.720 N 
ATOM      4  H   LIG    1        3.886  -0.887   0.328  0.00  0.00    +0.390 HD
ENDROOT
BRANCH   2   5
ATOM      5  C   LIG    1        4.971  -3.180   1.013  0.00  0.00    +0.090 C 
ATOM      6  C   LIG    1        5.579  -4.274   1.900  0.00  0.00    +0.070 C 
ATOM      7  C   LIG    1        5.712  -5.571   1.097  0.00  0.00    +0.040 C 
ATOM      8  C   LIG    1        4.319  -6.153   0.826  0.00  0.00    +0.140 C 
ATOM      9  C   LIG    1        3.448  -5.059   0.268  0.00  0.00    +0.010 A 
ATOM     10  N   LIG    1        2.289  -5.154  -0.377  0.00  0.00    -0.250 NA
ATOM     11  N   LIG    1        1.887  -3.966  -0.679  0.00  0.00    -0.070 NA
ATOM     12  N   LIG    1        2.734  -3.087  -0.259  0.00  0.00    -0.380 N 
ATOM     13  H   LIG    1        2.657  -2.126  -0.365  0.00  0.00    +0.440 HD
ATOM     14  C   LIG    1        3.740  -3.737   0.350  0.00  0.00    -0.020 A 
ENDBRANCH   2   5
BRANCH   3  15
ATOM     15  C   LIG    1        3.683   0.255   2.106  0.00  0.00    +0.240 C 
ATOM     16  C   LIG    1        3.645   1.584   1.339  0.00  0.00    +0.280 C 
ATOM     17  N   LIG    1        2.245   1.288   0.998  0.00  0.00    -0.650 N 
ATOM     18  C   LIG    1        1.401   1.607  -0.003  0.00  0.00    +0.550 C 
ATOM     19  O   LIG    1        1.780   2.315  -0.912  0.00  0.00    -0.520 OA
ATOM     20  C   LIG    1        2.169   0.494   2.234  0.00  0.00    +0.270 C 
BRANCH  18  21
ATOM     21  C   LIG    1       -0.013   1.086   0.008  0.00  0.00    +0.060 C 
ATOM     22  C   LIG    1       -0.716   1.570   1.245  0.00  0.00    -0.030 C 
ATOM     23  C   LIG    1       -0.812   2.859   1.527  0.00  0.00    +0.020 C 
ATOM     24  C   LIG    1       -0.239   3.898   0.690  0.00  0.00    -0.040 C 
ATOM     25  C   LIG    1       -0.252   3.905  -0.639  0.00  0.00    +0.040 C 
ATOM     26  C   LIG    1       -0.842   2.875  -1.476  0.00  0.00    +0.020 C 
ATOM     27  C   LIG    1       -0.739   1.584  -1.210  0.00  0.00    -0.010 C 
ENDBRANCH  18  21
ENDBRANCH   3  15
TORSDOF 3
