REMARK  Name = ZINCnE000008J2za.1
REMARK                            x       y       z     vdW  Elec       q    Type
REMARK                         _______ _______ _______ _____ _____    ______ ____
ROOT
ATOM      1  C   LIG    1       -6.384   2.497   1.318  0.00  0.00    +0.100 C 
ATOM      2  C   LIG    1       -4.897   2.254   1.299  0.00  0.00    -0.040 A 
ATOM      3  C   LIG    1       -4.290   1.807   0.135  0.00  0.00    -0.010 A 
ATOM      4  C   LIG    1       -2.932   1.580   0.101  0.00  0.00    +0.080 A 
ATOM      5  C   LIG    1       -2.165   1.809   1.247  0.00  0.00    -0.140 A 
ATOM      6  C   LIG    1       -2.783   2.257   2.428  0.00  0.00    +0.140 A 
ATOM      7  O   LIG    1       -2.041   2.472   3.535  0.00  0.00    -0.280 OA
ATOM      8  C   LIG    1       -0.715   2.262   3.542  0.00  0.00    +0.510 A 
ATOM      9  C   LIG    1       -0.031   1.807   2.394  0.00  0.00    -0.200 A 
ATOM     10  O   LIG    1       -0.087   2.469   4.564  0.00  0.00    -0.450 OA
ATOM     11  C   LIG    1       -0.718   1.572   1.248  0.00  0.00    +0.010 A 
ATOM     12  C   LIG    1       -0.013   1.086   0.008  0.00  0.00    +0.130 C 
ATOM     13  C   LIG    1       -4.154   2.479   2.439  0.00  0.00    +0.000 A 
ENDROOT
BRANCH   9  14
ATOM     14  C   LIG    1        1.459   1.584   2.441  0.00  0.00    +0.120 C 
BRANCH  14  15
ATOM     15  C   LIG    1        2.181   2.905   2.168  0.00  0.00    +0.050 C 
BRANCH  15  16
ATOM     16  C   LIG    1        3.671   2.682   2.216  0.00  0.00    +0.460 C 
ATOM     17  N   LIG    1        4.514   3.712   2.003  0.00  0.00    -0.700 NA
ATOM     18  O   LIG    1        4.112   1.576   2.445  0.00  0.00    -0.580 OA
BRANCH  17  19
ATOM     19  C   LIG    1        5.888   3.507   2.047  0.00  0.00    +0.340 A 
ATOM     20  N   LIG    1        6.461   2.369   2.288  0.00  0.00    -0.570 NA
ATOM     21  C   LIG    1        7.781   2.353   2.287  0.00  0.00    +0.230 A 
ATOM     22  C   LIG    1        8.350   3.535   2.042  0.00  0.00    -0.220 A 
ATOM     23  S   LIG    1        7.068   4.718   1.797  0.00  0.00    +0.000 S 
ENDBRANCH  17  19
ENDBRANCH  15  16
ENDBRANCH  14  15
ENDBRANCH   9  14
TORSDOF 4
