REMARK  Name = ZINCpe000000YkdS.0
REMARK                            x       y       z     vdW  Elec       q    Type
REMARK                         _______ _______ _______ _____ _____    ______ ____
ROOT
ATOM      1  C   LIG    1       -3.130   3.502   5.351  0.00  0.00    -0.160 A 
ATOM      2  C   LIG    1       -2.026   3.356   4.509  0.00  0.00    +0.230 A 
ATOM      3  C   LIG    1       -1.843   4.229   3.458  0.00  0.00    -0.710 A 
ATOM      4  C   LIG    1       -2.746   5.254   3.238  0.00  0.00    +0.180 A 
ATOM      5  C   LIG    1       -3.845   5.404   4.063  0.00  0.00    -0.040 A 
ATOM      6  C   LIG    1       -4.042   4.536   5.121  0.00  0.00    +0.210 A 
ATOM      7  F   LIG    1       -5.114   4.686   5.931  0.00  0.00    -0.110 F 
ENDROOT
BRANCH   3   8
ATOM      8  S   LIG    1       -0.449   4.044   2.395  0.00  0.00    +2.700 S 
ATOM      9  O   LIG    1       -0.218   5.318   1.811  0.00  0.00    -0.950 OA
ATOM     10  O   LIG    1        0.534   3.341   3.142  0.00  0.00    -0.950 OA
BRANCH   8  11
ATOM     11  N   LIG    1       -0.905   3.039   1.160  0.00  0.00    -1.000 NA
ATOM     12  C   LIG    1       -0.732   1.581   1.268  0.00  0.00    +0.270 C 
ATOM     13  C   LIG    1       -0.013   1.086   0.008  0.00  0.00    +0.220 C 
ATOM     14  O   LIG    1       -0.706   1.560  -1.149  0.00  0.00    -0.380 OA
ATOM     15  C   LIG    1       -0.736   2.985  -1.270  0.00  0.00    +0.220 C 
ATOM     16  C   LIG    1       -1.493   3.577  -0.076  0.00  0.00    +0.270 C 
ENDBRANCH   8  11
ENDBRANCH   3   8
BRANCH   1  17
ATOM     17  C   LIG    1       -3.333   2.568   6.480  0.00  0.00    +0.540 C 
ATOM     18  O   LIG    1       -4.297   2.699   7.214  0.00  0.00    -0.550 OA
BRANCH  17  24
ATOM     19  C   LIG    1       -1.856  -2.096   9.882  0.00  0.00    +0.370 C 
ATOM     20  N   LIG    1       -2.394  -0.927   9.180  0.00  0.00    -0.390 N 
ATOM     21  C   LIG    1       -3.529  -0.249   9.512  0.00  0.00    +0.350 A 
ATOM     22  C   LIG    1       -3.704   0.767   8.639  0.00  0.00    -0.110 A 
ATOM     23  C   LIG    1       -2.640   0.740   7.712  0.00  0.00    +0.490 A 
ATOM     24  N   LIG    1       -2.458   1.580   6.697  0.00  0.00    -0.680 NA
ATOM     25  N   LIG    1       -1.831  -0.318   8.050  0.00  0.00    -0.470 N 
ATOM     26  H   LIG    1       -1.021  -0.592   7.592  0.00  0.00    +0.450 HD
ENDBRANCH  17  24
ENDBRANCH   1  17
TORSDOF 4
