REMARK  Name = ZINCuL00000009jI.0
REMARK                            x       y       z     vdW  Elec       q    Type
REMARK                         _______ _______ _______ _____ _____    ______ ____
ROOT
ATOM      1  C   LIG    1        7.398  -2.321  -3.641  0.00  0.00    +0.310 A 
ATOM      2  C   LIG    1        7.773  -2.246  -4.974  0.00  0.00    -0.150 A 
ATOM      3  C   LIG    1        7.013  -1.511  -5.866  0.00  0.00    +0.030 A 
ATOM      4  C   LIG    1        5.880  -0.848  -5.433  0.00  0.00    -0.120 A 
ATOM      5  C   LIG    1        5.495  -0.922  -4.107  0.00  0.00    +0.010 A 
ATOM      6  C   LIG    1        6.254  -1.652  -3.204  0.00  0.00    -0.160 A 
ENDROOT
BRANCH   1   7
ATOM      7  N   LIG    1        8.166  -3.064  -2.737  0.00  0.00    -1.070 NA
BRANCH   7   8
ATOM      8  S   LIG    1        9.523  -3.857  -3.258  0.00  0.00    +2.620 S 
ATOM      9  O   LIG    1       10.453  -2.852  -3.640  0.00  0.00    -1.030 OA
ATOM     10  O   LIG    1        9.077  -4.879  -4.139  0.00  0.00    -1.020 OA
BRANCH   8  15
ATOM     11  C   LIG    1       10.820  -6.696  -0.712  0.00  0.00    -0.170 A 
ATOM     12  C   LIG    1       11.321  -5.940   0.352  0.00  0.00    +0.120 A 
ATOM     13  C   LIG    1       11.268  -4.564   0.302  0.00  0.00    -0.070 A 
ATOM     14  C   LIG    1       10.719  -3.929  -0.801  0.00  0.00    +0.190 A 
ATOM     15  C   LIG    1       10.219  -4.673  -1.860  0.00  0.00    -0.670 A 
ATOM     16  F   LIG    1       10.669  -2.579  -0.845  0.00  0.00    -0.130 F 
ATOM     17  C   LIG    1       10.262  -6.049  -1.819  0.00  0.00    +0.180 A 
BRANCH  11  19
ATOM     18  O   LIG    1       11.357  -8.731   0.308  0.00  0.00    -0.690 OA
ATOM     19  C   LIG    1       10.873  -8.168  -0.664  0.00  0.00    +0.530 C 
ATOM     20  O   LIG    1       10.434  -8.826  -1.596  0.00  0.00    -0.680 OA
ENDBRANCH  11  19
ENDBRANCH   8  15
ENDBRANCH   7   8
ENDBRANCH   1   7
BRANCH   6  21
ATOM     21  S   LIG    1        5.770  -1.741  -1.512  0.00  0.00    -0.040 S 
BRANCH  21  22
ATOM     22  C   LIG    1        4.264  -0.731  -1.464  0.00  0.00    -0.010 C 
BRANCH  22  23
ATOM     23  C   LIG    1        3.711  -0.707  -0.038  0.00  0.00    +0.290 C 
BRANCH  23  24
ATOM     24  C   LIG    1        2.396   0.029  -0.022  0.00  0.00    -0.100 A 
ATOM     25  C   LIG    1        1.208  -0.679  -0.013  0.00  0.00    +0.020 A 
ATOM     26  C   LIG    1        0.002  -0.004   0.002  0.00  0.00    +0.000 A 
ATOM     27  C   LIG    1       -0.017   1.378   0.010  0.00  0.00    -0.010 A 
ATOM     28  C   LIG    1        1.171   2.086   0.002  0.00  0.00    +0.000 A 
ATOM     29  C   LIG    1        2.377   1.411  -0.015  0.00  0.00    +0.010 A 
ENDBRANCH  23  24
BRANCH  23  30
ATOM     30  O   LIG    1        4.639  -0.043   0.822  0.00  0.00    -0.540 OA
ATOM     31  H   LIG    1        4.822   0.873   0.571  0.00  0.00    +0.370 HD
ENDBRANCH  23  30
ENDBRANCH  22  23
ENDBRANCH  21  22
ENDBRANCH   6  21
TORSDOF 9
