REMARK  Name = ZINCpk00000ebmDV.0
REMARK                            x       y       z     vdW  Elec       q    Type
REMARK                         _______ _______ _______ _____ _____    ______ ____
ROOT
ATOM      1  N   LIG    1        1.069  -2.183  -0.020  0.00  0.00    -0.450 N 
ATOM      2  C   LIG    1        0.945  -3.005   1.066  0.00  0.00    +0.160 A 
ATOM      3  N   LIG    1        0.726  -4.219   0.614  0.00  0.00    -0.280 NA
ATOM      4  N   LIG    1        0.713  -4.217  -0.671  0.00  0.00    -0.250 NA
ATOM      5  C   LIG    1        0.918  -2.998  -1.120  0.00  0.00    +0.270 A 
ENDROOT
BRANCH   5   6
ATOM      6  C   LIG    1        0.974  -2.583  -2.531  0.00  0.00    -0.130 A 
ATOM      7  C   LIG    1        1.115  -3.417  -3.584  0.00  0.00    +0.090 A 
ATOM      8  C   LIG    1        1.138  -2.792  -4.813  0.00  0.00    +0.020 A 
ATOM      9  C   LIG    1        1.027  -1.461  -4.775  0.00  0.00    -0.020 A 
ATOM     10  S   LIG    1        0.877  -0.924  -3.107  0.00  0.00    +0.120 S 
ENDBRANCH   5   6
BRANCH   1  11
ATOM     11  C   LIG    1        1.317  -0.740  -0.015  0.00  0.00    +0.340 C 
BRANCH  11  15
ATOM     12  N   LIG    1       -0.016   1.344   0.009  0.00  0.00    -0.840 N 
ATOM     13  H   LIG    1       -0.863   1.817   0.016  0.00  0.00    +0.410 HD
ATOM     14  H   LIG    1        0.817   1.840   0.004  0.00  0.00    +0.410 HD
ATOM     15  C   LIG    1        0.002  -0.004   0.002  0.00  0.00    +0.500 C 
ATOM     16  O   LIG    1       -1.040  -0.625   0.009  0.00  0.00    -0.510 OA
ENDBRANCH  11  15
ENDBRANCH   1  11
BRANCH   2  17
ATOM     17  S   LIG    1        1.055  -2.524   2.758  0.00  0.00    +0.090 S 
BRANCH  17  18
ATOM     18  C   LIG    1        0.793  -4.126   3.558  0.00  0.00    +0.110 C 
BRANCH  18  19
ATOM     19  C   LIG    1        0.846  -3.956   5.054  0.00  0.00    +0.540 C 
ATOM     20  N   LIG    1        0.676  -5.022   5.861  0.00  0.00    -0.720 N 
ATOM     21  H   LIG    1        0.519  -5.899   5.478  0.00  0.00    +0.410 HD
ATOM     22  O   LIG    1        1.042  -2.858   5.532  0.00  0.00    -0.520 OA
BRANCH  20  23
ATOM     23  C   LIG    1        0.728  -4.856   7.315  0.00  0.00    +0.400 C 
BRANCH  23  24
ATOM     24  C   LIG    1        0.509  -6.190   7.981  0.00  0.00    -0.050 A 
ATOM     25  C   LIG    1        1.470  -7.073   8.307  0.00  0.00    -0.030 A 
ATOM     26  C   LIG    1        0.824  -8.177   8.909  0.00  0.00    -0.070 A 
ATOM     27  C   LIG    1       -0.493  -7.906   8.909  0.00  0.00    +0.190 A 
ATOM     28  O   LIG    1       -0.678  -6.701   8.345  0.00  0.00    -0.170 OA
ENDBRANCH  23  24
ENDBRANCH  20  23
ENDBRANCH  18  19
ENDBRANCH  17  18
ENDBRANCH   2  17
TORSDOF 8
