REMARK  Name = ZINCrH00000No563.0
REMARK                            x       y       z     vdW  Elec       q    Type
REMARK                         _______ _______ _______ _____ _____    ______ ____
ROOT
ATOM      1  N   LIG    1        0.002  -0.004   0.002  0.00  0.00    -0.570 N 
ATOM      2  C   LIG    1        0.890  -0.777   0.841  0.00  0.00    +0.290 C 
ATOM      3  C   LIG    1        2.189  -1.100   0.063  0.00  0.00    +0.020 C 
ATOM      4  C   LIG    1        3.002   0.115  -0.101  0.00  0.00    +0.000 C 
ATOM      5  C   LIG    1        2.333   1.212  -0.923  0.00  0.00    +0.010 C 
ATOM      6  C   LIG    1        1.446   2.039  -0.025  0.00  0.00    +0.040 C 
ATOM      7  C   LIG    1        0.015   1.472  -0.027  0.00  0.00    +0.280 C 
ENDROOT
BRANCH   1  15
ATOM      8  C   LIG    1       -2.744  -0.689  -2.317  0.00  0.00    +0.260 A 
ATOM      9  N   LIG    1       -2.667  -2.000  -2.399  0.00  0.00    -0.480 NA
ATOM     10  C   LIG    1       -1.741  -2.685  -1.718  0.00  0.00    +0.480 A 
ATOM     11  N   LIG    1       -1.466  -3.982  -1.636  0.00  0.00    -0.530 NA
ATOM     12  C   LIG    1       -0.438  -4.171  -0.817  0.00  0.00    +0.490 A 
ATOM     13  N   LIG    1       -0.026  -3.017  -0.353  0.00  0.00    -0.350 NA
ATOM     14  N   LIG    1       -0.848  -2.032  -0.916  0.00  0.00    -0.360 N 
ATOM     15  C   LIG    1       -0.893  -0.672  -0.803  0.00  0.00    +0.490 A 
ATOM     16  C   LIG    1       -1.859   0.021  -1.509  0.00  0.00    -0.170 A 
BRANCH   8  17
ATOM     17  C   LIG    1       -3.800   0.050  -3.098  0.00  0.00    +0.270 C 
BRANCH  17  19
ATOM     18  C   LIG    1       -5.620  -0.285  -4.622  0.00  0.00    +0.200 C 
ATOM     19  O   LIG    1       -4.584  -0.885  -3.841  0.00  0.00    -0.360 OA
ENDBRANCH  17  19
ENDBRANCH   8  17
ENDBRANCH   1  15
BRANCH   7  20
ATOM     20  C   LIG    1       -0.719   1.991   1.183  0.00  0.00    -0.050 C 
ATOM     21  C   LIG    1       -1.846   2.673   1.032  0.00  0.00    +0.030 C 
BRANCH  21  22
ATOM     22  C   LIG    1       -2.565   3.182   2.218  0.00  0.00    -0.060 A 
ATOM     23  C   LIG    1       -2.064   2.943   3.498  0.00  0.00    +0.010 A 
ATOM     24  C   LIG    1       -2.738   3.426   4.601  0.00  0.00    +0.000 A 
ATOM     25  C   LIG    1       -3.913   4.137   4.441  0.00  0.00    +0.000 A 
ATOM     26  C   LIG    1       -4.419   4.373   3.174  0.00  0.00    +0.010 A 
ATOM     27  C   LIG    1       -3.752   3.900   2.063  0.00  0.00    +0.030 A 
ENDBRANCH  21  22
ENDBRANCH   7  20
TORSDOF 5
