REMARK  Name = ZINCrg000000r6zd.0
REMARK                            x       y       z     vdW  Elec       q    Type
REMARK                         _______ _______ _______ _____ _____    ______ ____
ROOT
ATOM      1  N   LIG    1       -2.763   3.282   1.485  0.00  0.00    -0.720 N 
ATOM      2  H   LIG    1       -3.316   3.668   0.788  0.00  0.00    +0.410 HD
ATOM      3  C   LIG    1       -1.673   2.559   1.158  0.00  0.00    +0.500 C 
ATOM      4  O   LIG    1       -0.982   2.076   2.030  0.00  0.00    -0.510 OA
ENDROOT
BRANCH   1   5
ATOM      5  C   LIG    1       -3.112   3.484   2.894  0.00  0.00    +0.320 C 
BRANCH   5  10
ATOM      6  C   LIG    1       -6.753   4.480   3.091  0.00  0.00    +0.140 A 
ATOM      7  C   LIG    1       -6.655   5.864   3.156  0.00  0.00    +0.020 A 
ATOM      8  C   LIG    1       -5.414   6.468   3.136  0.00  0.00    +0.040 A 
ATOM      9  C   LIG    1       -4.269   5.698   3.057  0.00  0.00    +0.030 A 
ATOM     10  C   LIG    1       -4.362   4.320   2.986  0.00  0.00    -0.100 A 
ATOM     11  C   LIG    1       -5.601   3.708   3.006  0.00  0.00    +0.020 A 
BRANCH   6  12
ATOM     12  N   LIG    1       -8.007   3.865   3.112  0.00  0.00    -1.060 N 
ATOM     13  H   LIG    1       -8.212   3.159   2.478  0.00  0.00    +0.430 HD
BRANCH  12  15
ATOM     14  C   LIG    1       -8.382   3.989   5.828  0.00  0.00    -0.280 C 
ATOM     15  S   LIG    1       -9.143   4.339   4.219  0.00  0.00    +2.610 S 
ATOM     16  O   LIG    1      -10.242   3.468   3.988  0.00  0.00    -0.950 OA
ATOM     17  O   LIG    1       -9.264   5.740   4.019  0.00  0.00    -0.950 OA
ENDBRANCH  12  15
ENDBRANCH   6  12
ENDBRANCH   5  10
ENDBRANCH   1   5
BRANCH   3  18
ATOM     18  C   LIG    1       -1.314   2.351  -0.290  0.00  0.00    +0.410 C 
BRANCH  18  19
ATOM     19  N   LIG    1       -0.098   1.539  -0.381  0.00  0.00    -0.130 N 
ATOM     20  N   LIG    1       -0.064   0.254  -0.446  0.00  0.00    -0.040 NA
ATOM     21  N   LIG    1        1.165  -0.130  -0.521  0.00  0.00    -0.270 NA
ATOM     22  C   LIG    1        1.927   0.973  -0.500  0.00  0.00    +0.220 A 
ATOM     23  N   LIG    1        1.105   1.999  -0.412  0.00  0.00    -0.290 NA
BRANCH  22  24
ATOM     24  C   LIG    1        3.410   1.027  -0.565  0.00  0.00    -0.020 A 
ATOM     25  C   LIG    1        4.066   2.255  -0.539  0.00  0.00    +0.050 A 
ATOM     26  C   LIG    1        5.444   2.300  -0.596  0.00  0.00    +0.010 A 
ATOM     27  C   LIG    1        6.173   1.128  -0.687  0.00  0.00    +0.030 A 
ATOM     28  C   LIG    1        5.527  -0.095  -0.718  0.00  0.00    +0.010 A 
ATOM     29  C   LIG    1        4.149  -0.150  -0.658  0.00  0.00    +0.060 A 
ENDBRANCH  22  24
ENDBRANCH  18  19
ENDBRANCH   3  18
TORSDOF 7
