REMARK  Name = ZINCrH000004n3h9.1
REMARK                            x       y       z     vdW  Elec       q    Type
REMARK                         _______ _______ _______ _____ _____    ______ ____
ROOT
ATOM      1  C   LIG    1       -1.433  -0.534   0.013  0.00  0.00    +0.220 C 
ENDROOT
BRANCH   1   5
ATOM      2  C   LIG    1       -0.957  -4.761   0.419  0.00  0.00    +0.130 A 
ATOM      3  C   LIG    1       -2.128  -4.242  -0.114  0.00  0.00    -0.020 A 
ATOM      4  C   LIG    1       -2.279  -2.875  -0.244  0.00  0.00    +0.070 A 
ATOM      5  C   LIG    1       -1.265  -2.024   0.156  0.00  0.00    -0.160 A 
ATOM      6  C   LIG    1       -0.095  -2.540   0.682  0.00  0.00    +0.060 A 
ATOM      7  C   LIG    1        0.059  -3.906   0.820  0.00  0.00    -0.080 A 
BRANCH   2   9
ATOM      8  C   LIG    1        0.426  -6.569   1.105  0.00  0.00    +0.250 C 
ATOM      9  O   LIG    1       -0.806  -6.105   0.548  0.00  0.00    -0.320 OA
ENDBRANCH   2   9
ENDBRANCH   1   5
BRANCH   1  10
ATOM     10  N   LIG    1       -1.564   0.074   1.344  0.00  0.00    -0.520 NA
ATOM     11  C   LIG    1       -0.393  -0.226   2.177  0.00  0.00    +0.170 C 
ATOM     12  C   LIG    1       -0.495   0.539   3.498  0.00  0.00    +0.020 C 
ATOM     13  C   LIG    1       -1.780   0.128   4.223  0.00  0.00    +0.000 C 
ATOM     14  C   LIG    1       -2.981   0.407   3.314  0.00  0.00    +0.020 C 
ATOM     15  C   LIG    1       -2.806  -0.355   1.999  0.00  0.00    +0.160 C 
ENDBRANCH   1  10
BRANCH   1  16
ATOM     16  C   LIG    1       -0.211   0.051  -0.697  0.00  0.00    +0.270 C 
BRANCH  16  17
ATOM     17  N   LIG    1       -0.318   1.512  -0.730  0.00  0.00    -0.720 N 
ATOM     18  H   LIG    1       -1.089   1.951  -0.338  0.00  0.00    +0.410 HD
ATOM     19  C   LIG    1        0.652   2.246  -1.311  0.00  0.00    +0.510 C 
ATOM     20  O   LIG    1        1.613   1.697  -1.806  0.00  0.00    -0.530 OA
BRANCH  19  21
ATOM     21  C   LIG    1        0.542   3.749  -1.345  0.00  0.00    +0.120 C 
BRANCH  21  22
ATOM     22  C   LIG    1        1.746   4.325  -2.045  0.00  0.00    -0.100 A 
ATOM     23  C   LIG    1        1.655   4.716  -3.367  0.00  0.00    +0.050 A 
ATOM     24  C   LIG    1        2.760   5.245  -4.009  0.00  0.00    +0.000 A 
ATOM     25  C   LIG    1        3.955   5.383  -3.329  0.00  0.00    +0.040 A 
ATOM     26  C   LIG    1        4.048   4.992  -2.006  0.00  0.00    -0.010 A 
ATOM     27  C   LIG    1        2.941   4.468  -1.361  0.00  0.00    +0.120 A 
ATOM     28  F   LIG    1        3.029   4.092  -0.066  0.00  0.00    -0.140 F 
ENDBRANCH  21  22
ENDBRANCH  19  21
ENDBRANCH  16  17
ENDBRANCH   1  16
TORSDOF 7
