REMARK  Name = ZINCpe000000Zv8p.1
REMARK                            x       y       z     vdW  Elec       q    Type
REMARK                         _______ _______ _______ _____ _____    ______ ____
ROOT
ATOM      1  O   LIG    1        2.596  -0.172  -0.102  0.00  0.00    -0.530 OA
ATOM      2  C   LIG    1        3.608  -0.844  -0.151  0.00  0.00    +0.580 C 
ATOM      3  N   LIG    1        3.522  -2.187  -0.227  0.00  0.00    -0.590 N 
ATOM      4  C   LIG    1        2.215  -2.860  -0.258  0.00  0.00    +0.300 C 
ATOM      5  C   LIG    1        2.199  -3.826  -1.453  0.00  0.00    +0.170 C 
ATOM      6  N   LIG    1        3.357  -4.725  -1.365  0.00  0.00    -0.540 NA
ATOM      7  C   LIG    1        4.619  -3.980  -1.463  0.00  0.00    +0.170 C 
ATOM      8  C   LIG    1        4.734  -3.019  -0.275  0.00  0.00    +0.300 C 
ENDROOT
BRANCH   2   9
ATOM      9  C   LIG    1        4.932  -0.188  -0.128  0.00  0.00    +0.000 A 
ATOM     10  C   LIG    1        5.042   1.183  -0.396  0.00  0.00    +0.130 A 
ATOM     11  C   LIG    1        6.302   1.752  -0.364  0.00  0.00    +0.030 A 
ATOM     12  C   LIG    1        7.387   0.926  -0.066  0.00  0.00    +0.270 A 
ATOM     13  N   LIG    1        7.190  -0.365   0.176  0.00  0.00    -0.280 NA
ATOM     14  N   LIG    1        6.022  -0.895   0.146  0.00  0.00    -0.180 NA
BRANCH  12  15
ATOM     15  N   LIG    1        8.667   1.454  -0.016  0.00  0.00    -0.460 N 
ATOM     16  C   LIG    1        8.779   2.479   1.053  0.00  0.00    +0.200 C 
ATOM     17  C   LIG    1       10.305   2.556   1.312  0.00  0.00    +0.040 C 
ATOM     18  C   LIG    1       10.754   1.083   1.168  0.00  0.00    +0.020 C 
ATOM     19  C   LIG    1        9.658   0.410   0.321  0.00  0.00    +0.210 C 
ENDBRANCH  12  15
ENDBRANCH   2   9
BRANCH   6  20
ATOM     20  C   LIG    1        3.286  -5.777  -2.388  0.00  0.00    +0.180 C 
BRANCH  20  21
ATOM     21  C   LIG    1        4.181  -6.949  -1.977  0.00  0.00    -0.040 C 
ATOM     22  C   LIG    1        4.092  -8.090  -3.020  0.00  0.00    +0.010 C 
ATOM     23  C   LIG    1        4.069  -9.351  -2.120  0.00  0.00    +0.200 C 
ATOM     24  O   LIG    1        3.282  -8.938  -0.982  0.00  0.00    -0.380 OA
ATOM     25  C   LIG    1        3.667  -7.588  -0.673  0.00  0.00    +0.210 C 
ENDBRANCH  20  21
ENDBRANCH   6  20
TORSDOF 4
