REMARK  Name = ZINCtj00000rmTEg.1
REMARK                            x       y       z     vdW  Elec       q    Type
REMARK                         _______ _______ _______ _____ _____    ______ ____
ROOT
ATOM      1  C   LIG    1        6.491   4.099  -0.276  0.00  0.00    +0.100 C 
ATOM      2  C   LIG    1        7.127   4.765  -1.515  0.00  0.00    +0.280 C 
ATOM      3  N   LIG    1        6.061   4.891  -2.535  0.00  0.00    -0.400 N 
ATOM      4  C   LIG    1        5.064   3.831  -2.222  0.00  0.00    +0.320 C 
ATOM      5  C   LIG    1        6.617   4.680  -3.878  0.00  0.00    +0.340 C 
ATOM      6  H   LIG    1        5.630   5.801  -2.476  0.00  0.00    +0.430 HD
ATOM      7  C   LIG    1        5.043   3.817  -0.687  0.00  0.00    -0.130 C 
ATOM      8  C   LIG    1        3.963   4.646  -0.012  0.00  0.00    +0.320 C 
ATOM      9  N   LIG    1        3.123   3.436  -0.010  0.00  0.00    -0.650 N 
ATOM     10  C   LIG    1        1.800   3.176   0.002  0.00  0.00    +0.640 C 
ATOM     11  O   LIG    1        1.000   4.093   0.014  0.00  0.00    -0.530 OA
ATOM     12  C   LIG    1        4.358   2.633  -0.019  0.00  0.00    +0.330 C 
ENDROOT
BRANCH  10  13
ATOM     13  C   LIG    1        1.325   1.789  -0.001  0.00  0.00    -0.330 A 
ATOM     14  C   LIG    1       -0.016   1.362   0.009  0.00  0.00    +0.170 A 
ATOM     15  C   LIG    1       -1.236   2.050   0.030  0.00  0.00    +0.040 A 
ATOM     16  C   LIG    1       -2.402   1.341   0.033  0.00  0.00    +0.090 A 
ATOM     17  C   LIG    1       -2.356  -0.059   0.024  0.00  0.00    +0.020 A 
ATOM     18  C   LIG    1       -1.167  -0.703   0.009  0.00  0.00    +0.290 A 
ATOM     19  N   LIG    1        0.002  -0.004   0.002  0.00  0.00    -0.260 N 
ATOM     20  N   LIG    1        1.340  -0.416  -0.013  0.00  0.00    -0.310 NA
ATOM     21  C   LIG    1        2.122   0.631  -0.015  0.00  0.00    +0.300 A 
ENDBRANCH  10  13
BRANCH   1  24
ATOM     22  C   LIG    1        6.652   5.381   3.175  0.00  0.00    +0.580 A 
ATOM     23  N   LIG    1        6.613   4.562   2.134  0.00  0.00    -0.560 NA
ATOM     24  C   LIG    1        6.530   5.037   0.902  0.00  0.00    +0.220 A 
ATOM     25  C   LIG    1        6.473   6.408   0.709  0.00  0.00    -0.170 A 
ATOM     26  C   LIG    1        6.511   7.236   1.820  0.00  0.00    +0.390 A 
ATOM     27  N   LIG    1        6.600   6.697   3.024  0.00  0.00    -0.560 NA
BRANCH  22  29
ATOM     28  C   LIG    1        6.785   5.740   5.612  0.00  0.00    +0.310 C 
ATOM     29  N   LIG    1        6.745   4.850   4.449  0.00  0.00    -0.580 N 
ATOM     30  C   LIG    1        6.804   3.398   4.635  0.00  0.00    +0.320 C 
ENDBRANCH  22  29
ENDBRANCH   1  24
TORSDOF 3
