REMARK  Name = ZINCtj00000rmTEg.0
REMARK                            x       y       z     vdW  Elec       q    Type
REMARK                         _______ _______ _______ _____ _____    ______ ____
ROOT
ATOM      1  C   LIG    1        2.818   3.174  -2.207  0.00  0.00    +0.100 C 
ATOM      2  C   LIG    1        4.021   3.990  -2.737  0.00  0.00    +0.280 C 
ATOM      3  N   LIG    1        4.427   4.848  -1.593  0.00  0.00    -0.400 N 
ATOM      4  C   LIG    1        4.268   3.974  -0.399  0.00  0.00    +0.310 C 
ATOM      5  C   LIG    1        5.827   5.269  -1.738  0.00  0.00    +0.340 C 
ATOM      6  H   LIG    1        3.823   5.653  -1.525  0.00  0.00    +0.430 HD
ATOM      7  C   LIG    1        2.997   3.169  -0.686  0.00  0.00    -0.120 C 
ATOM      8  C   LIG    1        1.769   3.529   0.139  0.00  0.00    +0.320 C 
ATOM      9  N   LIG    1        1.449   2.092   0.180  0.00  0.00    -0.640 N 
ATOM     10  C   LIG    1        0.331   1.353   0.320  0.00  0.00    +0.640 C 
ATOM     11  O   LIG    1       -0.749   1.900   0.449  0.00  0.00    -0.530 OA
ATOM     12  C   LIG    1        2.885   1.815   0.008  0.00  0.00    +0.300 C 
ENDROOT
BRANCH  10  13
ATOM     13  C   LIG    1        0.414  -0.111   0.311  0.00  0.00    -0.320 A 
ATOM     14  C   LIG    1       -0.659  -1.013   0.445  0.00  0.00    +0.170 A 
ATOM     15  C   LIG    1       -2.038  -0.836   0.617  0.00  0.00    +0.040 A 
ATOM     16  C   LIG    1       -2.844  -1.932   0.718  0.00  0.00    +0.090 A 
ATOM     17  C   LIG    1       -2.278  -3.212   0.647  0.00  0.00    +0.010 A 
ATOM     18  C   LIG    1       -0.944  -3.359   0.481  0.00  0.00    +0.290 A 
ATOM     19  N   LIG    1       -0.131  -2.271   0.379  0.00  0.00    -0.260 N 
ATOM     20  N   LIG    1        1.253  -2.148   0.207  0.00  0.00    -0.310 NA
ATOM     21  C   LIG    1        1.579  -0.883   0.160  0.00  0.00    +0.290 A 
ENDBRANCH  10  13
BRANCH   1  24
ATOM     22  C   LIG    1        1.763  -0.127  -3.458  0.00  0.00    +0.580 A 
ATOM     23  N   LIG    1        1.736   1.108  -2.979  0.00  0.00    -0.550 NA
ATOM     24  C   LIG    1        2.858   1.768  -2.747  0.00  0.00    +0.220 A 
ATOM     25  C   LIG    1        4.072   1.148  -3.000  0.00  0.00    -0.170 A 
ATOM     26  C   LIG    1        4.064  -0.147  -3.496  0.00  0.00    +0.380 A 
ATOM     27  N   LIG    1        2.906  -0.748  -3.711  0.00  0.00    -0.560 NA
BRANCH  22  29
ATOM     28  C   LIG    1        0.579  -2.154  -4.219  0.00  0.00    +0.300 C 
ATOM     29  N   LIG    1        0.569  -0.786  -3.695  0.00  0.00    -0.580 N 
ATOM     30  C   LIG    1       -0.705  -0.116  -3.421  0.00  0.00    +0.310 C 
ENDBRANCH  22  29
ENDBRANCH   1  24
TORSDOF 3
