REMARK  Name = ZINCpk00000xI4gq.0
REMARK                            x       y       z     vdW  Elec       q    Type
REMARK                         _______ _______ _______ _____ _____    ______ ____
ROOT
ATOM      1  N   LIG    1        0.653   1.546  -2.305  0.00  0.00    -0.460 N 
ATOM      2  C   LIG    1       -0.520   1.585  -1.401  0.00  0.00    +0.240 C 
ATOM      3  C   LIG    1        0.012   1.029  -0.067  0.00  0.00    +0.000 C 
ATOM      4  C   LIG    1       -0.854   1.431   1.104  0.00  0.00    +0.230 C 
ATOM      5  O   LIG    1       -0.810   2.820   1.357  0.00  0.00    -0.370 OA
ATOM      6  C   LIG    1        0.511   3.295   1.641  0.00  0.00    +0.220 C 
ATOM      7  C   LIG    1        1.368   3.107   0.390  0.00  0.00    +0.020 C 
ATOM      8  C   LIG    1        1.431   1.628   0.000  0.00  0.00    -0.090 C 
ATOM      9  C   LIG    1        1.879   1.561  -1.484  0.00  0.00    +0.250 C 
ENDROOT
BRANCH   1  14
ATOM     10  C   LIG    1       -0.412   3.872  -4.928  0.00  0.00    +0.170 A 
ATOM     11  N   LIG    1        0.625   4.696  -4.896  0.00  0.00    -0.510 NA
ATOM     12  C   LIG    1        1.623   4.500  -4.059  0.00  0.00    +0.530 A 
ATOM     13  N   LIG    1        1.635   3.488  -3.216  0.00  0.00    -0.540 NA
ATOM     14  C   LIG    1        0.634   2.614  -3.190  0.00  0.00    +0.330 A 
ATOM     15  C   LIG    1       -0.441   2.791  -4.066  0.00  0.00    -0.020 A 
ATOM     16  F   LIG    1       -1.482   1.930  -4.069  0.00  0.00    -0.110 F 
BRANCH  10  18
ATOM     17  C   LIG    1       -2.602   4.996  -5.230  0.00  0.00    +0.050 C 
ATOM     18  C   LIG    1       -1.546   4.108  -5.893  0.00  0.00    +0.110 C 
ENDBRANCH  10  18
ENDBRANCH   1  14
BRANCH   8  19
ATOM     19  C   LIG    1        2.340   0.840   0.908  0.00  0.00    +0.560 C 
ATOM     20  N   LIG    1        3.660   1.113   0.943  0.00  0.00    -0.620 N 
ATOM     21  C   LIG    1        4.698   0.392   1.693  0.00  0.00    +0.290 C 
ATOM     22  C   LIG    1        6.008   1.076   1.406  0.00  0.00    -0.010 C 
ATOM     23  C   LIG    1        5.821   2.084   0.601  0.00  0.00    -0.020 C 
ATOM     24  C   LIG    1        4.362   2.198   0.244  0.00  0.00    +0.280 C 
ATOM     25  O   LIG    1        1.884  -0.039   1.608  0.00  0.00    -0.520 OA
ENDBRANCH   8  19
TORSDOF 3
