REMARK  Name = ZINCrD00000F5LB8.0
REMARK                            x       y       z     vdW  Elec       q    Type
REMARK                         _______ _______ _______ _____ _____    ______ ____
ROOT
ATOM      1  C   LIG    1        4.774   1.032  -0.038  0.00  0.00    +0.400 C 
ATOM      2  O   LIG    1        4.631  -0.172  -0.043  0.00  0.00    -0.430 OA
ENDROOT
BRANCH   1   3
ATOM      3  C   LIG    1        6.123   1.612  -0.048  0.00  0.00    -0.190 A 
ATOM      4  C   LIG    1        7.233   0.752  -0.063  0.00  0.00    +0.130 A 
ATOM      5  C   LIG    1        8.505   1.260  -0.072  0.00  0.00    -0.120 A 
ATOM      6  C   LIG    1        8.630   2.654  -0.064  0.00  0.00    +0.170 A 
ATOM      7  C   LIG    1        7.534   3.511  -0.051  0.00  0.00    -0.150 A 
ATOM      8  C   LIG    1        8.112   4.893  -0.049  0.00  0.00    +0.150 C 
ATOM      9  C   LIG    1        9.618   4.668  -0.062  0.00  0.00    +0.520 C 
ATOM     10  O   LIG    1       10.471   5.531  -0.066  0.00  0.00    -0.490 OA
ATOM     11  N   LIG    1        9.833   3.344  -0.067  0.00  0.00    -0.550 N 
ATOM     12  C   LIG    1       11.111   2.611  -0.075  0.00  0.00    +0.290 C 
ATOM     13  C   LIG    1       10.893   1.248   0.591  0.00  0.00    +0.020 C 
ATOM     14  C   LIG    1        9.772   0.457  -0.091  0.00  0.00    +0.100 C 
ATOM     15  C   LIG    1        6.264   3.016  -0.047  0.00  0.00    +0.130 A 
ENDBRANCH   1   3
BRANCH   1  16
ATOM     16  C   LIG    1        3.567   1.934  -0.022  0.00  0.00    +0.240 C 
BRANCH  16  17
ATOM     17  O   LIG    1        2.379   1.139  -0.015  0.00  0.00    -0.330 OA
BRANCH  17  19
ATOM     18  O   LIG    1        1.184   3.015   0.007  0.00  0.00    -0.510 OA
ATOM     19  C   LIG    1        1.201   1.798   0.000  0.00  0.00    +0.510 C 
BRANCH  19  20
ATOM     20  C   LIG    1       -0.013   1.076   0.008  0.00  0.00    -0.040 C 
ATOM     21  C   LIG    1       -1.198   1.739   0.017  0.00  0.00    +0.200 C 
BRANCH  21  22
ATOM     22  C   LIG    1       -2.413   1.015   0.019  0.00  0.00    +0.000 A 
ATOM     23  C   LIG    1       -3.683   1.557   0.028  0.00  0.00    +0.030 A 
ATOM     24  C   LIG    1       -4.578   0.478   0.026  0.00  0.00    +0.010 A 
ATOM     25  C   LIG    1       -3.838  -0.655   0.016  0.00  0.00    -0.010 A 
ATOM     26 BR   LIG    1       -4.528  -2.416   0.009  0.00  0.00    +0.060 Br
ATOM     27  O   LIG    1       -2.538  -0.329   0.006  0.00  0.00    -0.150 OA
ENDBRANCH  21  22
ENDBRANCH  19  20
ENDBRANCH  17  19
ENDBRANCH  16  17
ENDBRANCH   1  16
TORSDOF 6
