REMARK  Name = ZINCvU00000004Jj.0
REMARK                            x       y       z     vdW  Elec       q    Type
REMARK                         _______ _______ _______ _____ _____    ______ ____
ROOT
ATOM      1  C   LIG    1        3.351   3.833  -0.940  0.00  0.00    +0.150 A 
ATOM      2  N   LIG    1        4.276   4.695  -0.581  0.00  0.00    -0.290 NA
ATOM      3  N   LIG    1        3.953   5.252   0.531  0.00  0.00    -0.260 NA
ATOM      4  C   LIG    1        2.799   4.786   0.949  0.00  0.00    +0.240 A 
ATOM      5  N   LIG    1        2.379   3.858   0.022  0.00  0.00    -0.410 N 
ENDROOT
BRANCH   5   6
ATOM      6  C   LIG    1        1.199   3.101   0.056  0.00  0.00    +0.090 A 
ATOM      7  C   LIG    1        1.260   1.726   0.243  0.00  0.00    +0.070 A 
ATOM      8  C   LIG    1        0.097   0.983   0.276  0.00  0.00    +0.010 A 
ATOM      9  C   LIG    1       -1.130   1.606   0.117  0.00  0.00    +0.120 A 
ATOM     10  C   LIG    1       -1.193   2.977  -0.065  0.00  0.00    +0.010 A 
ATOM     11  F   LIG    1       -2.266   0.876   0.143  0.00  0.00    -0.130 F 
ATOM     12  C   LIG    1       -0.032   3.724  -0.099  0.00  0.00    +0.080 A 
ENDBRANCH   5   6
BRANCH   4  13
ATOM     13  C   LIG    1        2.087   5.181   2.183  0.00  0.00    -0.030 A 
ATOM     14  C   LIG    1        2.423   6.367   2.837  0.00  0.00    +0.070 A 
ATOM     15  C   LIG    1        1.751   6.732   3.985  0.00  0.00    +0.010 A 
ATOM     16  C   LIG    1        0.753   5.920   4.495  0.00  0.00    +0.030 A 
ATOM     17  C   LIG    1        0.419   4.740   3.854  0.00  0.00    +0.010 A 
ATOM     18  C   LIG    1        1.080   4.366   2.702  0.00  0.00    +0.020 A 
ENDBRANCH   4  13
BRANCH   1  19
ATOM     19  S   LIG    1        3.360   2.834  -2.391  0.00  0.00    +0.100 S 
BRANCH  19  20
ATOM     20  C   LIG    1        4.927   3.361  -3.126  0.00  0.00    +0.110 C 
BRANCH  20  22
ATOM     21  O   LIG    1        4.334   1.808  -4.802  0.00  0.00    -0.520 OA
ATOM     22  C   LIG    1        5.153   2.616  -4.417  0.00  0.00    +0.530 C 
ATOM     23  N   LIG    1        6.264   2.848  -5.143  0.00  0.00    -0.720 N 
ATOM     24  H   LIG    1        6.919   3.494  -4.835  0.00  0.00    +0.410 HD
BRANCH  23  25
ATOM     25  C   LIG    1        6.483   2.123  -6.398  0.00  0.00    +0.260 C 
BRANCH  25  26
ATOM     26  C   LIG    1        7.809   2.569  -7.019  0.00  0.00    +0.060 C 
BRANCH  26  27
ATOM     27  C   LIG    1        8.034   1.824  -8.309  0.00  0.00    -0.120 C 
ATOM     28  C   LIG    1        7.663   2.393  -9.411  0.00  0.00    -0.050 C 
ATOM     29  C   LIG    1        7.817   1.774 -10.770  0.00  0.00    +0.050 C 
ATOM     30  C   LIG    1        8.815   0.617 -10.714  0.00  0.00    +0.010 C 
ATOM     31  C   LIG    1        8.434  -0.297  -9.542  0.00  0.00    +0.020 C 
ATOM     32  C   LIG    1        8.670   0.467  -8.237  0.00  0.00    +0.060 C 
ENDBRANCH  26  27
ENDBRANCH  25  26
ENDBRANCH  23  25
ENDBRANCH  20  22
ENDBRANCH  19  20
ENDBRANCH   1  19
TORSDOF 8
