REMARK  Name = ZINCqH00000512kf.0
REMARK                            x       y       z     vdW  Elec       q    Type
REMARK                         _______ _______ _______ _____ _____    ______ ____
ROOT
ATOM      1  C   LIG    1        1.256   1.959   0.017  0.00  0.00    -0.140 A 
ATOM      2  C   LIG    1        1.242   3.345  -0.168  0.00  0.00    +0.100 A 
ATOM      3  C   LIG    1        2.424   4.049  -0.175  0.00  0.00    -0.020 A 
ATOM      4  C   LIG    1        3.635   3.381  -0.009  0.00  0.00    +0.190 A 
ATOM      5  C   LIG    1        3.653   2.001   0.169  0.00  0.00    +0.020 A 
ATOM      6  C   LIG    1        2.474   1.292   0.183  0.00  0.00    +0.110 A 
ENDROOT
BRANCH   4   7
ATOM      7  N   LIG    1        4.830   4.096  -0.023  0.00  0.00    -0.670 N 
ATOM      8  H   LIG    1        4.859   4.998   0.333  0.00  0.00    +0.420 HD
ATOM      9  C   LIG    1        5.945   3.535  -0.530  0.00  0.00    +0.610 C 
ATOM     10  O   LIG    1        5.888   2.442  -1.063  0.00  0.00    -0.490 OA
BRANCH   9  11
ATOM     11  C   LIG    1        7.227   4.240  -0.439  0.00  0.00    -0.090 A 
ATOM     12  C   LIG    1        8.427   3.788  -0.909  0.00  0.00    +0.060 A 
ATOM     13  C   LIG    1        9.377   4.778  -0.611  0.00  0.00    -0.070 A 
ATOM     14  C   LIG    1        8.723   5.778   0.021  0.00  0.00    +0.230 A 
ATOM     15  O   LIG    1        7.427   5.453   0.117  0.00  0.00    -0.170 OA
ENDBRANCH   9  11
ENDBRANCH   4   7
BRANCH   1  16
ATOM     16  C   LIG    1       -0.009   1.202   0.030  0.00  0.00    +0.510 C 
ATOM     17  O   LIG    1        0.006  -0.003   0.186  0.00  0.00    -0.500 OA
BRANCH  16  18
ATOM     18  O   LIG    1       -1.181   1.846  -0.135  0.00  0.00    -0.350 OA
BRANCH  18  19
ATOM     19  C   LIG    1       -2.386   1.036  -0.117  0.00  0.00    +0.280 C 
BRANCH  19  25
ATOM     20  C   LIG    1       -4.870   1.367  -0.341  0.00  0.00    -0.020 A 
ATOM     21  C   LIG    1       -5.980   2.195  -0.520  0.00  0.00    +0.070 A 
ATOM     22  C   LIG    1       -5.803   3.554  -0.682  0.00  0.00    +0.020 A 
ATOM     23  C   LIG    1       -4.531   4.096  -0.662  0.00  0.00    +0.050 A 
ATOM     24  C   LIG    1       -3.427   3.282  -0.479  0.00  0.00    +0.040 A 
ATOM     25  C   LIG    1       -3.589   1.922  -0.316  0.00  0.00    -0.050 A 
BRANCH  20  27
ATOM     26  N   LIG    1       -5.185  -1.165  -0.049  0.00  0.00    -0.400 NA
ATOM     27  C   LIG    1       -5.046  -0.045  -0.178  0.00  0.00    +0.240 C 
ENDBRANCH  20  27
ENDBRANCH  19  25
ENDBRANCH  18  19
ENDBRANCH  16  18
ENDBRANCH   1  16
TORSDOF 7
