REMARK  Name = ZINCtV00001bB3Pg.0
REMARK                            x       y       z     vdW  Elec       q    Type
REMARK                         _______ _______ _______ _____ _____    ______ ____
ROOT
ATOM      1  C   LIG    1        2.721   2.190  -0.916  0.00  0.00    +0.130 C 
ATOM      2  C   LIG    1        1.279   2.518  -0.625  0.00  0.00    +0.010 A 
ATOM      3  C   LIG    1        0.781   3.753  -0.457  0.00  0.00    +0.060 A 
ATOM      4  C   LIG    1       -0.657   3.590  -0.198  0.00  0.00    -0.210 A 
ATOM      5  C   LIG    1       -0.897   2.224  -0.242  0.00  0.00    +0.110 A 
ATOM      6  C   LIG    1       -2.232   1.553  -0.042  0.00  0.00    +0.140 C 
ATOM      7  N   LIG    1        0.271   1.603  -0.493  0.00  0.00    -0.390 N 
ENDROOT
BRANCH   4   8
ATOM      8  C   LIG    1       -1.603   4.615   0.042  0.00  0.00    +0.290 C 
ATOM      9  C   LIG    1       -1.227   5.758   0.733  0.00  0.00    -0.280 C 
ATOM     10  C   LIG    1        0.047   6.009   1.422  0.00  0.00    +0.530 C 
ATOM     11  N   LIG    1       -0.049   7.250   1.941  0.00  0.00    -0.410 N 
ATOM     12  N   LIG    1       -1.295   7.800   1.640  0.00  0.00    -0.250 NA
ATOM     13  O   LIG    1        0.998   5.251   1.505  0.00  0.00    -0.480 OA
ATOM     14  C   LIG    1       -2.018   6.979   0.942  0.00  0.00    +0.140 C 
ATOM     15  C   LIG    1       -3.416   7.231   0.437  0.00  0.00    +0.190 C 
BRANCH  11  16
ATOM     16  C   LIG    1        0.953   7.890   2.680  0.00  0.00    +0.180 A 
ATOM     17  C   LIG    1        2.158   7.244   2.925  0.00  0.00    +0.000 A 
ATOM     18  C   LIG    1        3.146   7.881   3.650  0.00  0.00    +0.040 A 
ATOM     19  C   LIG    1        2.933   9.156   4.141  0.00  0.00    -0.020 A 
ATOM     20  C   LIG    1        1.733   9.800   3.903  0.00  0.00    +0.030 A 
ATOM     21  C   LIG    1        0.743   9.171   3.174  0.00  0.00    -0.010 A 
ENDBRANCH  11  16
ENDBRANCH   4   8
BRANCH   7  22
ATOM     22  C   LIG    1        0.430   0.215  -0.608  0.00  0.00    +0.130 A 
ATOM     23  C   LIG    1        0.729  -0.546   0.514  0.00  0.00    +0.070 A 
ATOM     24  C   LIG    1        0.884  -1.915   0.397  0.00  0.00    -0.030 A 
ATOM     25  C   LIG    1        0.742  -2.526  -0.836  0.00  0.00    +0.070 A 
ATOM     26  C   LIG    1        0.444  -1.771  -1.955  0.00  0.00    +0.070 A 
ATOM     27 CL   LIG    1        1.258  -2.867   1.800  0.00  0.00    -0.040 Cl
ATOM     28  C   LIG    1        0.283  -0.403  -1.844  0.00  0.00    -0.020 A 
ATOM     29 CL   LIG    1       -0.098   0.544  -3.249  0.00  0.00    -0.030 Cl
ENDBRANCH   7  22
TORSDOF 3
