REMARK  Name = ZINCb70000003YNV.0
REMARK                            x       y       z     vdW  Elec       q    Type
REMARK                         _______ _______ _______ _____ _____    ______ ____
ROOT
ATOM      1  C   LIG    1       -0.019   1.526   0.010  0.00  0.00    +0.110 C 
ATOM      2  C   LIG    1        0.002  -0.004   0.002  0.00  0.00    +0.060 C 
ATOM      3  C   LIG    1        0.715  -0.512  -1.268  0.00  0.00    +0.140 C 
ATOM      4  C   LIG    1       -0.128  -1.756  -1.665  0.00  0.00    -0.460 C 
ATOM      5  C   LIG    1       -1.557  -1.307  -1.271  0.00  0.00    +0.310 C 
ATOM      6  C   LIG    1        0.725  -0.521   1.247  0.00  0.00    +0.100 C 
ATOM      7  N   LIG    1       -1.377  -0.524  -0.029  0.00  0.00    -0.510 N 
ATOM      8  H   LIG    1       -2.030   0.245  -0.016  0.00  0.00    +0.430 HD
ATOM      9  H   LIG    1       -1.535  -1.117   0.772  0.00  0.00    +0.430 HD
ENDROOT
BRANCH   4  10
ATOM     10  S   LIG    1       -0.016  -2.076  -3.448  0.00  0.00    +2.440 S 
ATOM     11  O   LIG    1        1.240  -2.681  -3.721  0.00  0.00    -0.900 OA
ATOM     12  O   LIG    1       -0.383  -0.893  -4.144  0.00  0.00    -0.910 OA
ATOM     13  C   LIG    1       -1.319  -3.315  -3.688  0.00  0.00    -0.230 C 
ENDBRANCH   4  10
TORSDOF 1
