REMARK  Name = ZINCpk00000ebOO4.0
REMARK                            x       y       z     vdW  Elec       q    Type
REMARK                         _______ _______ _______ _____ _____    ______ ____
ROOT
ATOM      1  N   LIG    1        3.962   2.451  -1.438  0.00  0.00    -0.540 NA
ATOM      2  C   LIG    1        3.007   3.389  -1.995  0.00  0.00    +0.170 C 
ATOM      3  C   LIG    1        3.142   3.533  -3.503  0.00  0.00    +0.220 C 
ATOM      4  O   LIG    1        3.173   2.252  -4.121  0.00  0.00    -0.370 OA
ATOM      5  C   LIG    1        4.243   1.409  -3.692  0.00  0.00    +0.190 C 
ATOM      6  C   LIG    1        3.921  -0.032  -4.178  0.00  0.00    +0.250 C 
ATOM      7  N   LIG    1        2.884  -0.515  -3.239  0.00  0.00    -0.450 N 
ATOM      8  C   LIG    1        3.027   0.225  -1.968  0.00  0.00    +0.190 C 
ATOM      9  C   LIG    1        4.181   1.224  -2.163  0.00  0.00    +0.160 C 
ENDROOT
BRANCH   7  10
ATOM     10  C   LIG    1        2.998  -1.872  -3.034  0.00  0.00    +0.470 A 
ATOM     11  N   LIG    1        3.221  -2.370  -1.824  0.00  0.00    -0.600 NA
ATOM     12  C   LIG    1        3.329  -3.672  -1.609  0.00  0.00    +0.570 A 
ATOM     13  N   LIG    1        3.240  -4.587  -2.538  0.00  0.00    -0.530 NA
ATOM     14  C   LIG    1        3.020  -4.250  -3.823  0.00  0.00    +0.300 A 
ATOM     15  N   LIG    1        2.883  -4.902  -4.957  0.00  0.00    -0.280 NA
ATOM     16  N   LIG    1        2.667  -3.982  -5.990  0.00  0.00    -0.420 N 
ATOM     17  H   LIG    1        2.536  -4.212  -6.923  0.00  0.00    +0.450 HD
ATOM     18  C   LIG    1        2.668  -2.735  -5.499  0.00  0.00    +0.350 A 
ATOM     19  C   LIG    1        2.884  -2.818  -4.142  0.00  0.00    -0.320 A 
ENDBRANCH   7  10
BRANCH   1  20
ATOM     20  C   LIG    1        3.672   2.182  -0.023  0.00  0.00    +0.250 C 
BRANCH  20  24
ATOM     21  C   LIG    1        4.263   5.747   2.255  0.00  0.00    +0.000 A 
ATOM     22  C   LIG    1        5.336   4.924   1.968  0.00  0.00    +0.000 A 
ATOM     23  C   LIG    1        5.145   3.770   1.232  0.00  0.00    +0.020 A 
ATOM     24  C   LIG    1        3.881   3.440   0.780  0.00  0.00    -0.080 A 
ATOM     25  C   LIG    1        2.808   4.263   1.067  0.00  0.00    +0.010 A 
ATOM     26  C   LIG    1        2.999   5.416   1.804  0.00  0.00    +0.000 A 
ENDBRANCH  20  24
ENDBRANCH   1  20
TORSDOF 3
