REMARK  Name = ZINCpe000000ZtSo.0
REMARK                            x       y       z     vdW  Elec       q    Type
REMARK                         _______ _______ _______ _____ _____    ______ ____
ROOT
ATOM      1  C   LIG    1       -0.013   1.086   0.008  0.00  0.00    +0.230 C 
ATOM      2  C   LIG    1        1.431   1.630  -0.003  0.00  0.00    +0.050 C 
ATOM      3  C   LIG    1        1.704   1.923   1.496  0.00  0.00    +0.040 C 
ATOM      4  C   LIG    1        0.312   2.406   1.977  0.00  0.00    +0.260 C 
ATOM      5  N   LIG    1       -0.653   1.570   1.240  0.00  0.00    -0.610 N 
ATOM      6  C   LIG    1       -1.913   1.296   1.630  0.00  0.00    +0.540 C 
ATOM      7  O   LIG    1       -2.622   0.594   0.941  0.00  0.00    -0.510 OA
ENDROOT
BRANCH   1   9
ATOM      8  O   LIG    1       -1.744   2.291  -1.051  0.00  0.00    -0.500 OA
ATOM      9  C   LIG    1       -0.761   1.595  -1.197  0.00  0.00    +0.540 C 
ATOM     10  N   LIG    1       -0.340   1.276  -2.437  0.00  0.00    -0.650 N 
ATOM     11  C   LIG    1        0.765   0.493  -3.010  0.00  0.00    +0.300 C 
ATOM     12  C   LIG    1       -0.127   0.240  -4.237  0.00  0.00    +0.260 C 
ATOM     13  C   LIG    1       -0.778   1.563  -3.811  0.00  0.00    +0.300 C 
BRANCH  12  14
ATOM     14  N   LIG    1        0.584   0.305  -5.516  0.00  0.00    -0.280 N 
ATOM     15  C   LIG    1        1.859   0.720  -5.695  0.00  0.00    +0.140 A 
ATOM     16  C   LIG    1        2.107   0.617  -7.022  0.00  0.00    +0.150 A 
ATOM     17  N   LIG    1        0.984   0.157  -7.583  0.00  0.00    -0.270 NA
ATOM     18  N   LIG    1        0.100  -0.018  -6.665  0.00  0.00    -0.080 NA
ENDBRANCH  12  14
ENDBRANCH   1   9
BRANCH   6  19
ATOM     19  C   LIG    1       -2.442   1.863   2.923  0.00  0.00    +0.110 C 
BRANCH  19  20
ATOM     20  C   LIG    1       -3.865   1.409   3.125  0.00  0.00    -0.070 A 
ATOM     21  C   LIG    1       -4.909   2.173   2.639  0.00  0.00    +0.020 A 
ATOM     22  C   LIG    1       -6.214   1.755   2.820  0.00  0.00    +0.000 A 
ATOM     23  C   LIG    1       -6.475   0.578   3.498  0.00  0.00    +0.000 A 
ATOM     24  C   LIG    1       -5.431  -0.182   3.989  0.00  0.00    +0.000 A 
ATOM     25  C   LIG    1       -4.125   0.233   3.803  0.00  0.00    +0.010 A 
ENDBRANCH  19  20
ENDBRANCH   6  19
TORSDOF 4
