REMARK  Name = ZINCpe000000TtFW.0
REMARK                            x       y       z     vdW  Elec       q    Type
REMARK                         _______ _______ _______ _____ _____    ______ ____
ROOT
ATOM      1  C   LIG    1       -3.046   0.799   1.567  0.00  0.00    -0.660 A 
ATOM      2  C   LIG    1       -3.568   0.034   0.540  0.00  0.00    +0.110 A 
ATOM      3  C   LIG    1       -4.411  -1.026   0.823  0.00  0.00    +0.020 A 
ATOM      4  C   LIG    1       -4.742  -1.316   2.131  0.00  0.00    +0.060 A 
ATOM      5  C   LIG    1       -4.223  -0.546   3.165  0.00  0.00    +0.120 A 
ATOM      6  C   LIG    1       -3.373   0.514   2.878  0.00  0.00    +0.130 A 
ENDROOT
BRANCH   5   7
ATOM      7  N   LIG    1       -4.556  -0.838   4.490  0.00  0.00    -0.650 N 
ATOM      8  H   LIG    1       -4.708  -1.757   4.761  0.00  0.00    +0.430 HD
ATOM      9  C   LIG    1       -4.666   0.157   5.393  0.00  0.00    +0.510 C 
ATOM     10  O   LIG    1       -4.570   1.313   5.035  0.00  0.00    -0.490 OA
BRANCH   9  11
ATOM     11  C   LIG    1       -4.905  -0.162   6.832  0.00  0.00    +0.510 C 
ATOM     12  N   LIG    1       -5.014   0.833   7.734  0.00  0.00    -0.700 N 
ATOM     13  H   LIG    1       -4.938   1.757   7.448  0.00  0.00    +0.420 HD
ATOM     14  O   LIG    1       -5.000  -1.318   7.189  0.00  0.00    -0.510 OA
BRANCH  12  15
ATOM     15  C   LIG    1       -5.249   0.520   9.146  0.00  0.00    +0.280 C 
BRANCH  15  16
ATOM     16  C   LIG    1       -5.333   1.819   9.949  0.00  0.00    +0.030 C 
BRANCH  16  17
ATOM     17  C   LIG    1       -5.577   1.492  11.424  0.00  0.00    +0.160 C 
BRANCH  17  18
ATOM     18  O   LIG    1       -5.656   2.705  12.174  0.00  0.00    -0.390 OA
ATOM     19  C   LIG    1       -5.884   2.510  13.572  0.00  0.00    +0.200 C 
ENDBRANCH  17  18
ENDBRANCH  16  17
ENDBRANCH  15  16
ENDBRANCH  12  15
ENDBRANCH   9  11
ENDBRANCH   5   7
BRANCH   1  20
ATOM     20  S   LIG    1       -1.968   2.144   1.202  0.00  0.00    +2.690 S 
ATOM     21  O   LIG    1       -2.250   2.533  -0.136  0.00  0.00    -0.950 OA
ATOM     22  O   LIG    1       -2.051   3.036   2.304  0.00  0.00    -0.940 OA
BRANCH  20  23
ATOM     23  N   LIG    1       -0.423   1.547   1.199  0.00  0.00    -1.000 NA
BRANCH  23  25
ATOM     24  C   LIG    1       -0.036  -0.489  -0.100  0.00  0.00    +0.010 C 
ATOM     25  C   LIG    1        0.160   1.028  -0.040  0.00  0.00    +0.290 C 
ENDBRANCH  23  25
BRANCH  23  26
ATOM     26  C   LIG    1        0.361   1.539   2.437  0.00  0.00    +0.280 C 
ATOM     27  C   LIG    1        1.236   2.793   2.495  0.00  0.00    +0.010 C 
ENDBRANCH  23  26
ENDBRANCH  20  23
ENDBRANCH   1  20
TORSDOF 10
