REMARK  Name = ZINCrH000004rRlZ.0
REMARK                            x       y       z     vdW  Elec       q    Type
REMARK                         _______ _______ _______ _____ _____    ______ ____
ROOT
ATOM      1  N   LIG    1        6.825  -4.638  -0.371  0.00  0.00    -0.570 N 
ATOM      2  C   LIG    1        6.286  -3.858   0.749  0.00  0.00    +0.300 C 
ATOM      3  C   LIG    1        4.941  -3.288   0.245  0.00  0.00    +0.000 C 
ATOM      4  C   LIG    1        4.551  -4.315  -0.843  0.00  0.00    +0.090 C 
ATOM      5  C   LIG    1        5.871  -4.914  -1.278  0.00  0.00    +0.520 C 
ATOM      6  O   LIG    1        6.044  -5.551  -2.295  0.00  0.00    -0.520 OA
ENDROOT
BRANCH   1  12
ATOM      7  C   LIG    1       11.404  -3.743  -1.922  0.00  0.00    +0.090 C 
ATOM      8  C   LIG    1       10.401  -4.628  -1.228  0.00  0.00    -0.080 A 
ATOM      9  C   LIG    1       10.800  -5.842  -0.700  0.00  0.00    +0.020 A 
ATOM     10  C   LIG    1        9.882  -6.657  -0.063  0.00  0.00    +0.010 A 
ATOM     11  C   LIG    1        8.565  -6.259   0.052  0.00  0.00    +0.010 A 
ATOM     12  C   LIG    1        8.160  -5.042  -0.482  0.00  0.00    +0.140 A 
ATOM     13  C   LIG    1        9.084  -4.226  -1.121  0.00  0.00    -0.070 A 
ATOM     14  C   LIG    1        8.649  -2.902  -1.696  0.00  0.00    +0.100 C 
ENDBRANCH   1  12
BRANCH   3  15
ATOM     15  C   LIG    1        5.126  -1.916  -0.350  0.00  0.00    +0.520 C 
ATOM     16  N   LIG    1        4.077  -1.274  -0.903  0.00  0.00    -0.720 N 
ATOM     17  H   LIG    1        3.204  -1.696  -0.918  0.00  0.00    +0.400 HD
ATOM     18  O   LIG    1        6.218  -1.389  -0.331  0.00  0.00    -0.520 OA
BRANCH  16  19
ATOM     19  C   LIG    1        4.257   0.059  -1.481  0.00  0.00    +0.230 C 
ATOM     20  C   LIG    1        4.749  -0.072  -2.924  0.00  0.00    +0.020 C 
BRANCH  19  21
ATOM     21  C   LIG    1        2.921   0.806  -1.464  0.00  0.00    +0.030 C 
BRANCH  21  22
ATOM     22  C   LIG    1        2.490   1.048  -0.016  0.00  0.00    +0.060 C 
BRANCH  22  23
ATOM     23  C   LIG    1        1.175   1.783   0.000  0.00  0.00    -0.080 A 
ATOM     24  C   LIG    1       -0.013   1.076   0.008  0.00  0.00    +0.000 A 
ATOM     25  C   LIG    1       -1.219   1.751   0.017  0.00  0.00    +0.000 A 
ATOM     26  C   LIG    1       -1.238   3.133   0.030  0.00  0.00    +0.000 A 
ATOM     27  C   LIG    1       -0.050   3.840   0.022  0.00  0.00    +0.000 A 
ATOM     28  C   LIG    1        1.156   3.165   0.008  0.00  0.00    +0.000 A 
ENDBRANCH  22  23
ENDBRANCH  21  22
ENDBRANCH  19  21
ENDBRANCH  16  19
ENDBRANCH   3  15
TORSDOF 6
