REMARK  Name = ZINCrD000000fQbM.0
REMARK                            x       y       z     vdW  Elec       q    Type
REMARK                         _______ _______ _______ _____ _____    ______ ____
ROOT
ATOM      1  C   LIG    1       -4.861   0.882   0.264  0.00  0.00    +0.280 C 
ENDROOT
BRANCH   1   2
ATOM      2  N   LIG    1       -5.989   1.817   0.286  0.00  0.00    -0.730 N 
ATOM      3  H   LIG    1       -5.900   2.694  -0.118  0.00  0.00    +0.410 HD
ATOM      4  C   LIG    1       -7.151   1.457   0.867  0.00  0.00    +0.710 C 
ATOM      5  N   LIG    1       -8.189   2.317   0.887  0.00  0.00    -0.740 N 
ATOM      6  H   LIG    1       -8.099   3.194   0.483  0.00  0.00    +0.400 HD
ATOM      7  O   LIG    1       -7.263   0.357   1.373  0.00  0.00    -0.580 OA
BRANCH   5   8
ATOM      8  C   LIG    1       -9.451   1.926   1.518  0.00  0.00    +0.340 C 
BRANCH   8   9
ATOM      9  C   LIG    1      -10.441   3.057   1.406  0.00  0.00    -0.110 A 
ATOM     10  C   LIG    1      -10.513   4.014   2.401  0.00  0.00    +0.020 A 
ATOM     11  C   LIG    1      -11.417   5.054   2.295  0.00  0.00    +0.000 A 
ATOM     12  C   LIG    1      -12.256   5.132   1.200  0.00  0.00    +0.010 A 
ATOM     13  C   LIG    1      -12.188   4.172   0.207  0.00  0.00    +0.000 A 
ATOM     14  C   LIG    1      -11.280   3.135   0.310  0.00  0.00    +0.020 A 
ENDBRANCH   8   9
ENDBRANCH   5   8
ENDBRANCH   1   2
BRANCH   1  17
ATOM     15  N   LIG    1       -2.406   1.073   0.496  0.00  0.00    -0.670 N 
ATOM     16  H   LIG    1       -2.386   0.136   0.747  0.00  0.00    +0.420 HD
ATOM     17  C   LIG    1       -3.571   1.654   0.150  0.00  0.00    +0.520 C 
ATOM     18  O   LIG    1       -3.583   2.798  -0.252  0.00  0.00    -0.510 OA
BRANCH  15  22
ATOM     19  C   LIG    1        1.112   3.294   0.490  0.00  0.00    -0.190 A 
ATOM     20  C   LIG    1       -0.107   3.909   0.804  0.00  0.00    +0.100 A 
ATOM     21  C   LIG    1       -1.264   3.174   0.800  0.00  0.00    +0.000 A 
ATOM     22  C   LIG    1       -1.228   1.817   0.492  0.00  0.00    +0.180 A 
ATOM     23  C   LIG    1       -0.020   1.203   0.174  0.00  0.00    -0.030 A 
ATOM     24  C   LIG    1        1.142   1.930   0.174  0.00  0.00    +0.090 A 
BRANCH  19  26
ATOM     25  C   LIG    1        3.664   3.414   0.154  0.00  0.00    +0.070 C 
ATOM     26  C   LIG    1        2.354   4.078   0.492  0.00  0.00    +0.390 C 
ATOM     27  O   LIG    1        2.325   5.259   0.765  0.00  0.00    -0.460 OA
ENDBRANCH  19  26
ENDBRANCH  15  22
ENDBRANCH   1  17
BRANCH   1  28
ATOM     28  C   LIG    1       -5.000  -0.058  -0.935  0.00  0.00    -0.020 C 
ATOM     29  C   LIG    1       -5.142   0.767  -2.216  0.00  0.00    +0.020 C 
ATOM     30  C   LIG    1       -6.240  -0.936  -0.754  0.00  0.00    +0.040 C 
ENDBRANCH   1  28
TORSDOF 7
