REMARK  Name = ZINCnE000001LH5e.0
REMARK                            x       y       z     vdW  Elec       q    Type
REMARK                         _______ _______ _______ _____ _____    ______ ____
ROOT
ATOM      1  N   LIG    1        1.486  -2.679   1.333  0.00  0.00    -0.680 NA
ATOM      2  C   LIG    1        0.571  -3.363   1.966  0.00  0.00    +0.440 A 
ATOM      3  N   LIG    1       -0.672  -3.697   1.495  0.00  0.00    -0.540 NA
ATOM      4  N   LIG    1       -1.300  -4.428   2.514  0.00  0.00    -0.290 NA
ATOM      5  C   LIG    1       -0.483  -4.514   3.508  0.00  0.00    +0.080 A 
ATOM      6  O   LIG    1        0.669  -3.881   3.208  0.00  0.00    -0.300 OA
ENDROOT
BRANCH   1   7
ATOM      7  C   LIG    1        1.226  -2.186  -0.022  0.00  0.00    +0.240 C 
BRANCH   7  13
ATOM      8  C   LIG    1        2.399   0.031  -0.021  0.00  0.00    +0.140 A 
ATOM      9  C   LIG    1        2.377   1.417  -0.013  0.00  0.00    -0.100 A 
ATOM     10  C   LIG    1        1.170   2.088   0.002  0.00  0.00    +0.010 A 
ATOM     11  C   LIG    1       -0.017   1.379   0.010  0.00  0.00    -0.040 A 
ATOM     12  C   LIG    1        0.002  -0.004   0.002  0.00  0.00    +0.050 A 
ATOM     13  C   LIG    1        1.207  -0.679  -0.014  0.00  0.00    -0.080 A 
BRANCH   8  15
ATOM     14  C   LIG    1        4.772   0.164  -0.043  0.00  0.00    +0.220 C 
ATOM     15  O   LIG    1        3.586  -0.632  -0.036  0.00  0.00    -0.300 OA
ENDBRANCH   8  15
ENDBRANCH   7  13
ENDBRANCH   1   7
BRANCH   5  16
ATOM     16  C   LIG    1       -0.770  -5.221   4.808  0.00  0.00    +0.210 C 
BRANCH  16  17
ATOM     17  C   LIG    1       -2.157  -5.810   4.764  0.00  0.00    -0.090 A 
ATOM     18  C   LIG    1       -3.222  -5.109   5.296  0.00  0.00    +0.050 A 
ATOM     19  C   LIG    1       -4.495  -5.646   5.251  0.00  0.00    +0.000 A 
ATOM     20  C   LIG    1       -4.702  -6.889   4.683  0.00  0.00    +0.030 A 
ATOM     21  C   LIG    1       -3.638  -7.594   4.154  0.00  0.00    -0.030 A 
ATOM     22  C   LIG    1       -2.363  -7.055   4.194  0.00  0.00    +0.120 A 
ATOM     23  F   LIG    1       -1.322  -7.743   3.678  0.00  0.00    -0.140 F 
ENDBRANCH  16  17
ENDBRANCH   5  16
TORSDOF 5
