REMARK  Name = ZINCAx0000000dCZ.0
REMARK                            x       y       z     vdW  Elec       q    Type
REMARK                         _______ _______ _______ _____ _____    ______ ____
ROOT
ATOM      1  C   LIG    1       -2.851   0.809   0.082  0.00  0.00    +0.340 C 
ENDROOT
BRANCH   1   6
ATOM      2  N   LIG    1       -3.242  -0.490   3.498  0.00  0.00    -0.870 N 
ATOM      3  H   LIG    1       -3.474  -0.158   4.380  0.00  0.00    +0.410 HD
ATOM      4  H   LIG    1       -2.999  -1.421   3.379  0.00  0.00    +0.400 HD
ATOM      5  C   LIG    1       -3.256   0.344   2.439  0.00  0.00    +0.710 C 
ATOM      6  N   LIG    1       -2.933  -0.117   1.215  0.00  0.00    -0.730 N 
ATOM      7  H   LIG    1       -2.755  -1.061   1.083  0.00  0.00    +0.400 HD
ATOM      8  O   LIG    1       -3.560   1.512   2.589  0.00  0.00    -0.590 OA
ENDBRANCH   1   6
BRANCH   1   9
ATOM      9  C   LIG    1       -4.174   1.510  -0.091  0.00  0.00    -0.060 A 
ATOM     10  C   LIG    1       -5.354   0.807   0.071  0.00  0.00    +0.020 A 
ATOM     11  C   LIG    1       -6.569   1.449  -0.082  0.00  0.00    +0.030 A 
ATOM     12  C   LIG    1       -6.607   2.790  -0.408  0.00  0.00    +0.000 A 
ATOM     13  C   LIG    1       -5.425   3.496  -0.577  0.00  0.00    +0.090 A 
ATOM     14  C   LIG    1       -4.206   2.852  -0.418  0.00  0.00    +0.020 A 
BRANCH  13  15
ATOM     15  O   LIG    1       -5.459   4.816  -0.898  0.00  0.00    -0.260 OA
BRANCH  15  16
ATOM     16  C   LIG    1       -5.718   5.707   0.095  0.00  0.00    +0.120 A 
ATOM     17  C   LIG    1       -6.019   5.256   1.372  0.00  0.00    -0.060 A 
ATOM     18  C   LIG    1       -6.276   6.164   2.381  0.00  0.00    +0.040 A 
ATOM     19  C   LIG    1       -6.245   7.521   2.116  0.00  0.00    -0.030 A 
ATOM     20  C   LIG    1       -5.951   7.973   0.843  0.00  0.00    +0.050 A 
ATOM     21  C   LIG    1       -5.687   7.069  -0.168  0.00  0.00    -0.020 A 
ENDBRANCH  15  16
ENDBRANCH  13  15
ENDBRANCH   1   9
BRANCH   1  22
ATOM     22  C   LIG    1       -1.756   1.845   0.348  0.00  0.00    +0.050 C 
BRANCH  22  23
ATOM     23  C   LIG    1       -0.416   1.157   0.400  0.00  0.00    +0.520 C 
ATOM     24  N   LIG    1        0.702   1.877   0.619  0.00  0.00    -0.610 N 
ATOM     25  C   LIG    1        0.583   3.336   0.804  0.00  0.00    +0.250 C 
ATOM     26  C   LIG    1        1.498   3.827   1.944  0.00  0.00    +0.030 C 
ATOM     27  C   LIG    1        1.474   2.834   3.084  0.00  0.00    +0.190 C 
ATOM     28  N   LIG    1        2.566   1.878   2.909  0.00  0.00    -0.530 NA
ATOM     29  C   LIG    1        2.287   0.746   2.107  0.00  0.00    +0.180 C 
ATOM     30  C   LIG    1        1.977   1.189   0.657  0.00  0.00    +0.290 C 
ATOM     31  O   LIG    1       -0.344  -0.043   0.239  0.00  0.00    -0.540 OA
BRANCH  28  32
ATOM     32  C   LIG    1        3.130   1.478   4.205  0.00  0.00    +0.250 C 
BRANCH  32  33
ATOM     33  C   LIG    1        2.089   0.727   4.995  0.00  0.00    +0.490 C 
ATOM     34  N   LIG    1        2.384   0.261   6.225  0.00  0.00    -0.620 N 
ATOM     35  C   LIG    1        3.676   0.407   6.910  0.00  0.00    +0.240 C 
ATOM     36  C   LIG    1        3.554  -0.302   8.275  0.00  0.00    +0.030 C 
ATOM     37  C   LIG    1        2.389  -1.300   8.043  0.00  0.00    +0.040 C 
ATOM     38  C   LIG    1        1.465  -0.487   7.103  0.00  0.00    +0.250 C 
ATOM     39  O   LIG    1        0.987   0.543   4.524  0.00  0.00    -0.530 OA
ENDBRANCH  32  33
ENDBRANCH  28  32
ENDBRANCH  22  23
ENDBRANCH   1  22
TORSDOF 8
