REMARK  Name = ZINC590000002HYc.0
REMARK                            x       y       z     vdW  Elec       q    Type
REMARK                         _______ _______ _______ _____ _____    ______ ____
ROOT
ATOM      1  C   LIG    1       -0.013   1.086   0.008  0.00  0.00    +0.210 C 
ENDROOT
BRANCH   1   2
ATOM      2  C   LIG    1       -0.753   1.593  -1.232  0.00  0.00    -0.050 C 
ATOM      3  C   LIG    1       -1.380   0.548  -2.156  0.00  0.00    +0.020 C 
ATOM      4  C   LIG    1       -0.125   1.303  -2.596  0.00  0.00    +0.030 C 
ENDBRANCH   1   2
BRANCH   1   5
ATOM      5  O   LIG    1       -0.682   1.547   1.184  0.00  0.00    -0.570 OA
ATOM      6  H   LIG    1       -0.266   1.262   2.009  0.00  0.00    +0.380 HD
ENDBRANCH   1   5
TORSDOF 2
