REMARK  Name = ZINCvU000000086Z.0
REMARK                            x       y       z     vdW  Elec       q    Type
REMARK                         _______ _______ _______ _____ _____    ______ ____
ROOT
ATOM      1  C   LIG    1       -1.989  10.938  -0.729  0.00  0.00    +0.130 A 
ATOM      2  C   LIG    1       -1.833  12.200  -0.256  0.00  0.00    -0.040 A 
ATOM      3  C   LIG    1       -1.851  12.113   1.204  0.00  0.00    -0.100 A 
ATOM      4  C   LIG    1       -1.738  13.054   2.231  0.00  0.00    +0.050 A 
ATOM      5  C   LIG    1       -1.796  12.646   3.534  0.00  0.00    -0.030 A 
ATOM      6  C   LIG    1       -1.966  11.304   3.846  0.00  0.00    +0.020 A 
ATOM      7  C   LIG    1       -2.079  10.359   2.849  0.00  0.00    -0.010 A 
ATOM      8  C   LIG    1       -2.029  10.751   1.516  0.00  0.00    +0.100 A 
ATOM      9  N   LIG    1       -2.105  10.062   0.325  0.00  0.00    -0.470 N 
ENDROOT
BRANCH   1  13
ATOM     10  C   LIG    1       -2.104   9.861  -4.838  0.00  0.00    +0.140 A 
ATOM     11  C   LIG    1       -2.938   9.221  -3.930  0.00  0.00    -0.020 A 
ATOM     12  C   LIG    1       -2.904   9.568  -2.597  0.00  0.00    +0.050 A 
ATOM     13  C   LIG    1       -2.029  10.563  -2.159  0.00  0.00    -0.060 A 
ATOM     14  C   LIG    1       -1.196  11.207  -3.075  0.00  0.00    +0.080 A 
ATOM     15  C   LIG    1       -1.232  10.851  -4.406  0.00  0.00    -0.070 A 
BRANCH  10  17
ATOM     16  C   LIG    1       -1.257  10.214  -7.030  0.00  0.00    +0.240 C 
ATOM     17  O   LIG    1       -2.141   9.516  -6.152  0.00  0.00    -0.320 OA
ENDBRANCH  10  17
ENDBRANCH   1  13
BRANCH   9  18
ATOM     18  C   LIG    1       -2.287   8.614   0.200  0.00  0.00    +0.280 C 
BRANCH  18  19
ATOM     19  C   LIG    1       -0.928   7.918   0.308  0.00  0.00    +0.190 C 
BRANCH  19  20
ATOM     20  O   LIG    1       -0.111   8.293  -0.803  0.00  0.00    -0.540 OA
ATOM     21  H   LIG    1       -0.485   8.058  -1.663  0.00  0.00    +0.370 HD
ENDBRANCH  19  20
BRANCH  19  22
ATOM     22  C   LIG    1       -1.130   6.401   0.302  0.00  0.00    +0.230 C 
BRANCH  22  23
ATOM     23  N   LIG    1        0.156   5.736   0.525  0.00  0.00    -0.740 N 
ATOM     24  H   LIG    1        0.961   6.265   0.647  0.00  0.00    +0.400 HD
BRANCH  23  25
ATOM     25  C   LIG    1        0.225   4.342   0.562  0.00  0.00    +0.210 A 
ATOM     26  C   LIG    1        1.443   3.710   0.773  0.00  0.00    -0.070 A 
ATOM     27  C   LIG    1        1.507   2.331   0.809  0.00  0.00    +0.050 A 
ATOM     28  C   LIG    1        0.360   1.579   0.635  0.00  0.00    -0.130 A 
ATOM     29  C   LIG    1       -0.855   2.205   0.419  0.00  0.00    +0.050 A 
ATOM     30  C   LIG    1       -0.926   3.584   0.388  0.00  0.00    -0.080 A 
BRANCH  28  31
ATOM     31  C   LIG    1        0.433   0.074   0.676  0.00  0.00    +0.020 C 
ATOM     32  C   LIG    1       -0.051  -0.496  -0.659  0.00  0.00    +0.020 C 
ATOM     33  C   LIG    1       -0.454  -0.450   1.806  0.00  0.00    +0.020 C 
ENDBRANCH  28  31
ENDBRANCH  23  25
ENDBRANCH  22  23
ENDBRANCH  19  22
ENDBRANCH  18  19
ENDBRANCH   9  18
TORSDOF 9
