REMARK  Name = ZINCAx0000000fOO.0
REMARK                            x       y       z     vdW  Elec       q    Type
REMARK                         _______ _______ _______ _____ _____    ______ ____
ROOT
ATOM      1  C   LIG    1       -4.316  11.133   3.122  0.00  0.00    +0.520 C 
ATOM      2  N   LIG    1       -4.220  10.031   2.353  0.00  0.00    -0.610 N 
ATOM      3  C   LIG    1       -3.895  10.140   0.924  0.00  0.00    +0.270 C 
ATOM      4  C   LIG    1       -4.967   9.400   0.119  0.00  0.00    +0.020 C 
ATOM      5  C   LIG    1       -5.081   7.960   0.627  0.00  0.00    +0.000 C 
ATOM      6  C   LIG    1       -6.131   7.216  -0.201  0.00  0.00    +0.030 C 
ATOM      7  C   LIG    1       -6.258   5.778   0.304  0.00  0.00    +0.230 C 
ATOM      8  C   LIG    1       -6.685   5.791   1.773  0.00  0.00    +0.010 C 
ATOM      9  C   LIG    1       -5.630   6.527   2.600  0.00  0.00    +0.020 C 
ATOM     10  C   LIG    1       -5.501   7.967   2.099  0.00  0.00    -0.010 C 
ATOM     11  C   LIG    1       -4.438   8.696   2.926  0.00  0.00    +0.280 C 
ATOM     12  O   LIG    1       -4.585  11.029   4.300  0.00  0.00    -0.510 OA
ENDROOT
BRANCH   1  19
ATOM     13  C   LIG    1       -6.704  17.644   0.519  0.00  0.00    +0.100 C 
ATOM     14  C   LIG    1       -6.037  16.584   1.356  0.00  0.00    -0.110 A 
ATOM     15  C   LIG    1       -5.461  16.917   2.568  0.00  0.00    +0.050 A 
ATOM     16  C   LIG    1       -4.852  15.949   3.340  0.00  0.00    +0.000 A 
ATOM     17  C   LIG    1       -4.812  14.627   2.904  0.00  0.00    +0.100 A 
ATOM     18  O   LIG    1       -4.278  13.526   3.502  0.00  0.00    -0.270 OA
ATOM     19  C   LIG    1       -4.090  12.495   2.518  0.00  0.00    +0.180 C 
ATOM     20  C   LIG    1       -5.182  12.818   1.470  0.00  0.00    +0.100 C 
ATOM     21  C   LIG    1       -5.388  14.306   1.681  0.00  0.00    -0.170 A 
ATOM     22  C   LIG    1       -5.997  15.273   0.914  0.00  0.00    +0.060 A 
ENDBRANCH   1  19
BRANCH   7  23
ATOM     23  N   LIG    1       -4.965   5.100   0.177  0.00  0.00    -0.710 N 
ATOM     24  H   LIG    1       -4.144   5.618   0.173  0.00  0.00    +0.410 HD
ATOM     25  C   LIG    1       -4.915   3.758   0.068  0.00  0.00    +0.590 C 
ATOM     26  O   LIG    1       -5.946   3.116  -0.019  0.00  0.00    -0.550 OA
BRANCH  25  27
ATOM     27  C   LIG    1       -3.619   3.070   0.054  0.00  0.00    -0.370 A 
ATOM     28  C   LIG    1       -3.550   1.670   0.063  0.00  0.00    +0.460 A 
ATOM     29  N   LIG    1       -2.377   1.072   0.051  0.00  0.00    -0.540 NA
ATOM     30  C   LIG    1       -1.236   1.766   0.025  0.00  0.00    +0.400 A 
ATOM     31  C   LIG    1       -0.013   1.075   0.018  0.00  0.00    +0.030 A 
ATOM     32  C   LIG    1        1.157   1.778  -0.003  0.00  0.00    +0.140 A 
ATOM     33  C   LIG    1        1.120   3.178  -0.012  0.00  0.00    +0.010 A 
ATOM     34  C   LIG    1       -0.068   3.825  -0.000  0.00  0.00    +0.290 A 
ATOM     35  N   LIG    1       -1.239   3.132   0.021  0.00  0.00    -0.420 N 
ATOM     36  C   LIG    1       -2.409   3.806   0.033  0.00  0.00    +0.530 A 
ATOM     37  O   LIG    1       -2.424   5.024   0.024  0.00  0.00    -0.520 OA
ENDBRANCH  25  27
ENDBRANCH   7  23
TORSDOF 3
