REMARK  Name = ZINCrH000004qXDE.0
REMARK                            x       y       z     vdW  Elec       q    Type
REMARK                         _______ _______ _______ _____ _____    ______ ____
ROOT
ATOM      1  N   LIG    1        8.782   1.798   3.236  0.00  0.00    -0.640 N 
ATOM      2  H   LIG    1        9.591   2.003   2.741  0.00  0.00    +0.420 HD
ATOM      3  C   LIG    1        7.575   2.038   2.684  0.00  0.00    +0.510 C 
ATOM      4  O   LIG    1        6.564   1.782   3.303  0.00  0.00    -0.440 OA
ENDROOT
BRANCH   1   8
ATOM      5  C   LIG    1        9.420   0.320   6.721  0.00  0.00    -0.200 A 
ATOM      6  C   LIG    1        8.106   0.445   6.443  0.00  0.00    +0.260 A 
ATOM      7  N   LIG    1        7.849   0.954   5.257  0.00  0.00    -0.470 NA
ATOM      8  C   LIG    1        8.867   1.257   4.511  0.00  0.00    +0.270 A 
ATOM      9  S   LIG    1       10.327   0.903   5.327  0.00  0.00    +0.140 S 
BRANCH   5  14
ATOM     10  C   LIG    1       11.669  -1.752  11.595  0.00  0.00    +0.090 C 
ATOM     11  C   LIG    1       11.080  -1.210  10.318  0.00  0.00    -0.080 A 
ATOM     12  C   LIG    1       11.915  -0.785   9.301  0.00  0.00    +0.020 A 
ATOM     13  C   LIG    1       11.383  -0.287   8.130  0.00  0.00    +0.010 A 
ATOM     14  C   LIG    1        9.998  -0.213   7.973  0.00  0.00    -0.010 A 
ATOM     15  C   LIG    1        9.161  -0.638   9.006  0.00  0.00    +0.030 A 
ATOM     16  C   LIG    1        9.706  -1.139  10.169  0.00  0.00    +0.020 A 
ENDBRANCH   5  14
ENDBRANCH   1   8
BRANCH   3  17
ATOM     17  C   LIG    1        7.483   2.625   1.299  0.00  0.00    +0.180 C 
BRANCH  17  18
ATOM     18  C   LIG    1        6.034   2.794   0.921  0.00  0.00    +0.090 A 
ATOM     19  C   LIG    1        5.524   3.961   0.528  0.00  0.00    -0.080 A 
ATOM     20  S   LIG    1        3.814   3.721   0.178  0.00  0.00    +0.140 S 
ATOM     21  C   LIG    1        3.948   2.070   0.603  0.00  0.00    +0.010 A 
ATOM     22  N   LIG    1        5.168   1.798   0.952  0.00  0.00    -0.430 NA
BRANCH  21  23
ATOM     23  S   LIG    1        2.625   0.908   0.566  0.00  0.00    +0.100 S 
BRANCH  23  24
ATOM     24  C   LIG    1        1.280   1.980   0.001  0.00  0.00    -0.030 C 
ATOM     25  C   LIG    1        1.577   2.464  -1.420  0.00  0.00    +0.090 C 
BRANCH  24  26
ATOM     26  C   LIG    1       -0.014   1.209   0.009  0.00  0.00    +0.550 C 
ATOM     27  O   LIG    1        0.002  -0.004   0.002  0.00  0.00    -0.520 OA
ATOM     28  N   LIG    1       -1.191   1.867   0.018  0.00  0.00    -0.840 N 
ATOM     29  H   LIG    1       -1.204   2.837   0.023  0.00  0.00    +0.400 HD
ATOM     30  H   LIG    1       -2.024   1.370   0.019  0.00  0.00    +0.410 HD
ENDBRANCH  24  26
ENDBRANCH  23  24
ENDBRANCH  21  23
ENDBRANCH  17  18
ENDBRANCH   3  17
TORSDOF 7
