REMARK  Name = ZINCpk00000jUrE9.0
REMARK                            x       y       z     vdW  Elec       q    Type
REMARK                         _______ _______ _______ _____ _____    ______ ____
ROOT
ATOM      1  C   LIG    1        1.025   3.286   0.444  0.00  0.00    +0.190 C 
ATOM      2  C   LIG    1        2.461   3.597   0.918  0.00  0.00    +0.270 C 
ATOM      3  N   LIG    1        2.969   2.393   1.592  0.00  0.00    -0.610 N 
ATOM      4  C   LIG    1        1.913   1.364   1.581  0.00  0.00    +0.250 C 
ATOM      5  C   LIG    1        4.196   2.253   2.131  0.00  0.00    +0.580 C 
ATOM      6  O   LIG    1        5.026   3.130   1.988  0.00  0.00    -0.520 OA
ATOM      7  C   LIG    1        1.009   1.736   0.379  0.00  0.00    +0.190 C 
ENDROOT
BRANCH   5   8
ATOM      8  C   LIG    1        4.533   1.031   2.897  0.00  0.00    -0.080 A 
ATOM      9  C   LIG    1        3.531   0.178   3.368  0.00  0.00    -0.020 A 
ATOM     10  C   LIG    1        3.890  -0.951   4.078  0.00  0.00    +0.270 A 
ATOM     11  N   LIG    1        5.157  -1.227   4.313  0.00  0.00    -0.460 NA
ATOM     12  C   LIG    1        6.134  -0.450   3.888  0.00  0.00    +0.160 A 
ATOM     13  C   LIG    1        5.864   0.696   3.165  0.00  0.00    +0.040 A 
BRANCH  12  14
ATOM     14  C   LIG    1        7.563  -0.820   4.189  0.00  0.00    +0.020 C 
ATOM     15  C   LIG    1        8.658  -0.128   3.376  0.00  0.00    +0.040 C 
ATOM     16  C   LIG    1        8.331  -1.601   3.120  0.00  0.00    +0.040 C 
ENDBRANCH  12  14
ENDBRANCH   5   8
BRANCH   7  17
ATOM     17  O   LIG    1       -0.315   1.230   0.558  0.00  0.00    -0.550 OA
ATOM     18  H   LIG    1       -0.369   0.264   0.574  0.00  0.00    +0.390 HD
ENDBRANCH   7  17
BRANCH   1  19
ATOM     19  O   LIG    1        0.786   3.849  -0.847  0.00  0.00    -0.280 OA
BRANCH  19  22
ATOM     20  N   LIG    1       -0.758   6.908  -1.617  0.00  0.00    -0.360 N 
ATOM     21  C   LIG    1       -0.151   5.757  -2.008  0.00  0.00    +0.210 A 
ATOM     22  C   LIG    1        0.164   5.060  -0.889  0.00  0.00    -0.030 A 
ATOM     23  C   LIG    1       -0.268   5.803   0.218  0.00  0.00    +0.180 A 
ATOM     24  N   LIG    1       -0.814   6.910  -0.217  0.00  0.00    -0.260 NA
BRANCH  20  26
ATOM     25  C   LIG    1       -2.741   8.220  -2.191  0.00  0.00    +0.040 C 
ATOM     26  C   LIG    1       -1.266   7.960  -2.502  0.00  0.00    +0.320 C 
ENDBRANCH  20  26
ENDBRANCH  19  22
ENDBRANCH   1  19
TORSDOF 6
