REMARK  Name = ZINCrH000004tjK9.0
REMARK                            x       y       z     vdW  Elec       q    Type
REMARK                         _______ _______ _______ _____ _____    ______ ____
ROOT
ATOM      1  N   LIG    1       -1.560   1.052  -4.782  0.00  0.00    -0.630 N 
ATOM      2  H   LIG    1       -1.129   0.225  -5.048  0.00  0.00    +0.420 HD
ATOM      3  C   LIG    1       -2.287   1.751  -5.677  0.00  0.00    +0.500 C 
ATOM      4  O   LIG    1       -2.826   2.785  -5.344  0.00  0.00    -0.480 OA
ENDROOT
BRANCH   1   6
ATOM      5  C   LIG    1       -0.719   0.886  -2.501  0.00  0.00    -0.110 A 
ATOM      6  C   LIG    1       -1.430   1.515  -3.480  0.00  0.00    +0.050 A 
ATOM      7  S   LIG    1       -2.134   2.947  -2.888  0.00  0.00    +0.320 S 
ATOM      8  C   LIG    1       -1.470   2.707  -1.277  0.00  0.00    -0.240 A 
ATOM      9  C   LIG    1       -1.702   3.648  -0.113  0.00  0.00    +0.110 C 
ATOM     10  C   LIG    1       -0.377   3.954   0.584  0.00  0.00    +0.020 C 
ATOM     11  C   LIG    1       -0.141   2.926   1.687  0.00  0.00    +0.010 C 
ATOM     12  C   LIG    1       -0.721   1.575   1.267  0.00  0.00    +0.030 C 
ATOM     13  C   LIG    1       -0.013   1.086   0.008  0.00  0.00    +0.090 C 
ATOM     14  C   LIG    1       -0.742   1.586  -1.227  0.00  0.00    -0.040 A 
BRANCH   5  16
ATOM     15  N   LIG    1        0.538  -1.323  -2.871  0.00  0.00    -0.420 NA
ATOM     16  C   LIG    1       -0.018  -0.346  -2.707  0.00  0.00    +0.270 C 
ENDBRANCH   5  16
ENDBRANCH   1   6
BRANCH   3  17
ATOM     17  C   LIG    1       -2.429   1.248  -7.090  0.00  0.00    +0.360 C 
BRANCH  17  18
ATOM     18  N   LIG    1       -3.259   2.179  -7.859  0.00  0.00    -0.480 N 
ATOM     19  C   LIG    1       -4.604   1.998  -7.904  0.00  0.00    +0.340 A 
ATOM     20  C   LIG    1       -5.392   2.847  -8.603  0.00  0.00    -0.070 A 
ATOM     21  C   LIG    1       -4.820   3.921  -9.299  0.00  0.00    +0.210 A 
ATOM     22  C   LIG    1       -3.468   4.098  -9.257  0.00  0.00    -0.320 A 
ATOM     23  C   LIG    1       -2.679   3.201  -8.517  0.00  0.00    +0.550 A 
ATOM     24  O   LIG    1       -1.468   3.347  -8.471  0.00  0.00    -0.520 OA
BRANCH  22  25
ATOM     25  C   LIG    1       -2.827   5.244  -9.996  0.00  0.00    +0.530 C 
ATOM     26  F   LIG    1       -1.919   4.744 -10.936  0.00  0.00    -0.170 F 
ATOM     27  F   LIG    1       -2.151   6.065  -9.087  0.00  0.00    -0.170 F 
ATOM     28  F   LIG    1       -3.814   5.988 -10.651  0.00  0.00    -0.180 F 
ENDBRANCH  22  25
ENDBRANCH  17  18
ENDBRANCH   3  17
TORSDOF 5
