REMARK  Name = ZINCtV000002EC8Y.0
REMARK                            x       y       z     vdW  Elec       q    Type
REMARK                         _______ _______ _______ _____ _____    ______ ____
ROOT
ATOM      1  N   LIG    1       -4.433   8.800   0.093  0.00  0.00    -0.520 NA
ATOM      2  C   LIG    1       -4.069   9.473   1.346  0.00  0.00    +0.190 C 
ENDROOT
BRANCH   1   4
ATOM      3  C   LIG    1       -6.213   8.229  -1.490  0.00  0.00    +0.050 C 
ATOM      4  C   LIG    1       -5.884   8.852  -0.132  0.00  0.00    +0.170 C 
BRANCH   4   5
ATOM      5  C   LIG    1       -6.344  10.287  -0.112  0.00  0.00    -0.080 A 
ATOM      6  C   LIG    1       -5.569  11.267  -0.705  0.00  0.00    +0.040 A 
ATOM      7  C   LIG    1       -5.988  12.582  -0.694  0.00  0.00    +0.010 A 
ATOM      8  C   LIG    1       -7.189  12.923  -0.075  0.00  0.00    -0.040 A 
ATOM      9  C   LIG    1       -7.963  11.932   0.526  0.00  0.00    +0.010 A 
ATOM     10  C   LIG    1       -7.537  10.620   0.504  0.00  0.00    +0.010 A 
BRANCH   8  11
ATOM     11  C   LIG    1       -7.641  14.336  -0.055  0.00  0.00    -0.050 A 
ATOM     12  C   LIG    1       -8.845  14.676   0.560  0.00  0.00    +0.010 A 
ATOM     13  C   LIG    1       -9.259  15.993   0.580  0.00  0.00    +0.000 A 
ATOM     14  C   LIG    1       -8.486  16.972  -0.018  0.00  0.00    +0.000 A 
ATOM     15  C   LIG    1       -7.293  16.639  -0.634  0.00  0.00    +0.000 A 
ATOM     16  C   LIG    1       -6.867  15.327  -0.656  0.00  0.00    +0.020 A 
ENDBRANCH   8  11
ENDBRANCH   4   5
ENDBRANCH   1   4
BRANCH   1  17
ATOM     17  C   LIG    1       -3.948   7.413   0.080  0.00  0.00    +0.220 C 
BRANCH  17  18
ATOM     18  C   LIG    1       -2.441   7.408   0.066  0.00  0.00    +0.420 C 
ATOM     19  O   LIG    1       -1.831   8.458   0.066  0.00  0.00    -0.430 OA
BRANCH  18  20
ATOM     20  C   LIG    1       -1.714   6.141   0.051  0.00  0.00    -0.010 A 
ATOM     21  C   LIG    1       -2.284   4.902   0.050  0.00  0.00    +0.050 A 
ATOM     22  C   LIG    1       -1.240   3.948   0.035  0.00  0.00    -0.120 A 
ATOM     23  C   LIG    1       -1.218   2.547   0.022  0.00  0.00    +0.110 A 
ATOM     24  C   LIG    1       -0.024   1.887   0.012  0.00  0.00    -0.120 A 
ATOM     25  C   LIG    1        1.174   2.592   0.005  0.00  0.00    +0.080 A 
ATOM     26  C   LIG    1        1.179   3.969   0.012  0.00  0.00    +0.010 A 
ATOM     27 BR   LIG    1        0.002  -0.004   0.002  0.00  0.00    -0.050 Br
ATOM     28  C   LIG    1       -0.026   4.665   0.027  0.00  0.00    +0.120 A 
ATOM     29  N   LIG    1       -0.338   6.004   0.037  0.00  0.00    -0.560 N 
ATOM     30  H   LIG    1        0.302   6.733   0.036  0.00  0.00    +0.430 HD
ENDBRANCH  18  20
ENDBRANCH  17  18
ENDBRANCH   1  17
TORSDOF 6
