REMARK  Name = ZINCpk00000RMKfH.0
REMARK                            x       y       z     vdW  Elec       q    Type
REMARK                         _______ _______ _______ _____ _____    ______ ____
ROOT
ATOM      1  N   LIG    1        4.507  -5.112  -1.018  0.00  0.00    -0.740 N 
ATOM      2  H   LIG    1        5.001  -5.286  -0.202  0.00  0.00    +0.400 HD
ATOM      3  C   LIG    1        3.917  -3.915  -1.206  0.00  0.00    +0.710 C 
ATOM      4  N   LIG    1        4.015  -2.959  -0.261  0.00  0.00    -0.740 N 
ATOM      5  H   LIG    1        4.509  -3.133   0.555  0.00  0.00    +0.400 HD
ATOM      6  O   LIG    1        3.297  -3.697  -2.229  0.00  0.00    -0.580 OA
ENDROOT
BRANCH   4   7
ATOM      7  C   LIG    1        3.374  -1.658  -0.466  0.00  0.00    +0.260 C 
ATOM      8  C   LIG    1        4.099  -0.595   0.364  0.00  0.00    +0.040 C 
ATOM      9  C   LIG    1        3.578   0.794  -0.025  0.00  0.00    +0.180 C 
ATOM     10  C   LIG    1        2.069   0.752  -0.013  0.00  0.00    +0.270 A 
ATOM     11  N   LIG    1        1.240   1.757  -0.000  0.00  0.00    -0.540 NA
ATOM     12  C   LIG    1       -0.016   1.306   0.009  0.00  0.00    +0.420 A 
ATOM     13  N   LIG    1        0.002  -0.004   0.002  0.00  0.00    -0.310 NA
ATOM     14  N   LIG    1        1.347  -0.385  -0.013  0.00  0.00    -0.370 N 
ATOM     15  C   LIG    1        1.907  -1.736  -0.027  0.00  0.00    +0.310 C 
ENDBRANCH   4   7
BRANCH   1  17
ATOM     16  C   LIG    1        3.096  -6.927  -1.853  0.00  0.00    +0.040 C 
ATOM     17  C   LIG    1        4.400  -6.151  -2.045  0.00  0.00    +0.310 C 
BRANCH  17  18
ATOM     18  C   LIG    1        5.569  -7.095  -1.928  0.00  0.00    -0.090 A 
ATOM     19  C   LIG    1        6.026  -7.475  -0.680  0.00  0.00    +0.020 A 
ATOM     20  C   LIG    1        7.095  -8.345  -0.568  0.00  0.00    +0.030 A 
ATOM     21  C   LIG    1        7.720  -8.828  -1.708  0.00  0.00    +0.050 A 
ATOM     22  O   LIG    1        8.777  -9.675  -1.582  0.00  0.00    -0.310 OA
ATOM     23  C   LIG    1        9.137 -10.431  -2.744  0.00  0.00    +0.220 C 
ATOM     24  C   LIG    1        9.162  -9.480  -3.947  0.00  0.00    +0.220 C 
ATOM     25  O   LIG    1        7.858  -8.909  -4.095  0.00  0.00    -0.310 OA
ATOM     26  C   LIG    1        7.263  -8.442  -2.963  0.00  0.00    +0.060 A 
ATOM     27  C   LIG    1        6.186  -7.574  -3.068  0.00  0.00    +0.040 A 
ENDBRANCH  17  18
ENDBRANCH   1  17
TORSDOF 3
