REMARK  Name = ZINCtV000002PoCA.0
REMARK                            x       y       z     vdW  Elec       q    Type
REMARK                         _______ _______ _______ _____ _____    ______ ____
ROOT
ATOM      1  O   LIG    1       -1.713   2.004   5.476  0.00  0.00    -0.440 OA
ATOM      2  C   LIG    1       -0.853   1.651   4.694  0.00  0.00    +0.550 C 
ATOM      3  N   LIG    1       -0.380   2.518   3.776  0.00  0.00    -0.520 N 
ENDROOT
BRANCH   2   4
ATOM      4  C   LIG    1       -0.325   0.272   4.748  0.00  0.00    -0.110 A 
ATOM      5  C   LIG    1       -0.188  -0.473   3.575  0.00  0.00    +0.040 A 
ATOM      6  C   LIG    1        0.310  -1.759   3.631  0.00  0.00    +0.030 A 
ATOM      7  C   LIG    1        0.663  -2.315   4.847  0.00  0.00    +0.060 A 
ATOM      8  C   LIG    1        0.524  -1.584   6.016  0.00  0.00    -0.040 A 
ATOM      9 CL   LIG    1        0.969  -2.291   7.538  0.00  0.00    -0.050 Cl
ATOM     10  C   LIG    1        0.032  -0.295   5.973  0.00  0.00    +0.080 A 
ENDBRANCH   2   4
BRANCH   3  11
ATOM     11  C   LIG    1       -0.774   3.849   3.811  0.00  0.00    +0.300 A 
ATOM     12  N   LIG    1       -1.588   4.367   4.676  0.00  0.00    -0.450 NA
ATOM     13  C   LIG    1       -1.851   5.661   4.556  0.00  0.00    +0.120 A 
ATOM     14  C   LIG    1       -1.232   6.282   3.536  0.00  0.00    -0.080 A 
ATOM     15  S   LIG    1       -0.239   5.098   2.690  0.00  0.00    +0.150 S 
BRANCH  13  16
ATOM     16  C   LIG    1       -2.765   6.374   5.481  0.00  0.00    -0.000 A 
ATOM     17  C   LIG    1       -3.760   7.209   4.977  0.00  0.00    +0.060 A 
ATOM     18  C   LIG    1       -4.610   7.866   5.842  0.00  0.00    +0.030 A 
ATOM     19  C   LIG    1       -4.471   7.706   7.210  0.00  0.00    -0.020 A 
ATOM     20  C   LIG    1       -3.481   6.882   7.718  0.00  0.00    +0.040 A 
ATOM     21 CL   LIG    1       -5.540   8.541   8.292  0.00  0.00    -0.060 Cl
ATOM     22  C   LIG    1       -2.627   6.215   6.861  0.00  0.00    +0.000 A 
ATOM     23 CL   LIG    1       -1.387   5.181   7.498  0.00  0.00    -0.030 Cl
ENDBRANCH  13  16
ENDBRANCH   3  11
BRANCH   3  24
ATOM     24  C   LIG    1        0.549   2.055   2.742  0.00  0.00    +0.320 C 
BRANCH  24  25
ATOM     25  C   LIG    1       -0.222   1.778   1.450  0.00  0.00    +0.130 C 
ATOM     26  C   LIG    1        0.705   1.128   0.399  0.00  0.00    +0.010 C 
ATOM     27  C   LIG    1        0.250   1.747  -0.942  0.00  0.00    +0.010 C 
ATOM     28  C   LIG    1       -0.901   2.698  -0.545  0.00  0.00    +0.200 C 
ATOM     29  O   LIG    1       -0.654   3.018   0.842  0.00  0.00    -0.360 OA
ENDBRANCH  24  25
ENDBRANCH   3  24
TORSDOF 5
