REMARK  Name = ZINCkj00000kIZaj.0
REMARK                            x       y       z     vdW  Elec       q    Type
REMARK                         _______ _______ _______ _____ _____    ______ ____
ROOT
ATOM      1  S   LIG    1        0.148   0.978   2.736  0.00  0.00    +2.610 S 
ATOM      2  O   LIG    1        1.417   1.608   2.852  0.00  0.00    -0.930 OA
ATOM      3  O   LIG    1        0.017  -0.432   2.854  0.00  0.00    -0.920 OA
ENDROOT
BRANCH   1   4
ATOM      4  N   LIG    1       -0.722   1.578   4.011  0.00  0.00    -0.990 NA
ATOM      5  C   LIG    1       -0.389   2.889   4.574  0.00  0.00    +0.310 C 
BRANCH   4   6
ATOM      6  C   LIG    1       -1.825   0.797   4.576  0.00  0.00    +0.310 C 
BRANCH   6   7
ATOM      7  C   LIG    1       -1.319  -0.009   5.774  0.00  0.00    +0.140 C 
BRANCH   7  12
ATOM      8  C   LIG    1       -5.558  -2.179   8.387  0.00  0.00    +0.150 C 
ATOM      9  C   LIG    1       -4.374  -1.801   7.535  0.00  0.00    -0.210 A 
ATOM     10  C   LIG    1       -3.795  -2.570   6.609  0.00  0.00    +0.210 A 
ATOM     11  N   LIG    1       -2.773  -2.008   5.993  0.00  0.00    -0.460 NA
ATOM     12  C   LIG    1       -2.454  -0.812   6.355  0.00  0.00    +0.030 A 
ATOM     13  S   LIG    1       -3.509  -0.267   7.585  0.00  0.00    +0.130 S 
ENDBRANCH   7  12
ENDBRANCH   6   7
ENDBRANCH   4   6
ENDBRANCH   1   4
BRANCH   1  14
ATOM     14  C   LIG    1       -0.729   1.579   1.267  0.00  0.00    -0.380 C 
BRANCH  14  15
ATOM     15  C   LIG    1       -0.013   1.086   0.008  0.00  0.00    +0.300 C 
BRANCH  15  16
ATOM     16  N   LIG    1       -0.723   1.572  -1.182  0.00  0.00    -0.390 N 
ATOM     17  C   LIG    1        0.013   1.184  -2.412  0.00  0.00    +0.270 C 
ATOM     18  C   LIG    1       -1.079   1.243  -3.511  0.00  0.00    +0.070 C 
ATOM     19  C   LIG    1       -2.334   0.711  -2.782  0.00  0.00    +0.080 C 
ATOM     20  C   LIG    1       -2.050   0.927  -1.284  0.00  0.00    +0.240 C 
ATOM     21  H   LIG    1       -0.827   2.575  -1.140  0.00  0.00    +0.430 HD
ENDBRANCH  15  16
ENDBRANCH  14  15
ENDBRANCH   1  14
TORSDOF 7
