REMARK  Name = ZINCrD0000075yqN.0
REMARK                            x       y       z     vdW  Elec       q    Type
REMARK                         _______ _______ _______ _____ _____    ______ ____
ROOT
ATOM      1  O   LIG    1       -1.782  -2.088  -3.169  0.00  0.00    -0.580 OA
ATOM      2  C   LIG    1       -1.247  -2.683  -2.254  0.00  0.00    +0.700 C 
ATOM      3  N   LIG    1       -1.222  -4.031  -2.250  0.00  0.00    -0.740 N 
ATOM      4  H   LIG    1       -0.795  -4.506  -1.520  0.00  0.00    +0.400 HD
ATOM      5  N   LIG    1       -0.679  -1.996  -1.244  0.00  0.00    -0.750 N 
ATOM      6  H   LIG    1       -0.252  -2.471  -0.513  0.00  0.00    +0.400 HD
ENDROOT
BRANCH   3   7
ATOM      7  C   LIG    1       -1.839  -4.778  -3.348  0.00  0.00    +0.260 C 
ATOM      8  C   LIG    1       -2.243  -6.169  -2.854  0.00  0.00    +0.030 C 
ATOM      9  C   LIG    1       -3.144  -6.847  -3.893  0.00  0.00    +0.150 C 
ATOM     10  C   LIG    1       -2.465  -6.755  -5.239  0.00  0.00    +0.080 A 
ATOM     11  N   LIG    1       -2.717  -7.439  -6.317  0.00  0.00    -0.290 NA
ATOM     12  N   LIG    1       -1.829  -7.017  -7.318  0.00  0.00    -0.480 N 
ATOM     13  H   LIG    1       -1.789  -7.357  -8.226  0.00  0.00    +0.440 HD
ATOM     14  C   LIG    1       -1.037  -6.054  -6.795  0.00  0.00    +0.250 A 
ATOM     15  C   LIG    1       -1.409  -5.872  -5.515  0.00  0.00    -0.230 A 
ATOM     16  C   LIG    1       -0.838  -4.909  -4.503  0.00  0.00    +0.100 C 
ENDBRANCH   3   7
BRANCH   5  17
ATOM     17  C   LIG    1       -0.706  -0.531  -1.248  0.00  0.00    +0.300 C 
BRANCH  17  18
ATOM     18  C   LIG    1        0.002  -0.004   0.002  0.00  0.00    -0.030 C 
ATOM     19  C   LIG    1       -0.019   1.534   0.011  0.00  0.00    +0.040 C 
ATOM     20  C   LIG    1        1.453   1.995  -0.001  0.00  0.00    +0.020 C 
ATOM     21  C   LIG    1        2.221   0.799  -0.616  0.00  0.00    +0.020 C 
ATOM     22  C   LIG    1        1.486  -0.425  -0.014  0.00  0.00    +0.020 C 
BRANCH  18  23
ATOM     23  C   LIG    1       -0.672  -0.536   1.240  0.00  0.00    -0.080 A 
ATOM     24  C   LIG    1       -1.783  -1.350   1.127  0.00  0.00    +0.040 A 
ATOM     25  C   LIG    1       -2.402  -1.839   2.263  0.00  0.00    +0.040 A 
ATOM     26  C   LIG    1       -1.911  -1.516   3.513  0.00  0.00    +0.020 A 
ATOM     27  C   LIG    1       -0.798  -0.701   3.630  0.00  0.00    +0.070 A 
ATOM     28  F   LIG    1       -0.317  -0.384   4.852  0.00  0.00    -0.130 F 
ATOM     29  C   LIG    1       -0.174  -0.215   2.491  0.00  0.00    +0.070 A 
ATOM     30  F   LIG    1        0.916   0.576   2.603  0.00  0.00    -0.120 F 
ENDBRANCH  18  23
ENDBRANCH  17  18
ENDBRANCH   5  17
TORSDOF 4
