REMARK  Name = ZINCfA000000bax8.1
REMARK                            x       y       z     vdW  Elec       q    Type
REMARK                         _______ _______ _______ _____ _____    ______ ____
ROOT
ATOM      1  C   LIG    1       -0.018   1.503   0.010  0.00  0.00    +0.070 A 
ATOM      2  N   LIG    1        1.030   2.256   0.004  0.00  0.00    -0.470 NA
ATOM      3  C   LIG    1        0.833   3.559   0.013  0.00  0.00    +0.000 A 
ATOM      4  C   LIG    1       -0.452   3.925   0.026  0.00  0.00    -0.060 A 
ATOM      5  S   LIG    1       -1.433   2.462   0.021  0.00  0.00    +0.210 S 
ENDROOT
BRANCH   1   7
ATOM      6  C   LIG    1        0.742  -0.511   1.242  0.00  0.00    +0.050 C 
ATOM      7  C   LIG    1        0.002  -0.004   0.002  0.00  0.00    +0.010 C 
ATOM      8  C   LIG    1        0.718  -0.497  -1.257  0.00  0.00    +0.060 C 
ATOM      9  C   LIG    1       -1.433  -0.534   0.013  0.00  0.00    +0.070 C 
ENDBRANCH   1   7
BRANCH   3  10
ATOM     10  C   LIG    1        1.965   4.554   0.006  0.00  0.00    +0.370 C 
BRANCH  10  11
ATOM     11  N   LIG    1        2.425   4.780   1.383  0.00  0.00    -0.390 N 
ATOM     12  C   LIG    1        2.870   3.500   1.991  0.00  0.00    +0.270 C 
ATOM     13  C   LIG    1        3.808   3.958   3.136  0.00  0.00    +0.070 C 
ATOM     14  C   LIG    1        4.532   5.178   2.522  0.00  0.00    +0.060 C 
ATOM     15  C   LIG    1        3.613   5.661   1.385  0.00  0.00    +0.250 C 
ATOM     16  H   LIG    1        1.687   5.190   1.935  0.00  0.00    +0.420 HD
ENDBRANCH  10  11
ENDBRANCH   3  10
TORSDOF 3
