REMARK  Name = ZINCpk0000055Kbl.0
REMARK                            x       y       z     vdW  Elec       q    Type
REMARK                         _______ _______ _______ _____ _____    ______ ____
ROOT
ATOM      1  C   LIG    1       -0.013   1.086   0.008  0.00  0.00    +0.240 C 
ENDROOT
BRANCH   1   2
ATOM      2  N   LIG    1        1.362   1.593  -0.002  0.00  0.00    -0.730 N 
ATOM      3  H   LIG    1        1.583   2.404   0.482  0.00  0.00    +0.400 HD
ATOM      4  C   LIG    1        2.318   0.933  -0.685  0.00  0.00    +0.520 C 
ATOM      5  O   LIG    1        2.042  -0.081  -1.290  0.00  0.00    -0.520 OA
BRANCH   4   6
ATOM      6  C   LIG    1        3.732   1.454  -0.695  0.00  0.00    +0.110 C 
BRANCH   6   7
ATOM      7  C   LIG    1        4.598   0.541  -1.524  0.00  0.00    -0.100 A 
ATOM      8  C   LIG    1        5.329  -0.460  -0.913  0.00  0.00    +0.060 A 
ATOM      9  C   LIG    1        6.120  -1.302  -1.673  0.00  0.00    -0.040 A 
ATOM     10  C   LIG    1        6.191  -1.137  -3.044  0.00  0.00    +0.040 A 
ATOM     11  C   LIG    1        5.466  -0.134  -3.659  0.00  0.00    -0.080 A 
ATOM     12  C   LIG    1        4.668   0.708  -2.899  0.00  0.00    +0.140 A 
BRANCH  12  13
ATOM     13  O   LIG    1        3.955   1.696  -3.501  0.00  0.00    -0.310 OA
ATOM     14  C   LIG    1        4.074   1.809  -4.921  0.00  0.00    +0.250 C 
ENDBRANCH  12  13
ENDBRANCH   6   7
ENDBRANCH   4   6
ENDBRANCH   1   2
BRANCH   1  16
ATOM     15  C   LIG    1       -0.111   0.998  -2.487  0.00  0.00    +0.030 C 
ATOM     16  C   LIG    1       -0.753   1.593  -1.232  0.00  0.00    +0.010 C 
ENDBRANCH   1  16
BRANCH   1  17
ATOM     17  C   LIG    1       -0.729   1.579   1.267  0.00  0.00    +0.270 C 
BRANCH  17  18
ATOM     18  N   LIG    1        0.044   1.196   2.451  0.00  0.00    -0.730 N 
ATOM     19  H   LIG    1        0.874   0.704   2.349  0.00  0.00    +0.400 HD
ATOM     20  C   LIG    1       -0.397   1.526   3.680  0.00  0.00    +0.520 C 
ATOM     21  O   LIG    1       -1.435   2.142   3.807  0.00  0.00    -0.530 OA
BRANCH  20  22
ATOM     22  C   LIG    1        0.398   1.132   4.898  0.00  0.00    +0.000 C 
ATOM     23  C   LIG    1        1.765   1.861   4.912  0.00  0.00    +0.050 C 
ATOM     24  C   LIG    1        2.145   1.843   6.414  0.00  0.00    +0.020 C 
ATOM     25  C   LIG    1        0.807   2.071   7.146  0.00  0.00    -0.010 C 
ATOM     26  C   LIG    1       -0.304   1.619   6.182  0.00  0.00    +0.190 C 
BRANCH  26  27
ATOM     27  O   LIG    1       -1.053   0.550   6.766  0.00  0.00    -0.570 OA
ATOM     28  H   LIG    1       -1.518   0.794   7.578  0.00  0.00    +0.380 HD
ENDBRANCH  26  27
ENDBRANCH  20  22
ENDBRANCH  17  18
ENDBRANCH   1  17
TORSDOF 9
