REMARK  Name = ZINCvU0000000Iov.0
REMARK                            x       y       z     vdW  Elec       q    Type
REMARK                         _______ _______ _______ _____ _____    ______ ____
ROOT
ATOM      1  C   LIG    1       -2.950  -2.343   0.118  0.00  0.00    +0.160 A 
ATOM      2  C   LIG    1       -4.004  -1.641  -0.452  0.00  0.00    +0.010 A 
ATOM      3  C   LIG    1       -5.297  -2.112  -0.329  0.00  0.00    +0.050 A 
ATOM      4  C   LIG    1       -5.546  -3.282   0.361  0.00  0.00    -0.030 A 
ATOM      5  C   LIG    1       -4.496  -3.990   0.934  0.00  0.00    +0.180 A 
ATOM      6  C   LIG    1       -3.196  -3.522   0.807  0.00  0.00    +0.000 A 
ENDROOT
BRANCH   5   7
ATOM      7  N   LIG    1       -4.749  -5.176   1.632  0.00  0.00    -0.680 N 
ATOM      8  H   LIG    1       -5.456  -5.771   1.337  0.00  0.00    +0.410 HD
ATOM      9  C   LIG    1       -4.010  -5.491   2.715  0.00  0.00    +0.700 C 
ATOM     10  N   LIG    1       -4.313  -6.584   3.442  0.00  0.00    -0.680 N 
ATOM     11  H   LIG    1       -5.012  -7.187   3.144  0.00  0.00    +0.410 HD
ATOM     12  O   LIG    1       -3.071  -4.788   3.035  0.00  0.00    -0.550 OA
BRANCH  10  13
ATOM     13  C   LIG    1       -3.620  -6.850   4.628  0.00  0.00    +0.160 A 
ATOM     14  C   LIG    1       -3.356  -8.161   5.001  0.00  0.00    -0.020 A 
ATOM     15  C   LIG    1       -2.668  -8.420   6.170  0.00  0.00    +0.030 A 
ATOM     16  C   LIG    1       -2.249  -7.375   6.974  0.00  0.00    -0.010 A 
ATOM     17  C   LIG    1       -2.515  -6.068   6.608  0.00  0.00    +0.030 A 
ATOM     18  C   LIG    1       -3.199  -5.803   5.438  0.00  0.00    +0.010 A 
ENDBRANCH  10  13
ENDBRANCH   5   7
BRANCH   1  20
ATOM     19  C   LIG    1       -1.404  -0.538  -0.001  0.00  0.00    +0.520 C 
ATOM     20  N   LIG    1       -1.641  -1.865  -0.006  0.00  0.00    -0.670 N 
ATOM     21  H   LIG    1       -0.903  -2.489  -0.097  0.00  0.00    +0.410 HD
ATOM     22  O   LIG    1       -2.332   0.243   0.028  0.00  0.00    -0.520 OA
BRANCH  19  23
ATOM     23  C   LIG    1        0.012  -0.025  -0.030  0.00  0.00    +0.080 C 
BRANCH  23  24
ATOM     24  C   LIG    1        0.001   1.505  -0.017  0.00  0.00    +0.070 C 
BRANCH  24  25
ATOM     25  C   LIG    1        1.417   2.018  -0.046  0.00  0.00    +0.400 C 
ATOM     26  O   LIG    1        2.345   1.237  -0.075  0.00  0.00    -0.450 OA
BRANCH  25  30
ATOM     27  C   LIG    1        2.161   6.194  -0.028  0.00  0.00    -0.050 A 
ATOM     28  C   LIG    1        3.222   5.306  -0.062  0.00  0.00    +0.000 A 
ATOM     29  C   LIG    1        2.989   3.947  -0.068  0.00  0.00    +0.070 A 
ATOM     30  C   LIG    1        1.675   3.467  -0.040  0.00  0.00    -0.180 A 
ATOM     31  C   LIG    1        0.609   4.371  -0.013  0.00  0.00    +0.060 A 
ATOM     32  C   LIG    1        0.859   5.727  -0.001  0.00  0.00    +0.000 A 
BRANCH  27  34
ATOM     33  C   LIG    1        2.480   8.192  -1.462  0.00  0.00    +0.030 C 
ATOM     34  C   LIG    1        2.425   7.678  -0.022  0.00  0.00    +0.070 C 
ENDBRANCH  27  34
ENDBRANCH  25  30
ENDBRANCH  24  25
ENDBRANCH  23  24
ENDBRANCH  19  23
ENDBRANCH   1  20
TORSDOF 8
