REMARK  Name = ZINCvU0000000HmS.0
REMARK                            x       y       z     vdW  Elec       q    Type
REMARK                         _______ _______ _______ _____ _____    ______ ____
ROOT
ATOM      1  N   LIG    1        1.831  -4.369   4.882  0.00  0.00    -0.660 N 
ATOM      2  H   LIG    1        2.034  -4.715   5.765  0.00  0.00    +0.410 HD
ATOM      3  C   LIG    1        1.743  -5.210   3.833  0.00  0.00    +0.560 C 
ATOM      4  O   LIG    1        1.585  -4.768   2.712  0.00  0.00    -0.490 OA
ENDROOT
BRANCH   3   5
ATOM      5  C   LIG    1        1.841  -6.675   4.046  0.00  0.00    -0.030 A 
ATOM      6  C   LIG    1        1.746  -7.549   2.975  0.00  0.00    +0.010 A 
ATOM      7  C   LIG    1        1.846  -8.934   3.202  0.00  0.00    +0.520 A 
ATOM      8  N   LIG    1        2.022  -9.408   4.449  0.00  0.00    -0.600 N 
ATOM      9  H   LIG    1        2.086 -10.365   4.593  0.00  0.00    +0.420 HD
ATOM     10  C   LIG    1        2.111  -8.560   5.518  0.00  0.00    +0.220 A 
ATOM     11  O   LIG    1        1.768  -9.710   2.264  0.00  0.00    -0.530 OA
ATOM     12  C   LIG    1        2.024  -7.197   5.340  0.00  0.00    -0.060 A 
BRANCH  10  13
ATOM     13  C   LIG    1        2.304  -9.110   6.875  0.00  0.00    -0.080 A 
ATOM     14  C   LIG    1        2.403  -8.252   7.972  0.00  0.00    +0.050 A 
ATOM     15  C   LIG    1        2.577  -8.773   9.238  0.00  0.00    +0.010 A 
ATOM     16  C   LIG    1        2.665 -10.142   9.420  0.00  0.00    +0.030 A 
ATOM     17  C   LIG    1        2.574 -10.998   8.336  0.00  0.00    +0.020 A 
ATOM     18  C   LIG    1        2.394 -10.491   7.066  0.00  0.00    +0.020 A 
ENDBRANCH  10  13
ENDBRANCH   3   5
BRANCH   1  23
ATOM     19  C   LIG    1        0.529  -1.194   3.563  0.00  0.00    -0.070 A 
ATOM     20  C   LIG    1        1.230  -0.284   4.334  0.00  0.00    +0.020 A 
ATOM     21  C   LIG    1        2.130  -0.727   5.286  0.00  0.00    +0.030 A 
ATOM     22  C   LIG    1        2.331  -2.081   5.470  0.00  0.00    -0.010 A 
ATOM     23  C   LIG    1        1.629  -2.998   4.698  0.00  0.00    +0.140 A 
ATOM     24  C   LIG    1        0.723  -2.549   3.746  0.00  0.00    +0.040 A 
BRANCH  19  25
ATOM     25  C   LIG    1       -0.450  -0.706   2.527  0.00  0.00    +0.220 C 
BRANCH  25  26
ATOM     26  O   LIG    1        0.225  -0.530   1.280  0.00  0.00    -0.360 OA
BRANCH  26  32
ATOM     27  C   LIG    1        1.850  -0.620  -2.679  0.00  0.00    +0.000 C 
ATOM     28  C   LIG    1        1.329  -0.091  -1.342  0.00  0.00    -0.010 C 
ATOM     29  C   LIG    1        1.330   1.439  -1.363  0.00  0.00    +0.010 C 
ATOM     30  C   LIG    1        0.809   1.968  -0.025  0.00  0.00    +0.020 C 
ATOM     31  C   LIG    1       -0.617   1.462   0.202  0.00  0.00    -0.010 C 
ATOM     32  C   LIG    1       -0.619  -0.067   0.223  0.00  0.00    +0.150 C 
ATOM     33  C   LIG    1       -0.097  -0.596  -1.115  0.00  0.00    +0.030 C 
ENDBRANCH  26  32
ENDBRANCH  25  26
ENDBRANCH  19  25
ENDBRANCH   1  23
TORSDOF 6
