REMARK  Name = ZINCpk000000oXNp.0
REMARK                            x       y       z     vdW  Elec       q    Type
REMARK                         _______ _______ _______ _____ _____    ______ ____
ROOT
ATOM      1  C   LIG    1       -2.905   0.750   3.443  0.00  0.00    +0.510 C 
ATOM      2  O   LIG    1       -2.360  -0.332   3.351  0.00  0.00    -0.500 OA
ENDROOT
BRANCH   1   3
ATOM      3  C   LIG    1       -3.581   1.131   4.698  0.00  0.00    -0.120 A 
ATOM      4  C   LIG    1       -4.204   2.377   4.808  0.00  0.00    +0.130 A 
ATOM      5  C   LIG    1       -4.839   2.726   5.979  0.00  0.00    +0.010 A 
ATOM      6  C   LIG    1       -4.851   1.846   7.055  0.00  0.00    +0.170 A 
ATOM      7  C   LIG    1       -4.228   0.607   6.952  0.00  0.00    +0.040 A 
ATOM      8  C   LIG    1       -3.595   0.248   5.782  0.00  0.00    +0.130 A 
BRANCH   6   9
ATOM      9  N   LIG    1       -5.492   2.207   8.246  0.00  0.00    -0.340 N 
ATOM     10  C   LIG    1       -6.136   3.365   8.513  0.00  0.00    +0.470 A 
ATOM     11  N   LIG    1       -6.588   3.284   9.736  0.00  0.00    -0.320 NA
ATOM     12  N   LIG    1       -6.267   2.158  10.264  0.00  0.00    -0.030 NA
ATOM     13  N   LIG    1       -5.599   1.446   9.423  0.00  0.00    -0.070 NA
ENDBRANCH   6   9
ENDBRANCH   1   3
BRANCH   1  14
ATOM     14  O   LIG    1       -2.892   1.602   2.400  0.00  0.00    -0.350 OA
BRANCH  14  19
ATOM     15  C   LIG    1       -0.078   2.261  -2.138  0.00  0.00    +0.650 C 
ATOM     16  N   LIG    1       -0.729   1.575  -1.178  0.00  0.00    -0.600 N 
ATOM     17  C   LIG    1       -0.013   1.086   0.008  0.00  0.00    +0.320 C 
ATOM     18  C   LIG    1       -0.736   1.583   1.264  0.00  0.00    +0.020 C 
ATOM     19  C   LIG    1       -2.208   1.161   1.197  0.00  0.00    +0.180 C 
ATOM     20  C   LIG    1       -2.869   1.797  -0.028  0.00  0.00    +0.040 C 
ATOM     21  C   LIG    1       -2.168   1.303  -1.297  0.00  0.00    +0.300 C 
ATOM     22  O   LIG    1        1.112   2.480  -2.028  0.00  0.00    -0.570 OA
BRANCH  15  23
ATOM     23  O   LIG    1       -0.747   2.704  -3.220  0.00  0.00    -0.370 OA
BRANCH  23  25
ATOM     24  C   LIG    1       -0.905   3.854  -5.360  0.00  0.00    +0.070 C 
ATOM     25  C   LIG    1        0.018   3.435  -4.214  0.00  0.00    +0.220 C 
ENDBRANCH  23  25
ENDBRANCH  15  23
ENDBRANCH  14  19
ENDBRANCH   1  14
TORSDOF 6
