REMARK  Name = ZINCpk00000RCssl.0
REMARK                            x       y       z     vdW  Elec       q    Type
REMARK                         _______ _______ _______ _____ _____    ______ ____
ROOT
ATOM      1  N   LIG    1        3.949   2.664  -1.377  0.00  0.00    -0.990 NA
ATOM      2  C   LIG    1        3.370   3.925  -1.883  0.00  0.00    +0.290 C 
ATOM      3  C   LIG    1        1.845   3.808  -1.923  0.00  0.00    +0.190 C 
ATOM      4  O   LIG    1        1.352   4.470  -3.090  0.00  0.00    -0.360 OA
ATOM      5  C   LIG    1        0.860   3.594  -4.103  0.00  0.00    +0.250 C 
ATOM      6  C   LIG    1        1.955   2.650  -4.532  0.00  0.00    +0.480 C 
ATOM      7  N   LIG    1        2.042   1.431  -3.933  0.00  0.00    -0.750 N 
ATOM      8  H   LIG    1        1.348   1.105  -3.336  0.00  0.00    +0.410 HD
ATOM      9  C   LIG    1        3.255   0.635  -4.209  0.00  0.00    +0.330 C 
ATOM     10  C   LIG    1        3.966   0.359  -2.882  0.00  0.00    -0.380 C 
ATOM     11  O   LIG    1        2.737   2.973  -5.399  0.00  0.00    -0.490 OA
ATOM     12  S   LIG    1        4.944   1.810  -2.406  0.00  0.00    +2.590 S 
ATOM     13  O   LIG    1        6.042   1.422  -1.589  0.00  0.00    -0.950 OA
ATOM     14  O   LIG    1        5.136   2.672  -3.519  0.00  0.00    -0.930 OA
ENDROOT
BRANCH   1  15
ATOM     15  C   LIG    1        3.671   2.188  -0.017  0.00  0.00    +0.360 C 
BRANCH  15  19
ATOM     16  C   LIG    1        0.002  -0.004   0.003  0.00  0.00    +0.150 A 
ATOM     17  C   LIG    1       -0.004   1.364   0.230  0.00  0.00    -0.060 A 
ATOM     18  C   LIG    1        1.183   2.070   0.223  0.00  0.00    +0.080 A 
ATOM     19  C   LIG    1        2.378   1.415  -0.009  0.00  0.00    -0.140 A 
ATOM     20  C   LIG    1        2.388   0.050  -0.236  0.00  0.00    +0.060 A 
ATOM     21  C   LIG    1        1.203  -0.661  -0.231  0.00  0.00    -0.070 A 
ATOM     22 CL   LIG    1        1.216  -2.373  -0.515  0.00  0.00    -0.050 Cl
BRANCH  16  23
ATOM     23  O   LIG    1       -1.165  -0.701   0.009  0.00  0.00    -0.300 OA
BRANCH  23  25
ATOM     24  C   LIG    1       -3.532  -0.731  -0.478  0.00  0.00    +0.070 C 
ATOM     25  C   LIG    1       -2.371   0.055   0.135  0.00  0.00    +0.160 C 
ATOM     26  C   LIG    1       -2.657   0.316   1.615  0.00  0.00    +0.030 C 
ENDBRANCH  23  25
ENDBRANCH  16  23
ENDBRANCH  15  19
ENDBRANCH   1  15
TORSDOF 4
