REMARK  Name = ZINCqH0000004z7I.0
REMARK                            x       y       z     vdW  Elec       q    Type
REMARK                         _______ _______ _______ _____ _____    ______ ____
ROOT
ATOM      1  C   LIG    1       -1.180  -0.871   0.009  0.00  0.00    +0.600 C 
ATOM      2  N   LIG    1       -2.410  -0.327  -0.077  0.00  0.00    -0.610 N 
ATOM      3  C   LIG    1       -2.579   1.130  -0.174  0.00  0.00    +0.290 C 
ATOM      4  C   LIG    1       -3.538   1.593   0.922  0.00  0.00    +0.030 C 
ATOM      5  C   LIG    1       -4.843   0.800   0.823  0.00  0.00    -0.010 C 
ATOM      6  C   LIG    1       -4.555  -0.689   1.028  0.00  0.00    +0.060 C 
ATOM      7  C   LIG    1       -3.607  -1.178  -0.071  0.00  0.00    +0.270 C 
ATOM      8  O   LIG    1       -0.204  -0.153   0.122  0.00  0.00    -0.530 OA
ENDROOT
BRANCH   1  12
ATOM      9  C   LIG    1       -0.116  -4.389   0.388  0.00  0.00    -0.120 A 
ATOM     10  C   LIG    1       -1.137  -4.782  -0.382  0.00  0.00    -0.200 A 
ATOM     11  S   LIG    1       -2.063  -3.445  -0.898  0.00  0.00    +0.210 S 
ATOM     12  C   LIG    1       -1.018  -2.327  -0.032  0.00  0.00    -0.280 A 
ATOM     13  C   LIG    1       -1.430  -6.215  -0.746  0.00  0.00    +0.140 C 
ATOM     14  C   LIG    1       -0.031  -3.033   0.596  0.00  0.00    +0.110 A 
BRANCH   9  16
ATOM     15  C   LIG    1        1.970  -5.661  -0.035  0.00  0.00    +0.020 C 
ATOM     16  C   LIG    1        0.869  -5.362   0.984  0.00  0.00    +0.080 C 
ENDBRANCH   9  16
ENDBRANCH   1  12
BRANCH   5  17
ATOM     17  C   LIG    1       -5.802   1.277   1.883  0.00  0.00    +0.520 C 
ATOM     18  N   LIG    1       -6.202   2.564   1.901  0.00  0.00    -0.730 N 
ATOM     19  H   LIG    1       -5.873   3.183   1.231  0.00  0.00    +0.400 HD
ATOM     20  O   LIG    1       -6.214   0.502   2.721  0.00  0.00    -0.530 OA
BRANCH  18  21
ATOM     21  C   LIG    1       -7.134   3.027   2.932  0.00  0.00    +0.320 C 
BRANCH  21  22
ATOM     22  C   LIG    1       -7.418   4.493   2.729  0.00  0.00    -0.110 A 
ATOM     23  C   LIG    1       -6.629   5.443   3.351  0.00  0.00    +0.020 A 
ATOM     24  C   LIG    1       -6.887   6.787   3.162  0.00  0.00    +0.010 A 
ATOM     25  C   LIG    1       -7.941   7.183   2.359  0.00  0.00    +0.010 A 
ATOM     26  C   LIG    1       -8.733   6.233   1.741  0.00  0.00    +0.010 A 
ATOM     27  C   LIG    1       -8.472   4.888   1.927  0.00  0.00    +0.020 A 
ENDBRANCH  21  22
ENDBRANCH  18  21
ENDBRANCH   5  17
TORSDOF 5
