REMARK  Name = ZINCqH0000000pn5.0
REMARK                            x       y       z     vdW  Elec       q    Type
REMARK                         _______ _______ _______ _____ _____    ______ ____
ROOT
ATOM      1  C   LIG    1        4.056  -4.217  -1.515  0.00  0.00    +0.080 C 
ATOM      2  C   LIG    1        2.665  -3.760  -1.159  0.00  0.00    +0.520 C 
ATOM      3  N   LIG    1        2.491  -2.740  -0.295  0.00  0.00    -0.610 N 
ATOM      4  C   LIG    1        3.634  -2.110   0.386  0.00  0.00    +0.270 C 
ATOM      5  C   LIG    1        3.721  -0.659  -0.086  0.00  0.00    +0.070 C 
ATOM      6  C   LIG    1        2.369   0.004  -0.032  0.00  0.00    -0.070 A 
ATOM      7  C   LIG    1        2.333   1.392  -0.019  0.00  0.00    +0.000 A 
ATOM      8  C   LIG    1        1.128   2.063   0.014  0.00  0.00    +0.000 A 
ATOM      9  C   LIG    1       -0.055   1.349   0.037  0.00  0.00    +0.000 A 
ATOM     10  C   LIG    1       -0.022  -0.030   0.031  0.00  0.00    +0.010 A 
ATOM     11  C   LIG    1        1.190  -0.706  -0.003  0.00  0.00    -0.090 A 
ATOM     12  C   LIG    1        1.155  -2.214   0.004  0.00  0.00    +0.310 C 
ATOM     13  O   LIG    1        1.702  -4.310  -1.651  0.00  0.00    -0.500 OA
ENDROOT
BRANCH  12  14
ATOM     14  C   LIG    1        0.711  -2.706   1.383  0.00  0.00    +0.050 C 
BRANCH  14  15
ATOM     15  C   LIG    1        0.558  -4.205   1.356  0.00  0.00    +0.510 C 
ATOM     16  N   LIG    1        0.172  -4.864   2.467  0.00  0.00    -0.610 N 
ATOM     17  C   LIG    1       -0.098  -4.139   3.718  0.00  0.00    +0.280 C 
ATOM     18  C   LIG    1       -1.589  -4.294   4.053  0.00  0.00    +0.110 C 
ATOM     19  C   LIG    1       -1.988  -5.743   3.873  0.00  0.00    -0.170 A 
ATOM     20  C   LIG    1       -1.293  -6.656   3.168  0.00  0.00    -0.110 A 
ATOM     21  C   LIG    1       -1.881  -7.917   3.149  0.00  0.00    +0.020 A 
ATOM     22  C   LIG    1       -3.020  -8.031   3.823  0.00  0.00    -0.040 A 
ATOM     23  S   LIG    1       -3.433  -6.485   4.550  0.00  0.00    +0.100 S 
ATOM     24  C   LIG    1        0.017  -6.325   2.462  0.00  0.00    +0.320 C 
ATOM     25  C   LIG    1        1.186  -6.973   3.205  0.00  0.00    +0.040 C 
ATOM     26  O   LIG    1        0.781  -4.819   0.334  0.00  0.00    -0.490 OA
ENDBRANCH  14  15
ENDBRANCH  12  14
TORSDOF 2
