REMARK  Name = ZINCqH0000035K0f.0
REMARK                            x       y       z     vdW  Elec       q    Type
REMARK                         _______ _______ _______ _____ _____    ______ ____
ROOT
ATOM      1  N   LIG    1       -1.240   2.067   0.019  0.00  0.00    -0.680 N 
ATOM      2  H   LIG    1       -2.072   1.573  -0.047  0.00  0.00    +0.410 HD
ATOM      3  C   LIG    1       -1.260   3.411   0.128  0.00  0.00    +0.710 C 
ATOM      4  N   LIG    1       -2.436   4.060   0.239  0.00  0.00    -0.740 N 
ATOM      5  H   LIG    1       -3.268   3.561   0.240  0.00  0.00    +0.400 HD
ATOM      6  O   LIG    1       -0.218   4.037   0.127  0.00  0.00    -0.560 OA
ENDROOT
BRANCH   1   9
ATOM      7  C   LIG    1        1.297  -0.544   0.575  0.00  0.00    +0.170 A 
ATOM      8  C   LIG    1        0.089   0.135   0.597  0.00  0.00    -0.120 A 
ATOM      9  C   LIG    1       -0.017   1.385   0.002  0.00  0.00    +0.240 A 
ATOM     10  C   LIG    1        1.088   1.956  -0.616  0.00  0.00    -0.070 A 
ATOM     11  C   LIG    1        2.297   1.278  -0.638  0.00  0.00    +0.170 A 
ATOM     12  C   LIG    1        2.403   0.027  -0.043  0.00  0.00    +0.010 A 
BRANCH   7  14
ATOM     13  C   LIG    1        0.223  -2.295   1.773  0.00  0.00    +0.240 C 
ATOM     14  O   LIG    1        1.400  -1.769   1.157  0.00  0.00    -0.300 OA
ENDBRANCH   7  14
BRANCH  11  15
ATOM     15  O   LIG    1        3.379   1.838  -1.243  0.00  0.00    -0.300 OA
ATOM     16  C   LIG    1        3.197   3.126  -1.834  0.00  0.00    +0.240 C 
ENDBRANCH  11  15
BRANCH  12  17
ATOM     17  O   LIG    1        3.591  -0.639  -0.065  0.00  0.00    -0.310 OA
ATOM     18  C   LIG    1        3.826  -1.508  -1.175  0.00  0.00    +0.200 C 
ENDBRANCH  12  17
ENDBRANCH   1   9
BRANCH   4  19
ATOM     19  C   LIG    1       -2.458   5.520   0.358  0.00  0.00    +0.320 C 
BRANCH  19  20
ATOM     20  C   LIG    1       -3.907   6.001   0.468  0.00  0.00    +0.070 C 
BRANCH  20  21
ATOM     21  S   LIG    1       -3.934   7.808   0.615  0.00  0.00    -0.220 S 
BRANCH  21  22
ATOM     22  C   LIG    1       -5.706   8.181   0.733  0.00  0.00    +0.130 C 
BRANCH  22  23
ATOM     23  C   LIG    1       -5.898   9.670   0.862  0.00  0.00    -0.080 A 
ATOM     24  C   LIG    1       -5.933  10.257   2.114  0.00  0.00    +0.020 A 
ATOM     25  C   LIG    1       -6.104  11.623   2.232  0.00  0.00    +0.010 A 
ATOM     26  C   LIG    1       -6.252  12.402   1.100  0.00  0.00    +0.010 A 
ATOM     27  C   LIG    1       -6.222  11.815  -0.151  0.00  0.00    +0.010 A 
ATOM     28  C   LIG    1       -6.045  10.449  -0.270  0.00  0.00    +0.020 A 
ENDBRANCH  22  23
ENDBRANCH  21  22
ENDBRANCH  20  21
ENDBRANCH  19  20
ENDBRANCH   4  19
TORSDOF 9
