REMARK  Name = ZINCpk00000xI6Dy.0
REMARK                            x       y       z     vdW  Elec       q    Type
REMARK                         _______ _______ _______ _____ _____    ______ ____
ROOT
ATOM      1  C   LIG    1        0.602  -0.603  -1.048  0.00  0.00    +0.510 C 
ATOM      2  O   LIG    1        1.094   0.071  -1.933  0.00  0.00    -0.510 OA
ENDROOT
BRANCH   1   3
ATOM      3  C   LIG    1        0.657  -2.018  -1.121  0.00  0.00    -0.060 C 
ATOM      4  C   LIG    1        1.257  -2.617  -2.172  0.00  0.00    +0.170 C 
BRANCH   4   5
ATOM      5  C   LIG    1        1.315  -4.083  -2.247  0.00  0.00    -0.070 A 
ATOM      6  C   LIG    1        0.749  -4.863  -1.231  0.00  0.00    +0.020 A 
ATOM      7  C   LIG    1        0.806  -6.237  -1.306  0.00  0.00    +0.050 A 
ATOM      8  C   LIG    1        1.419  -6.855  -2.384  0.00  0.00    -0.040 A 
ATOM      9  C   LIG    1        1.984  -6.098  -3.397  0.00  0.00    +0.110 A 
ATOM     10  C   LIG    1        1.932  -4.710  -3.340  0.00  0.00    +0.090 A 
BRANCH   9  11
ATOM     11  O   LIG    1        2.585  -6.713  -4.451  0.00  0.00    -0.310 OA
ATOM     12  C   LIG    1        2.597  -8.142  -4.448  0.00  0.00    +0.240 C 
ENDBRANCH   9  11
BRANCH  10  13
ATOM     13  O   LIG    1        2.480  -3.965  -4.334  0.00  0.00    -0.320 OA
ATOM     14  C   LIG    1        3.853  -3.597  -4.188  0.00  0.00    +0.230 C 
ENDBRANCH  10  13
ENDBRANCH   4   5
ENDBRANCH   1   3
BRANCH   1  15
ATOM     15  O   LIG    1        0.002  -0.004   0.002  0.00  0.00    -0.330 OA
BRANCH  15  16
ATOM     16  C   LIG    1       -0.017   1.425   0.010  0.00  0.00    +0.270 C 
BRANCH  16  22
ATOM     17  N   LIG    1       -1.632   4.990   2.802  0.00  0.00    -0.740 N 
ATOM     18  H   LIG    1       -1.278   5.628   2.164  0.00  0.00    +0.400 HD
ATOM     19  C   LIG    1       -1.493   3.667   2.580  0.00  0.00    +0.690 C 
ATOM     20  N   LIG    1       -0.862   3.233   1.472  0.00  0.00    -0.690 N 
ATOM     21  H   LIG    1       -0.508   3.872   0.833  0.00  0.00    +0.410 HD
ATOM     22  C   LIG    1       -0.723   1.911   1.250  0.00  0.00    +0.520 C 
ATOM     23  O   LIG    1       -1.165   1.113   2.048  0.00  0.00    -0.440 OA
ATOM     24  O   LIG    1       -1.936   2.867   3.380  0.00  0.00    -0.530 OA
BRANCH  17  25
ATOM     25  C   LIG    1       -2.317   5.462   4.007  0.00  0.00    +0.270 C 
BRANCH  25  27
ATOM     26  C   LIG    1       -3.054   7.485   5.275  0.00  0.00    +0.030 C 
ATOM     27  C   LIG    1       -2.338   6.992   4.016  0.00  0.00    +0.000 C 
ENDBRANCH  25  27
ENDBRANCH  17  25
ENDBRANCH  16  22
ENDBRANCH  15  16
ENDBRANCH   1  15
TORSDOF 9
