REMARK  Name = ZINCrH000004tM5E.0
REMARK                            x       y       z     vdW  Elec       q    Type
REMARK                         _______ _______ _______ _____ _____    ______ ____
ROOT
ATOM      1  N   LIG    1       -1.127   1.981   1.632  0.00  0.00    -0.520 NA
ATOM      2  C   LIG    1       -2.479   1.434   1.802  0.00  0.00    +0.170 C 
ATOM      3  C   LIG    1       -3.406   2.019   0.734  0.00  0.00    +0.040 C 
ATOM      4  C   LIG    1       -2.864   1.667  -0.654  0.00  0.00    +0.020 C 
ATOM      5  C   LIG    1       -1.437   2.207  -0.788  0.00  0.00    +0.010 C 
ATOM      6  C   LIG    1       -0.567   1.616   0.324  0.00  0.00    +0.220 C 
ENDROOT
BRANCH   5   7
ATOM      7  C   LIG    1       -0.874   1.814  -2.129  0.00  0.00    +0.520 C 
ATOM      8  N   LIG    1       -1.481   2.224  -3.261  0.00  0.00    -0.670 N 
ATOM      9  H   LIG    1       -2.315   2.716  -3.213  0.00  0.00    +0.410 HD
ATOM     10  O   LIG    1        0.125   1.129  -2.191  0.00  0.00    -0.520 OA
BRANCH   8  11
ATOM     11  C   LIG    1       -0.906   1.940  -4.505  0.00  0.00    +0.140 A 
ATOM     12  C   LIG    1       -1.018   2.851  -5.547  0.00  0.00    -0.020 A 
ATOM     13  C   LIG    1       -0.445   2.570  -6.772  0.00  0.00    +0.030 A 
ATOM     14  C   LIG    1        0.229   1.378  -6.965  0.00  0.00    -0.010 A 
ATOM     15  C   LIG    1        0.337   0.466  -5.931  0.00  0.00    +0.030 A 
ATOM     16  C   LIG    1       -0.229   0.744  -4.702  0.00  0.00    +0.020 A 
ENDBRANCH   8  11
ENDBRANCH   5   7
BRANCH   1  17
ATOM     17  C   LIG    1       -0.243   1.549   2.722  0.00  0.00    +0.220 C 
BRANCH  17  19
ATOM     18  O   LIG    1       -1.696   2.865   4.037  0.00  0.00    -0.490 OA
ATOM     19  C   LIG    1       -0.718   2.148   4.021  0.00  0.00    +0.520 C 
ATOM     20  N   LIG    1       -0.055   1.888   5.165  0.00  0.00    -0.670 N 
ATOM     21  H   LIG    1        0.764   1.370   5.144  0.00  0.00    +0.420 HD
BRANCH  20  22
ATOM     22  C   LIG    1       -0.550   2.366   6.385  0.00  0.00    +0.130 A 
ATOM     23  C   LIG    1       -1.196   3.593   6.441  0.00  0.00    +0.070 A 
ATOM     24  C   LIG    1       -1.687   4.060   7.646  0.00  0.00    -0.030 A 
ATOM     25  C   LIG    1       -1.527   3.311   8.798  0.00  0.00    +0.050 A 
ATOM     26  C   LIG    1       -0.879   2.090   8.748  0.00  0.00    +0.030 A 
ATOM     27 CL   LIG    1       -2.500   5.593   7.715  0.00  0.00    -0.050 Cl
ATOM     28  C   LIG    1       -0.390   1.615   7.545  0.00  0.00    +0.080 A 
ATOM     29  F   LIG    1        0.243   0.422   7.496  0.00  0.00    -0.130 F 
ENDBRANCH  20  22
ENDBRANCH  17  19
ENDBRANCH   1  17
TORSDOF 5
