REMARK  Name = ZINCrH000008uzlx.0
REMARK                            x       y       z     vdW  Elec       q    Type
REMARK                         _______ _______ _______ _____ _____    ______ ____
ROOT
ATOM      1  C   LIG    1        5.068   2.898  -2.065  0.00  0.00    +0.150 A 
ATOM      2  C   LIG    1        4.304   2.474  -0.986  0.00  0.00    +0.050 A 
ATOM      3  C   LIG    1        3.293   1.552  -1.177  0.00  0.00    -0.090 A 
ATOM      4  C   LIG    1        3.036   1.059  -2.443  0.00  0.00    -0.010 A 
ATOM      5  C   LIG    1        3.793   1.482  -3.520  0.00  0.00    +0.030 A 
ATOM      6  C   LIG    1        4.808   2.400  -3.335  0.00  0.00    -0.110 A 
ATOM      7  C   LIG    1        5.632   2.861  -4.510  0.00  0.00    +0.080 C 
ENDROOT
BRANCH   1   9
ATOM      8  C   LIG    1        6.683   3.945  -0.666  0.00  0.00    +0.520 C 
ATOM      9  N   LIG    1        6.096   3.828  -1.874  0.00  0.00    -0.670 N 
ATOM     10  H   LIG    1        6.385   4.389  -2.610  0.00  0.00    +0.410 HD
ATOM     11  O   LIG    1        6.392   3.178   0.227  0.00  0.00    -0.510 OA
BRANCH   8  12
ATOM     12  C   LIG    1        7.701   5.030  -0.425  0.00  0.00    +0.050 C 
BRANCH  12  13
ATOM     13  C   LIG    1        8.209   4.942   1.015  0.00  0.00    +0.130 C 
BRANCH  13  14
ATOM     14  C   LIG    1        9.242   6.043   1.260  0.00  0.00    +0.040 C 
ATOM     15  N   LIG    1        9.213   7.234   0.407  0.00  0.00    -0.120 NA
ATOM     16  N   LIG    1       10.126   6.433   0.158  0.00  0.00    -0.120 NA
BRANCH  14  17
ATOM     17  C   LIG    1        9.757   6.181   2.694  0.00  0.00    +0.120 C 
BRANCH  17  18
ATOM     18  C   LIG    1       10.776   7.320   2.763  0.00  0.00    +0.160 C 
BRANCH  18  20
ATOM     19  C   LIG    1       11.665   7.559   5.244  0.00  0.00    +0.030 C 
ATOM     20  C   LIG    1       11.270   7.453   4.143  0.00  0.00    -0.190 C 
ENDBRANCH  18  20
ENDBRANCH  17  18
ENDBRANCH  14  17
ENDBRANCH  13  14
ENDBRANCH  12  13
ENDBRANCH   8  12
ENDBRANCH   1   9
BRANCH   3  21
ATOM     21  C   LIG    1        2.466   1.089  -0.006  0.00  0.00    +0.330 C 
BRANCH  21  22
ATOM     22  C   LIG    1        1.156   1.833   0.010  0.00  0.00    +0.100 A 
ATOM     23  C   LIG    1       -0.032   1.127   0.020  0.00  0.00    -0.030 A 
ATOM     24  C   LIG    1       -1.232   1.822   0.029  0.00  0.00    +0.070 A 
ATOM     25  C   LIG    1       -1.191   3.208   0.038  0.00  0.00    -0.030 A 
ATOM     26  C   LIG    1        0.035   3.846   0.028  0.00  0.00    +0.260 A 
ATOM     27  N   LIG    1        1.156   3.152   0.014  0.00  0.00    -0.470 NA
ENDBRANCH  21  22
BRANCH  21  28
ATOM     28  O   LIG    1        2.215  -0.313  -0.126  0.00  0.00    -0.540 OA
ATOM     29  H   LIG    1        1.736  -0.560  -0.929  0.00  0.00    +0.380 HD
ENDBRANCH  21  28
ENDBRANCH   3  21
TORSDOF 10
