REMARK  Name = ZINCrD000000Btlx.0
REMARK                            x       y       z     vdW  Elec       q    Type
REMARK                         _______ _______ _______ _____ _____    ______ ____
ROOT
ATOM      1  C   LIG    1       -0.331   1.313   4.864  0.00  0.00    +0.310 C 
ENDROOT
BRANCH   1   2
ATOM      2  C   LIG    1       -1.623   1.168   5.626  0.00  0.00    +0.520 C 
ATOM      3  N   LIG    1       -1.694   0.332   6.680  0.00  0.00    -0.600 N 
ATOM      4  C   LIG    1       -0.496  -0.368   7.163  0.00  0.00    +0.270 C 
ATOM      5  C   LIG    1       -0.337  -0.086   8.665  0.00  0.00    +0.020 C 
ATOM      6  C   LIG    1       -1.627  -0.476   9.390  0.00  0.00    +0.020 C 
ATOM      7  C   LIG    1       -2.787   0.370   8.861  0.00  0.00    +0.010 C 
ATOM      8  C   LIG    1       -2.973   0.098   7.365  0.00  0.00    +0.270 C 
ATOM      9  O   LIG    1       -2.599   1.804   5.290  0.00  0.00    -0.530 OA
ENDBRANCH   1   2
BRANCH   1  12
ATOM     10  O   LIG    1        1.306   0.805   2.782  0.00  0.00    -0.580 OA
ATOM     11  C   LIG    1        0.266   1.368   2.502  0.00  0.00    +0.710 C 
ATOM     12  N   LIG    1       -0.621   1.667   3.473  0.00  0.00    -0.730 N 
ATOM     13  H   LIG    1       -1.451   2.116   3.249  0.00  0.00    +0.410 HD
ATOM     14  N   LIG    1       -0.001   1.694   1.222  0.00  0.00    -0.740 N 
ATOM     15  H   LIG    1       -0.832   2.143   0.999  0.00  0.00    +0.400 HD
BRANCH  14  16
ATOM     16  C   LIG    1        0.962   1.369   0.167  0.00  0.00    +0.340 C 
BRANCH  16  17
ATOM     17  C   LIG    1        0.428   1.836  -1.162  0.00  0.00    -0.150 A 
ATOM     18  C   LIG    1        0.951   2.968  -1.758  0.00  0.00    +0.070 A 
ATOM     19  C   LIG    1        0.462   3.396  -2.978  0.00  0.00    +0.000 A 
ATOM     20  C   LIG    1       -0.552   2.694  -3.603  0.00  0.00    +0.060 A 
ATOM     21  C   LIG    1       -1.077   1.562  -3.008  0.00  0.00    -0.020 A 
ATOM     22  C   LIG    1       -0.583   1.128  -1.790  0.00  0.00    +0.120 A 
ATOM     23  F   LIG    1       -1.091   0.018  -1.211  0.00  0.00    -0.130 F 
ENDBRANCH  16  17
ENDBRANCH  14  16
ENDBRANCH   1  12
BRANCH   1  24
ATOM     24  C   LIG    1        0.505   2.397   5.495  0.00  0.00    -0.100 A 
ATOM     25  C   LIG    1        0.148   3.723   5.339  0.00  0.00    +0.030 A 
ATOM     26  C   LIG    1        0.913   4.717   5.920  0.00  0.00    +0.000 A 
ATOM     27  C   LIG    1        2.039   4.385   6.650  0.00  0.00    +0.010 A 
ATOM     28  C   LIG    1        2.398   3.059   6.802  0.00  0.00    +0.010 A 
ATOM     29  C   LIG    1        1.632   2.065   6.223  0.00  0.00    +0.020 A 
ENDBRANCH   1  24
TORSDOF 5
