REMARK  Name = ZINCfA000001ogUT.0
REMARK                            x       y       z     vdW  Elec       q    Type
REMARK                         _______ _______ _______ _____ _____    ______ ____
ROOT
ATOM      1  C   LIG    1        2.787   1.066  -1.493  0.00  0.00    +0.070 C 
ATOM      2  C   LIG    1        1.631   0.282  -2.118  0.00  0.00    +0.050 C 
ATOM      3  C   LIG    1        1.471  -1.056  -1.392  0.00  0.00    +0.050 C 
ATOM      4  C   LIG    1        2.764  -1.863  -1.520  0.00  0.00    +0.020 C 
ATOM      5  C   LIG    1        3.919  -1.079  -0.895  0.00  0.00    +0.050 C 
ATOM      6  C   LIG    1        4.080   0.258  -1.621  0.00  0.00    +0.040 C 
ENDROOT
BRANCH   1   7
ATOM      7  N   LIG    1        2.940   2.350  -2.190  0.00  0.00    -0.640 N 
ATOM      8  H   LIG    1        2.088   2.883  -2.106  0.00  0.00    +0.430 HD
ATOM      9  H   LIG    1        3.137   2.182  -3.166  0.00  0.00    +0.430 HD
ATOM     10  H   LIG    1        3.702   2.867  -1.778  0.00  0.00    +0.430 HD
ENDBRANCH   1   7
BRANCH   1  11
ATOM     11  C   LIG    1        2.489   1.321  -0.014  0.00  0.00    +0.130 C 
BRANCH  11  12
ATOM     12  C   LIG    1        3.562   2.204   0.569  0.00  0.00    -0.160 A 
ATOM     13  C   LIG    1        4.659   1.639   1.190  0.00  0.00    +0.060 A 
ATOM     14  C   LIG    1        5.644   2.449   1.726  0.00  0.00    +0.030 A 
ATOM     15  C   LIG    1        5.531   3.824   1.641  0.00  0.00    +0.060 A 
ATOM     16  C   LIG    1        4.437   4.391   1.015  0.00  0.00    +0.010 A 
ATOM     17  C   LIG    1        3.448   3.581   0.484  0.00  0.00    +0.070 A 
ATOM     18  F   LIG    1        2.375   4.135  -0.123  0.00  0.00    -0.140 F 
ENDBRANCH  11  12
ENDBRANCH   1  11
TORSDOF 3
