REMARK  Name = ZINCrg00001Jdv8c.0
REMARK                            x       y       z     vdW  Elec       q    Type
REMARK                         _______ _______ _______ _____ _____    ______ ____
ROOT
ATOM      1  C   LIG    1       -3.416  -3.018  -1.818  0.00  0.00    +0.240 C 
ATOM      2  C   LIG    1       -3.043  -4.413  -1.285  0.00  0.00    -0.010 C 
ATOM      3  C   LIG    1       -3.582  -5.434  -2.308  0.00  0.00    +0.160 C 
ATOM      4  C   LIG    1       -3.685  -4.631  -3.628  0.00  0.00    -0.010 C 
ATOM      5  C   LIG    1       -4.169  -3.241  -3.146  0.00  0.00    +0.050 C 
ENDROOT
BRANCH   1   8
ATOM      6  O   LIG    1       -2.166  -1.532   0.051  0.00  0.00    -0.530 OA
ATOM      7  C   LIG    1       -1.655  -1.520  -1.049  0.00  0.00    +0.520 C 
ATOM      8  N   LIG    1       -2.204  -2.230  -2.054  0.00  0.00    -0.730 N 
ATOM      9  H   LIG    1       -1.796  -2.220  -2.934  0.00  0.00    +0.400 HD
BRANCH   7  10
ATOM     10  C   LIG    1       -0.408  -0.709  -1.292  0.00  0.00    +0.090 C 
BRANCH  10  11
ATOM     11  C   LIG    1        0.002  -0.004   0.002  0.00  0.00    +0.030 C 
ATOM     12  C   LIG    1       -0.019   1.526   0.010  0.00  0.00    +0.080 C 
ATOM     13  C   LIG    1        1.317   0.779  -0.006  0.00  0.00    -0.230 C 
ATOM     14  C   LIG    1        2.648   0.793   0.746  0.00  0.00    +0.070 C 
ATOM     15  C   LIG    1        2.634   0.801  -0.784  0.00  0.00    +0.070 C 
ENDBRANCH  10  11
ENDBRANCH   7  10
ENDBRANCH   1   8
BRANCH   3  16
ATOM     16  O   LIG    1       -4.869  -5.909  -1.909  0.00  0.00    -0.550 OA
ATOM     17  H   LIG    1       -4.873  -6.369  -1.058  0.00  0.00    +0.380 HD
ENDBRANCH   3  16
BRANCH   4  18
ATOM     18  C   LIG    1       -4.708  -5.268  -4.571  0.00  0.00    +0.290 C 
BRANCH  18  19
ATOM     19  N   LIG    1       -4.221  -6.580  -5.005  0.00  0.00    -0.720 N 
ATOM     20  H   LIG    1       -3.366  -6.910  -4.687  0.00  0.00    +0.400 HD
ATOM     21  C   LIG    1       -4.961  -7.330  -5.846  0.00  0.00    +0.600 C 
ATOM     22  O   LIG    1       -6.033  -6.917  -6.244  0.00  0.00    -0.550 OA
BRANCH  21  23
ATOM     23  C   LIG    1       -4.471  -8.650  -6.282  0.00  0.00    -0.290 A 
ATOM     24  C   LIG    1       -5.117  -9.524  -7.136  0.00  0.00    +0.140 A 
ATOM     25  C   LIG    1       -6.383  -9.678  -7.951  0.00  0.00    +0.140 C 
ATOM     26  C   LIG    1       -6.444 -11.189  -8.273  0.00  0.00    +0.070 C 
ATOM     27  C   LIG    1       -4.955 -11.587  -8.185  0.00  0.00    +0.320 C 
ATOM     28  N   LIG    1       -4.337 -10.605  -7.278  0.00  0.00    -0.380 N 
ATOM     29  N   LIG    1       -3.182 -10.417  -6.500  0.00  0.00    -0.270 NA
ATOM     30  C   LIG    1       -3.251  -9.257  -5.911  0.00  0.00    +0.270 A 
ENDBRANCH  21  23
ENDBRANCH  18  19
ENDBRANCH   4  18
TORSDOF 7
