REMARK  Name = ZINCpe00000VVGh2.0
REMARK                            x       y       z     vdW  Elec       q    Type
REMARK                         _______ _______ _______ _____ _____    ______ ____
ROOT
ATOM      1  C   LIG    1        2.010   2.730   2.303  0.00  0.00    +0.210 C 
ATOM      2  C   LIG    1        3.510   2.435   2.516  0.00  0.00    +0.050 C 
ATOM      3  C   LIG    1        4.173   3.096   1.279  0.00  0.00    +0.040 C 
ATOM      4  C   LIG    1        3.112   2.838   0.181  0.00  0.00    +0.250 C 
ATOM      5  N   LIG    1        1.815   2.985   0.868  0.00  0.00    -0.610 N 
ATOM      6  C   LIG    1        0.645   3.301   0.278  0.00  0.00    +0.520 C 
ATOM      7  O   LIG    1       -0.379   3.309   0.928  0.00  0.00    -0.520 OA
ENDROOT
BRANCH   1   8
ATOM      8  C   LIG    1        1.176   1.522   2.735  0.00  0.00    +0.320 C 
BRANCH   8  15
ATOM      9  C   LIG    1       -0.807   2.626   4.846  0.00  0.00    +0.140 C 
ATOM     10  C   LIG    1        0.436   1.817   5.113  0.00  0.00    +0.090 A 
ATOM     11  C   LIG    1        0.897   1.441   6.329  0.00  0.00    -0.120 A 
ATOM     12  C   LIG    1        2.070   0.704   6.135  0.00  0.00    +0.070 A 
ATOM     13  N   LIG    1        2.309   0.647   4.850  0.00  0.00    -0.300 NA
ATOM     14  C   LIG    1        2.916   0.088   7.219  0.00  0.00    +0.160 C 
ATOM     15  N   LIG    1        1.291   1.342   4.184  0.00  0.00    -0.370 N 
ENDBRANCH   8  15
ENDBRANCH   1   8
BRANCH   6  16
ATOM     16  C   LIG    1        0.610   3.645  -1.189  0.00  0.00    +0.360 C 
BRANCH  16  17
ATOM     17  N   LIG    1       -0.744   4.063  -1.560  0.00  0.00    -0.560 N 
ATOM     18  C   LIG    1       -1.724   3.220  -1.905  0.00  0.00    +0.710 C 
ATOM     19  N   LIG    1       -2.872   3.857  -2.197  0.00  0.00    -0.720 N 
ATOM     20  H   LIG    1       -3.708   3.448  -2.469  0.00  0.00    +0.440 HD
ATOM     21  C   LIG    1       -2.609   5.297  -2.030  0.00  0.00    +0.120 C 
ATOM     22  C   LIG    1       -2.803   6.037  -3.355  0.00  0.00    +0.090 C 
ATOM     23  C   LIG    1       -3.511   5.886  -0.945  0.00  0.00    +0.080 C 
ATOM     24  O   LIG    1       -1.592   2.012  -1.947  0.00  0.00    -0.540 OA
ATOM     25  C   LIG    1       -1.156   5.346  -1.600  0.00  0.00    +0.530 C 
ATOM     26  O   LIG    1       -0.500   6.334  -1.347  0.00  0.00    -0.460 OA
ENDBRANCH  16  17
ENDBRANCH   6  16
TORSDOF 4
