REMARK  Name = ZINCvU0000000DsY.0
REMARK                            x       y       z     vdW  Elec       q    Type
REMARK                         _______ _______ _______ _____ _____    ______ ____
ROOT
ATOM      1  C   LIG    1        3.117   1.141  -0.525  0.00  0.00    +0.130 A 
ATOM      2  C   LIG    1        3.220  -0.229  -0.714  0.00  0.00    +0.050 A 
ATOM      3  C   LIG    1        2.101  -1.030  -0.592  0.00  0.00    +0.090 A 
ATOM      4  C   LIG    1        0.871  -0.474  -0.280  0.00  0.00    +0.040 A 
ATOM      5  C   LIG    1        0.751   0.885  -0.088  0.00  0.00    +0.100 A 
ATOM      6  C   LIG    1        1.874   1.708  -0.208  0.00  0.00    -0.120 A 
ENDROOT
BRANCH   6   7
ATOM      7  C   LIG    1        1.752   3.163  -0.005  0.00  0.00    +0.500 C 
ATOM      8  O   LIG    1        2.731   3.875  -0.110  0.00  0.00    -0.470 OA
BRANCH   7   9
ATOM      9  O   LIG    1        0.556   3.703   0.298  0.00  0.00    -0.340 OA
BRANCH   9  10
ATOM     10  C   LIG    1        0.510   5.142   0.484  0.00  0.00    +0.350 C 
BRANCH  10  11
ATOM     11  C   LIG    1       -0.899   5.562   0.814  0.00  0.00    +0.070 A 
ATOM     12  N   LIG    1       -1.370   5.630   2.002  0.00  0.00    -0.440 NA
ATOM     13  C   LIG    1       -2.649   6.025   2.149  0.00  0.00    +0.080 A 
ATOM     14  C   LIG    1       -3.410   6.191   3.323  0.00  0.00    +0.080 A 
ATOM     15  C   LIG    1       -4.708   6.600   3.252  0.00  0.00    +0.030 A 
ATOM     16  C   LIG    1       -5.304   6.861   2.027  0.00  0.00    +0.050 A 
ATOM     17  C   LIG    1       -4.584   6.709   0.863  0.00  0.00    +0.060 A 
ATOM     18  C   LIG    1       -3.256   6.291   0.916  0.00  0.00    -0.180 A 
ATOM     19  S   LIG    1       -2.068   5.999  -0.350  0.00  0.00    +0.130 S 
ENDBRANCH  10  11
ENDBRANCH   9  10
ENDBRANCH   7   9
ENDBRANCH   6   7
BRANCH   1  20
ATOM     20  O   LIG    1        4.215   1.929  -0.644  0.00  0.00    -0.650 OA
BRANCH  20  21
ATOM     21  S   LIG    1        4.448   2.456  -2.053  0.00  0.00    +2.680 S 
ATOM     22  O   LIG    1        4.110   1.398  -2.938  0.00  0.00    -0.950 OA
ATOM     23  O   LIG    1        5.724   3.082  -2.041  0.00  0.00    -0.920 OA
BRANCH  21  29
ATOM     24  C   LIG    1        3.007   7.479  -1.919  0.00  0.00    +0.090 C 
ATOM     25  C   LIG    1        2.662   6.050  -2.251  0.00  0.00    -0.120 A 
ATOM     26  C   LIG    1        1.420   5.742  -2.774  0.00  0.00    +0.060 A 
ATOM     27  C   LIG    1        1.103   4.431  -3.078  0.00  0.00    -0.010 A 
ATOM     28  C   LIG    1        2.029   3.429  -2.862  0.00  0.00    -0.000 A 
ATOM     29  C   LIG    1        3.269   3.735  -2.333  0.00  0.00    -0.670 A 
ATOM     30  C   LIG    1        1.686   2.000  -3.198  0.00  0.00    +0.100 C 
ATOM     31  C   LIG    1        3.587   5.046  -2.030  0.00  0.00    +0.170 A 
ENDBRANCH  21  29
ENDBRANCH  20  21
ENDBRANCH   1  20
TORSDOF 7
