REMARK  Name = ZINCpk00000eaF9u.0
REMARK                            x       y       z     vdW  Elec       q    Type
REMARK                         _______ _______ _______ _____ _____    ______ ____
ROOT
ATOM      1  C   LIG    1       -1.676   8.832  -1.367  0.00  0.00    +0.070 C 
ATOM      2  C   LIG    1       -1.226   8.563   0.070  0.00  0.00    +0.190 C 
ENDROOT
BRANCH   2   3
ATOM      3  C   LIG    1       -0.984   9.874   0.774  0.00  0.00    +0.520 C 
ATOM      4  N   LIG    1       -2.010  10.718   0.998  0.00  0.00    -0.670 N 
ATOM      5  H   LIG    1       -2.888  10.521   0.636  0.00  0.00    +0.410 HD
ATOM      6  O   LIG    1        0.135  10.168   1.140  0.00  0.00    -0.480 OA
BRANCH   4   7
ATOM      7  C   LIG    1       -1.809  11.875   1.749  0.00  0.00    +0.200 A 
ATOM      8  C   LIG    1       -0.778  11.935   2.675  0.00  0.00    +0.030 A 
ATOM      9  C   LIG    1       -0.581  13.083   3.418  0.00  0.00    +0.080 A 
ATOM     10  C   LIG    1       -1.408  14.180   3.247  0.00  0.00    +0.000 A 
ATOM     11  C   LIG    1       -2.438  14.138   2.331  0.00  0.00    +0.090 A 
ATOM     12  C   LIG    1       -2.646  12.987   1.568  0.00  0.00    -0.060 A 
BRANCH  12  13
ATOM     13  C   LIG    1       -3.710  12.940   0.611  0.00  0.00    +0.250 C 
ATOM     14  N   LIG    1       -4.554  12.902  -0.149  0.00  0.00    -0.410 NA
ENDBRANCH  12  13
ENDBRANCH   4   7
ENDBRANCH   2   3
BRANCH   2  15
ATOM     15  O   LIG    1        0.002   7.788   0.056  0.00  0.00    -0.320 OA
BRANCH  15  16
ATOM     16  C   LIG    1       -0.122   6.451   0.060  0.00  0.00    +0.460 C 
ATOM     17  O   LIG    1       -1.220   5.946   0.076  0.00  0.00    -0.500 OA
BRANCH  16  18
ATOM     18  C   LIG    1        1.108   5.580   0.046  0.00  0.00    +0.370 C 
BRANCH  18  19
ATOM     19  N   LIG    1        0.708   4.171   0.055  0.00  0.00    -0.720 N 
ATOM     20  H   LIG    1       -0.232   3.933   0.068  0.00  0.00    +0.420 HD
ATOM     21  C   LIG    1        1.648   3.204   0.045  0.00  0.00    +0.610 C 
ATOM     22  O   LIG    1        2.827   3.502   0.028  0.00  0.00    -0.510 OA
BRANCH  21  23
ATOM     23  C   LIG    1        1.248   1.793   0.053  0.00  0.00    -0.090 A 
ATOM     24  C   LIG    1        2.092   0.720   0.044  0.00  0.00    +0.050 A 
ATOM     25  C   LIG    1        1.285  -0.428   0.057  0.00  0.00    -0.070 A 
ATOM     26  C   LIG    1       -0.000  -0.011   0.073  0.00  0.00    +0.210 A 
ATOM     27  O   LIG    1       -0.018   1.328   0.071  0.00  0.00    -0.160 OA
ENDBRANCH  21  23
ENDBRANCH  18  19
ENDBRANCH  16  18
ENDBRANCH  15  16
ENDBRANCH   2  15
TORSDOF 8
