REMARK  Name = ZINCpe000000ZguU.0
REMARK                            x       y       z     vdW  Elec       q    Type
REMARK                         _______ _______ _______ _____ _____    ______ ____
ROOT
ATOM      1  O   LIG    1        0.778   0.652  -2.535  0.00  0.00    -0.570 OA
ATOM      2  C   LIG    1       -0.268   1.258  -2.409  0.00  0.00    +0.710 C 
ATOM      3  N   LIG    1       -0.974   1.619  -3.499  0.00  0.00    -0.630 N 
ATOM      4  C   LIG    1       -2.185   2.441  -3.369  0.00  0.00    +0.250 C 
ATOM      5  C   LIG    1       -3.342   1.739  -4.077  0.00  0.00    +0.020 C 
ATOM      6  C   LIG    1       -2.942   1.433  -5.522  0.00  0.00    +0.030 C 
ATOM      7  C   LIG    1       -1.730   0.499  -5.531  0.00  0.00    -0.030 C 
ATOM      8  C   LIG    1       -0.551   1.192  -4.840  0.00  0.00    +0.320 C 
ATOM      9  N   LIG    1       -0.722   1.571  -1.179  0.00  0.00    -0.750 N 
ATOM     10  H   LIG    1       -1.516   2.118  -1.079  0.00  0.00    +0.400 HD
ENDROOT
BRANCH   7  11
ATOM     11  C   LIG    1       -1.351   0.167  -6.976  0.00  0.00    +0.330 C 
BRANCH  11  12
ATOM     12  N   LIG    1       -0.266  -0.816  -6.983  0.00  0.00    -0.300 N 
ATOM     13  C   LIG    1       -0.283  -2.012  -7.616  0.00  0.00    +0.140 A 
ATOM     14  C   LIG    1        0.914  -2.591  -7.362  0.00  0.00    +0.140 A 
ATOM     15  N   LIG    1        1.593  -1.736  -6.589  0.00  0.00    -0.270 NA
ATOM     16  N   LIG    1        0.866  -0.694  -6.383  0.00  0.00    -0.080 NA
ENDBRANCH  11  12
ENDBRANCH   7  11
BRANCH   9  17
ATOM     17  C   LIG    1       -0.014   1.084   0.008  0.00  0.00    +0.420 C 
BRANCH  17  18
ATOM     18  C   LIG    1       -0.719   1.570   1.248  0.00  0.00    +0.150 A 
ATOM     19  N   LIG    1       -1.680   0.954   1.888  0.00  0.00    -0.270 NA
ATOM     20  N   LIG    1       -2.046   1.656   2.905  0.00  0.00    -0.290 NA
ATOM     21  C   LIG    1       -1.339   2.744   2.957  0.00  0.00    +0.190 A 
ATOM     22  C   LIG    1       -1.410   3.863   3.965  0.00  0.00    +0.160 C 
ATOM     23  C   LIG    1       -0.133   4.705   3.835  0.00  0.00    +0.030 C 
ATOM     24  C   LIG    1        0.103   5.040   2.360  0.00  0.00    +0.040 C 
ATOM     25  C   LIG    1        0.493   3.768   1.599  0.00  0.00    +0.290 C 
ATOM     26  N   LIG    1       -0.476   2.718   1.909  0.00  0.00    -0.460 N 
ENDBRANCH  17  18
ENDBRANCH   9  17
TORSDOF 4
