REMARK  Name = ZINCpk00000e9vAz.0
REMARK                            x       y       z     vdW  Elec       q    Type
REMARK                         _______ _______ _______ _____ _____    ______ ____
ROOT
ATOM      1  N   LIG    1        0.652   6.999  -0.009  0.00  0.00    -0.460 N 
ATOM      2  C   LIG    1        0.462   6.216   1.220  0.00  0.00    +0.240 C 
ATOM      3  C   LIG    1        1.400   5.007   1.202  0.00  0.00    +0.210 C 
ATOM      4  N   LIG    1        1.120   4.191   0.013  0.00  0.00    -0.510 N 
ATOM      5  C   LIG    1        1.310   4.973  -1.217  0.00  0.00    +0.210 C 
ATOM      6  C   LIG    1        0.372   6.183  -1.199  0.00  0.00    +0.230 C 
ENDROOT
BRANCH   4   7
ATOM      7  C   LIG    1        1.904   3.046  -0.001  0.00  0.00    +0.220 A 
ATOM      8  C   LIG    1        1.319   1.764  -0.001  0.00  0.00    -0.210 A 
ATOM      9  C   LIG    1       -0.016   1.298   0.009  0.00  0.00    +0.300 A 
ATOM     10  N   LIG    1        0.002  -0.004   0.002  0.00  0.00    -0.240 NA
ATOM     11  N   LIG    1        1.326  -0.458  -0.013  0.00  0.00    -0.390 N 
ATOM     12  C   LIG    1        1.753  -1.860  -0.024  0.00  0.00    +0.360 C 
ATOM     13  C   LIG    1        2.153   0.632  -0.015  0.00  0.00    +0.320 A 
ATOM     14  N   LIG    1        3.474   0.777  -0.027  0.00  0.00    -0.510 NA
ATOM     15  C   LIG    1        4.042   1.965  -0.028  0.00  0.00    +0.350 A 
ATOM     16  C   LIG    1        3.292   3.128  -0.014  0.00  0.00    -0.110 A 
ENDBRANCH   4   7
BRANCH   1  21
ATOM     17  C   LIG    1       -0.821  10.071  -1.048  0.00  0.00    +0.390 A 
ATOM     18  C   LIG    1       -1.648  10.351   0.039  0.00  0.00    -0.120 A 
ATOM     19  C   LIG    1       -1.668   9.463   1.099  0.00  0.00    +0.380 A 
ATOM     20  N   LIG    1       -0.906   8.380   1.050  0.00  0.00    -0.570 NA
ATOM     21  C   LIG    1       -0.130   8.141   0.004  0.00  0.00    +0.530 A 
ATOM     22  N   LIG    1       -0.080   8.970  -1.028  0.00  0.00    -0.590 NA
BRANCH  17  23
ATOM     23  O   LIG    1       -0.771  10.914  -2.107  0.00  0.00    -0.300 OA
BRANCH  23  25
ATOM     24  C   LIG    1        0.025  11.620  -4.278  0.00  0.00    +0.060 C 
ATOM     25  C   LIG    1        0.102  10.556  -3.181  0.00  0.00    +0.200 C 
ENDBRANCH  23  25
ENDBRANCH  17  23
ENDBRANCH   1  21
TORSDOF 4
