REMARK  Name = ZINCpk000000nByW.0
REMARK                            x       y       z     vdW  Elec       q    Type
REMARK                         _______ _______ _______ _____ _____    ______ ____
ROOT
ATOM      1  N   LIG    1       -2.230   1.539   0.992  0.00  0.00    -0.280 N 
ATOM      2  C   LIG    1       -1.926   0.938   2.166  0.00  0.00    +0.180 A 
ATOM      3  C   LIG    1       -3.108   0.622   2.744  0.00  0.00    -0.050 A 
ATOM      4  N   LIG    1       -4.065   1.033   1.904  0.00  0.00    -0.240 NA
ATOM      5  N   LIG    1       -3.512   1.572   0.876  0.00  0.00    -0.070 NA
ENDROOT
BRANCH   1   9
ATOM      6  N   LIG    1        1.077   1.993   0.003  0.00  0.00    -0.610 N 
ATOM      7  C   LIG    1        0.711   3.415   0.003  0.00  0.00    +0.280 C 
ATOM      8  C   LIG    1       -0.768   3.460   0.446  0.00  0.00    +0.070 C 
ATOM      9  C   LIG    1       -1.266   2.058   0.019  0.00  0.00    +0.260 C 
ATOM     10  C   LIG    1       -0.014   1.209   0.009  0.00  0.00    +0.510 C 
ATOM     11  O   LIG    1        0.002  -0.004   0.002  0.00  0.00    -0.500 OA
BRANCH   6  13
ATOM     12  C   LIG    1        2.694   0.643   1.245  0.00  0.00    +0.030 C 
ATOM     13  C   LIG    1        2.454   1.494  -0.004  0.00  0.00    +0.250 C 
ATOM     14  C   LIG    1        2.682   0.641  -1.253  0.00  0.00    +0.030 C 
ENDBRANCH   6  13
ENDBRANCH   1   9
BRANCH   3  15
ATOM     15  C   LIG    1       -3.308  -0.063   4.072  0.00  0.00    +0.390 C 
BRANCH  15  16
ATOM     16  N   LIG    1       -3.517   0.944   5.115  0.00  0.00    -0.720 N 
ATOM     17  H   LIG    1       -3.510   1.887   4.887  0.00  0.00    +0.400 HD
ATOM     18  C   LIG    1       -3.718   0.560   6.391  0.00  0.00    +0.570 C 
ATOM     19  O   LIG    1       -3.726  -0.621   6.677  0.00  0.00    -0.520 OA
BRANCH  18  20
ATOM     20  C   LIG    1       -3.928   1.577   7.443  0.00  0.00    -0.190 A 
ATOM     21  C   LIG    1       -4.138   1.191   8.773  0.00  0.00    +0.160 A 
ATOM     22  C   LIG    1       -4.330   2.180   9.720  0.00  0.00    +0.000 A 
ATOM     23  C   LIG    1       -4.309   3.508   9.327  0.00  0.00    +0.200 A 
ATOM     24  N   LIG    1       -4.109   3.842   8.065  0.00  0.00    -0.480 NA
ATOM     25 CL   LIG    1       -4.549   4.754  10.512  0.00  0.00    -0.020 Cl
ATOM     26  C   LIG    1       -3.916   2.936   7.129  0.00  0.00    +0.330 A 
ENDBRANCH  18  20
ENDBRANCH  15  16
ENDBRANCH   3  15
TORSDOF 5
