REMARK  Name = ZINCrH00000tj0HD.0
REMARK                            x       y       z     vdW  Elec       q    Type
REMARK                         _______ _______ _______ _____ _____    ______ ____
ROOT
ATOM      1  C   LIG    1       -4.918   2.376   0.097  0.00  0.00    +0.340 C 
ENDROOT
BRANCH   1   2
ATOM      2  N   LIG    1       -5.310   2.344  -1.319  0.00  0.00    -0.520 NA
ATOM      3  C   LIG    1       -4.867   1.098  -1.961  0.00  0.00    +0.140 C 
ATOM      4  C   LIG    1       -5.346   1.081  -3.415  0.00  0.00    +0.230 C 
ATOM      5  O   LIG    1       -4.852   2.242  -4.088  0.00  0.00    -0.380 OA
ATOM      6  C   LIG    1       -5.265   3.474  -3.490  0.00  0.00    +0.230 C 
ATOM      7  C   LIG    1       -3.339   1.020  -1.925  0.00  0.00    +0.020 C 
ATOM      8  C   LIG    1       -4.785   3.515  -2.037  0.00  0.00    +0.160 C 
BRANCH   8   9
ATOM      9  C   LIG    1       -5.284   4.775  -1.377  0.00  0.00    -0.090 A 
ATOM     10  C   LIG    1       -6.587   4.847  -0.922  0.00  0.00    +0.040 A 
ATOM     11  C   LIG    1       -7.043   6.002  -0.314  0.00  0.00    +0.000 A 
ATOM     12  C   LIG    1       -6.199   7.087  -0.169  0.00  0.00    +0.010 A 
ATOM     13  C   LIG    1       -4.898   7.016  -0.628  0.00  0.00    +0.000 A 
ATOM     14  C   LIG    1       -4.440   5.860  -1.233  0.00  0.00    +0.010 A 
ENDBRANCH   8   9
ENDBRANCH   1   2
BRANCH   1  18
ATOM     15  C   LIG    1       -7.102   0.136   1.926  0.00  0.00    +0.210 A 
ATOM     16  N   LIG    1       -6.028  -0.597   1.744  0.00  0.00    -0.270 NA
ATOM     17  N   LIG    1       -5.153   0.087   1.095  0.00  0.00    -0.270 NA
ATOM     18  C   LIG    1       -5.629   1.273   0.839  0.00  0.00    +0.180 A 
ATOM     19  O   LIG    1       -6.870   1.332   1.350  0.00  0.00    -0.210 OA
BRANCH  15  24
ATOM     20  C   LIG    1       -9.603  -1.939   3.816  0.00  0.00    +0.130 A 
ATOM     21  C   LIG    1      -10.661  -1.047   3.927  0.00  0.00    -0.040 A 
ATOM     22  C   LIG    1      -10.560   0.224   3.392  0.00  0.00    +0.060 A 
ATOM     23  C   LIG    1       -9.406   0.614   2.743  0.00  0.00    +0.010 A 
ATOM     24  C   LIG    1       -8.337  -0.277   2.626  0.00  0.00    +0.010 A 
ATOM     25  C   LIG    1       -8.441  -1.558   3.166  0.00  0.00    +0.050 A 
BRANCH  20  27
ATOM     26  C   LIG    1      -10.935  -3.513   5.000  0.00  0.00    +0.240 C 
ATOM     27  O   LIG    1       -9.708  -3.187   4.344  0.00  0.00    -0.310 OA
ENDBRANCH  20  27
ENDBRANCH  15  24
ENDBRANCH   1  18
TORSDOF 5
