REMARK  Name = ZINCtV00000L6jv7.0
REMARK                            x       y       z     vdW  Elec       q    Type
REMARK                         _______ _______ _______ _____ _____    ______ ____
ROOT
ATOM      1  C   LIG    1       -3.852  -1.019  -1.679  0.00  0.00    +0.100 C 
ATOM      2  C   LIG    1       -4.739  -0.442  -0.575  0.00  0.00    +0.000 C 
ENDROOT
BRANCH   2   3
ATOM      3  C   LIG    1       -6.061  -1.166  -0.563  0.00  0.00    +0.540 C 
ATOM      4  N   LIG    1       -6.190  -2.322   0.117  0.00  0.00    -0.650 N 
ATOM      5  H   LIG    1       -5.459  -2.647   0.665  0.00  0.00    +0.420 HD
ATOM      6  O   LIG    1       -7.009  -0.708  -1.165  0.00  0.00    -0.490 OA
BRANCH   4   7
ATOM      7  C   LIG    1       -7.380  -3.057   0.031  0.00  0.00    +0.140 A 
ATOM      8  C   LIG    1       -8.252  -2.845  -1.028  0.00  0.00    +0.090 A 
ATOM      9  C   LIG    1       -9.426  -3.570  -1.112  0.00  0.00    +0.050 A 
ATOM     10  C   LIG    1       -9.734  -4.508  -0.142  0.00  0.00    +0.080 A 
ATOM     11  C   LIG    1       -8.866  -4.723   0.918  0.00  0.00    +0.060 A 
ATOM     12  F   LIG    1       -9.168  -5.639   1.864  0.00  0.00    -0.110 F 
ATOM     13  F   LIG    1      -10.882  -5.215  -0.227  0.00  0.00    -0.120 F 
ATOM     14  C   LIG    1       -7.687  -4.003   1.003  0.00  0.00    +0.060 A 
ATOM     15  F   LIG    1       -6.837  -4.215   2.032  0.00  0.00    -0.120 F 
ENDBRANCH   4   7
ENDBRANCH   2   3
BRANCH   2  16
ATOM     16  S   LIG    1       -5.019   1.319  -0.885  0.00  0.00    +0.170 S 
BRANCH  16  17
ATOM     17  C   LIG    1       -3.376   1.927  -0.698  0.00  0.00    +0.030 A 
ATOM     18  N   LIG    1       -2.312   1.239  -0.416  0.00  0.00    -0.260 NA
ATOM     19  N   LIG    1       -1.110   1.901  -0.312  0.00  0.00    -0.300 N 
ATOM     20  C   LIG    1       -1.133   3.233  -0.509  0.00  0.00    +0.210 A 
ATOM     21  S   LIG    1        0.186   4.323  -0.441  0.00  0.00    -0.380 S 
ATOM     22  S   LIG    1       -2.831   3.607  -0.857  0.00  0.00    +0.170 S 
BRANCH  19  23
ATOM     23  C   LIG    1        0.077   1.224  -0.011  0.00  0.00    +0.140 A 
ATOM     24  C   LIG    1        1.217   1.446  -0.773  0.00  0.00    +0.090 A 
ATOM     25  C   LIG    1        2.386   0.773  -0.477  0.00  0.00    +0.080 A 
ATOM     26  C   LIG    1        2.423  -0.123   0.576  0.00  0.00    -0.010 A 
ATOM     27  C   LIG    1        1.287  -0.348   1.338  0.00  0.00    -0.030 A 
ATOM     28 CL   LIG    1        1.337  -1.472   2.659  0.00  0.00    -0.030 Cl
ATOM     29 CL   LIG    1        3.894  -0.968   0.945  0.00  0.00    -0.030 Cl
ATOM     30  C   LIG    1        0.115   0.324   1.046  0.00  0.00    +0.080 A 
ENDBRANCH  19  23
ENDBRANCH  16  17
ENDBRANCH   2  16
TORSDOF 5
