REMARK  Name = ZINCpk000000obp4.0
REMARK                            x       y       z     vdW  Elec       q    Type
REMARK                         _______ _______ _______ _____ _____    ______ ____
ROOT
ATOM      1  C   LIG    1       -3.829   7.052   0.654  0.00  0.00    -0.010 C 
ATOM      2  C   LIG    1       -4.110   6.696   2.116  0.00  0.00    +0.040 C 
ATOM      3  C   LIG    1       -4.216   7.984   2.939  0.00  0.00    +0.300 C 
ATOM      4  N   LIG    1       -5.226   8.856   2.325  0.00  0.00    -0.580 N 
ATOM      5  C   LIG    1       -5.101   9.188   0.899  0.00  0.00    +0.300 C 
ATOM      6  C   LIG    1       -4.985   7.887   0.099  0.00  0.00    +0.050 C 
ENDROOT
BRANCH   4   7
ATOM      7  C   LIG    1       -6.281   9.359   3.079  0.00  0.00    +0.410 A 
ATOM      8  N   LIG    1       -7.228  10.055   2.490  0.00  0.00    -0.300 NA
ATOM      9  N   LIG    1       -8.296  10.562   3.229  0.00  0.00    -0.170 N 
ATOM     10  N   LIG    1       -9.433  11.317   2.916  0.00  0.00    -0.050 NA
ATOM     11  N   LIG    1      -10.078  11.503   4.018  0.00  0.00    -0.030 NA
ATOM     12  N   LIG    1       -9.469  10.945   5.004  0.00  0.00    -0.290 NA
ATOM     13  C   LIG    1       -8.364  10.348   4.579  0.00  0.00    +0.170 A 
ATOM     14  C   LIG    1       -7.348   9.608   5.211  0.00  0.00    +0.180 A 
ATOM     15  C   LIG    1       -6.321   9.121   4.465  0.00  0.00    +0.020 A 
ENDBRANCH   4   7
BRANCH   1  18
ATOM     16  N   LIG    1       -2.731   4.892   0.156  0.00  0.00    -0.730 N 
ATOM     17  H   LIG    1       -2.130   5.062   0.898  0.00  0.00    +0.400 HD
ATOM     18  C   LIG    1       -3.690   5.787  -0.153  0.00  0.00    +0.520 C 
ATOM     19  O   LIG    1       -4.441   5.574  -1.081  0.00  0.00    -0.530 OA
BRANCH  16  20
ATOM     20  C   LIG    1       -2.596   3.662  -0.628  0.00  0.00    +0.270 C 
BRANCH  20  21
ATOM     21  C   LIG    1       -1.349   2.902  -0.174  0.00  0.00    -0.100 C 
ATOM     22  C   LIG    1       -1.186   1.528  -0.846  0.00  0.00    +0.020 C 
ATOM     23  C   LIG    1       -0.720   1.002   0.522  0.00  0.00    +0.010 C 
ATOM     24  C   LIG    1       -1.534   2.144   1.153  0.00  0.00    +0.020 C 
BRANCH  21  26
ATOM     25  C   LIG    1        0.241   4.119  -1.668  0.00  0.00    +0.030 C 
ATOM     26  C   LIG    1       -0.082   3.759  -0.217  0.00  0.00    +0.030 C 
ENDBRANCH  21  26
ENDBRANCH  20  21
ENDBRANCH  16  20
ENDBRANCH   1  18
TORSDOF 5
