REMARK  Name = ZINCpk000000ofal.0
REMARK                            x       y       z     vdW  Elec       q    Type
REMARK                         _______ _______ _______ _____ _____    ______ ____
ROOT
ATOM      1  C   LIG    1       -3.611   5.617  -3.693  0.00  0.00    +0.190 A 
ATOM      2  N   LIG    1       -2.316   5.630  -3.800  0.00  0.00    -0.360 NA
ATOM      3  O   LIG    1       -1.803   5.511  -2.708  0.00  0.00    +0.090 OA
ATOM      4  C   LIG    1       -2.751   5.408  -1.771  0.00  0.00    +0.150 A 
ATOM      5  N   LIG    1       -3.906   5.470  -2.389  0.00  0.00    -0.440 NA
ENDROOT
BRANCH   1   6
ATOM      6  C   LIG    1       -4.601   5.740  -4.823  0.00  0.00    +0.200 C 
BRANCH   6   9
ATOM      7  N   LIG    1       -5.800   4.231  -6.374  0.00  0.00    -0.730 N 
ATOM      8  H   LIG    1       -6.214   5.015  -6.766  0.00  0.00    +0.400 HD
ATOM      9  C   LIG    1       -4.930   4.368  -5.354  0.00  0.00    +0.520 C 
ATOM     10  O   LIG    1       -4.412   3.388  -4.862  0.00  0.00    -0.530 OA
BRANCH   7  11
ATOM     11  C   LIG    1       -6.120   2.898  -6.889  0.00  0.00    +0.260 C 
BRANCH  11  12
ATOM     12  C   LIG    1       -7.125   3.022  -8.036  0.00  0.00    +0.010 C 
BRANCH  12  14
ATOM     13  C   LIG    1       -8.464   1.754  -9.722  0.00  0.00    +0.010 C 
ATOM     14  C   LIG    1       -7.460   1.630  -8.575  0.00  0.00    +0.020 C 
ENDBRANCH  12  14
ENDBRANCH  11  12
ENDBRANCH   7  11
ENDBRANCH   6   9
ENDBRANCH   1   6
BRANCH   4  15
ATOM     15  C   LIG    1       -2.534   5.245  -0.289  0.00  0.00    +0.480 C 
BRANCH  15  16
ATOM     16  N   LIG    1       -2.463   3.820   0.041  0.00  0.00    -0.550 N 
ATOM     17  C   LIG    1       -3.583   3.134   0.347  0.00  0.00    +0.490 C 
ATOM     18  C   LIG    1       -3.487   1.677   0.722  0.00  0.00    +0.300 C 
ATOM     19  O   LIG    1       -2.396   1.072   0.021  0.00  0.00    -0.300 OA
ATOM     20  C   LIG    1       -1.219   1.752   0.017  0.00  0.00    +0.080 A 
ATOM     21  C   LIG    1       -0.013   1.076   0.008  0.00  0.00    +0.030 A 
ATOM     22  C   LIG    1        1.175   1.785   0.000  0.00  0.00    +0.030 A 
ATOM     23  C   LIG    1        1.161   3.167   0.007  0.00  0.00    +0.030 A 
ATOM     24  C   LIG    1       -0.041   3.851   0.022  0.00  0.00    +0.020 A 
ATOM     25  O   LIG    1       -4.662   3.688   0.330  0.00  0.00    -0.480 OA
ATOM     26  C   LIG    1       -1.233   3.147   0.029  0.00  0.00    +0.090 A 
ENDBRANCH  15  16
ENDBRANCH   4  15
TORSDOF 7
