REMARK  Name = ZINCvU0000000FTA.0
REMARK                            x       y       z     vdW  Elec       q    Type
REMARK                         _______ _______ _______ _____ _____    ______ ____
ROOT
ATOM      1  N   LIG    1       -5.993   4.885  -2.478  0.00  0.00    -0.600 N 
ATOM      2  C   LIG    1       -6.488   4.159  -1.456  0.00  0.00    +0.610 C 
ATOM      3  O   LIG    1       -5.874   4.086  -0.408  0.00  0.00    -0.550 OA
ATOM      4  C   LIG    1       -6.782   5.062  -3.700  0.00  0.00    +0.290 C 
ENDROOT
BRANCH   2   5
ATOM      5  C   LIG    1       -7.773   3.455  -1.606  0.00  0.00    -0.230 A 
ATOM      6  C   LIG    1       -8.715   3.248  -0.637  0.00  0.00    +0.100 A 
ATOM      7  N   LIG    1       -9.741   2.565  -1.181  0.00  0.00    -0.430 N 
ATOM      8  C   LIG    1       -9.496   2.313  -2.499  0.00  0.00    +0.030 A 
ATOM      9  C   LIG    1      -10.415   1.573  -3.436  0.00  0.00    +0.130 C 
ATOM     10  C   LIG    1       -8.622   3.707   0.795  0.00  0.00    +0.140 C 
ATOM     11  C   LIG    1       -8.302   2.839  -2.828  0.00  0.00    -0.020 A 
BRANCH   7  12
ATOM     12  C   LIG    1      -10.947   2.151  -0.460  0.00  0.00    +0.260 C 
ATOM     13  C   LIG    1      -11.358   3.252   0.521  0.00  0.00    +0.050 C 
BRANCH  12  14
ATOM     14  C   LIG    1      -12.063   1.912  -1.443  0.00  0.00    -0.100 A 
ATOM     15  C   LIG    1      -12.500   2.941  -2.257  0.00  0.00    +0.030 A 
ATOM     16  C   LIG    1      -13.521   2.720  -3.162  0.00  0.00    +0.010 A 
ATOM     17  C   LIG    1      -14.112   1.474  -3.248  0.00  0.00    +0.010 A 
ATOM     18  C   LIG    1      -13.679   0.446  -2.430  0.00  0.00    +0.010 A 
ATOM     19  C   LIG    1      -12.655   0.666  -1.528  0.00  0.00    +0.010 A 
ENDBRANCH  12  14
ENDBRANCH   7  12
ENDBRANCH   2   5
BRANCH   1  20
ATOM     20  C   LIG    1       -4.667   5.496  -2.367  0.00  0.00    +0.330 C 
BRANCH  20  23
ATOM     21  N   LIG    1       -2.324   4.884  -2.873  0.00  0.00    -0.680 N 
ATOM     22  H   LIG    1       -2.051   5.730  -2.485  0.00  0.00    +0.410 HD
ATOM     23  C   LIG    1       -3.626   4.534  -2.878  0.00  0.00    +0.490 C 
ATOM     24  O   LIG    1       -3.959   3.444  -3.293  0.00  0.00    -0.500 OA
BRANCH  21  32
ATOM     25  C   LIG    1       -2.709   3.994  -5.549  0.00  0.00    +0.090 C 
ATOM     26  C   LIG    1       -1.516   3.569  -4.731  0.00  0.00    -0.070 A 
ATOM     27  C   LIG    1       -0.572   2.720  -5.275  0.00  0.00    +0.000 A 
ATOM     28  C   LIG    1        0.525   2.335  -4.528  0.00  0.00    +0.000 A 
ATOM     29  C   LIG    1        0.679   2.792  -3.232  0.00  0.00    +0.010 A 
ATOM     30  C   LIG    1       -0.264   3.638  -2.680  0.00  0.00    -0.090 A 
ATOM     31  C   LIG    1       -0.096   4.137  -1.269  0.00  0.00    +0.090 C 
ATOM     32  C   LIG    1       -1.367   4.027  -3.429  0.00  0.00    +0.140 A 
ENDBRANCH  21  32
ENDBRANCH  20  23
ENDBRANCH   1  20
TORSDOF 6
