REMARK  Name = ZINCpe00000gMVaL.0
REMARK                            x       y       z     vdW  Elec       q    Type
REMARK                         _______ _______ _______ _____ _____    ______ ____
ROOT
ATOM      1  C   LIG    1       -0.486   1.198  -4.865  0.00  0.00    +0.520 C 
ATOM      2  N   LIG    1       -0.920   1.702  -6.037  0.00  0.00    -0.670 N 
ATOM      3  H   LIG    1       -1.690   2.291  -6.057  0.00  0.00    +0.420 HD
ATOM      4  O   LIG    1        0.415   0.387  -4.850  0.00  0.00    -0.490 OA
ENDROOT
BRANCH   2   5
ATOM      5  C   LIG    1       -0.261   1.376  -7.222  0.00  0.00    +0.170 A 
ATOM      6  C   LIG    1        1.115   1.173  -7.218  0.00  0.00    +0.010 A 
ATOM      7  C   LIG    1        1.768   0.847  -8.386  0.00  0.00    +0.070 A 
ATOM      8  C   LIG    1        1.048   0.729  -9.578  0.00  0.00    -0.160 A 
ATOM      9  C   LIG    1       -0.334   0.938  -9.579  0.00  0.00    +0.100 A 
ATOM     10  C   LIG    1       -0.981   1.259  -8.407  0.00  0.00    -0.010 A 
BRANCH   8  11
ATOM     11  C   LIG    1        1.745   0.385 -10.832  0.00  0.00    +0.560 C 
ATOM     12  O   LIG    1        1.117   0.284 -11.868  0.00  0.00    -0.540 OA
ATOM     13  N   LIG    1        3.078   0.184 -10.829  0.00  0.00    -0.850 N 
ATOM     14  H   LIG    1        3.536  -0.042 -11.654  0.00  0.00    +0.410 HD
ATOM     15  H   LIG    1        3.578   0.265 -10.003  0.00  0.00    +0.400 HD
ENDBRANCH   8  11
ENDBRANCH   2   5
BRANCH   1  16
ATOM     16  C   LIG    1       -1.122   1.642  -3.573  0.00  0.00    +0.270 C 
BRANCH  16  17
ATOM     17  O   LIG    1       -0.484   0.961  -2.460  0.00  0.00    -0.330 OA
BRANCH  17  18
ATOM     18  C   LIG    1       -0.937   1.248  -1.230  0.00  0.00    +0.480 C 
ATOM     19  O   LIG    1       -1.837   2.042  -1.087  0.00  0.00    -0.500 OA
BRANCH  18  20
ATOM     20  C   LIG    1       -0.324   0.580  -0.026  0.00  0.00    +0.110 C 
BRANCH  20  21
ATOM     21  C   LIG    1       -1.017   1.078   1.243  0.00  0.00    +0.330 C 
BRANCH  21  28
ATOM     22  C   LIG    1       -2.087  -1.438   2.259  0.00  0.00    +0.160 C 
ATOM     23  C   LIG    1       -0.910  -0.747   2.898  0.00  0.00    +0.100 A 
ATOM     24  C   LIG    1       -0.298  -1.255   3.958  0.00  0.00    -0.040 A 
ATOM     25  S   LIG    1        0.996  -0.108   4.346  0.00  0.00    +0.010 S 
ATOM     26  C   LIG    1        0.627   0.970   3.054  0.00  0.00    +0.480 A 
ATOM     27  O   LIG    1        1.200   2.009   2.779  0.00  0.00    -0.470 OA
ATOM     28  N   LIG    1       -0.421   0.429   2.413  0.00  0.00    -0.530 N 
ENDBRANCH  21  28
ENDBRANCH  20  21
ENDBRANCH  18  20
ENDBRANCH  17  18
ENDBRANCH  16  17
ENDBRANCH   1  16
TORSDOF 8
