REMARK  Name = ZINCrD0000074YTA.0
REMARK                            x       y       z     vdW  Elec       q    Type
REMARK                         _______ _______ _______ _____ _____    ______ ____
ROOT
ATOM      1  N   LIG    1       -1.153   1.883  -3.446  0.00  0.00    -0.680 N 
ATOM      2  H   LIG    1       -1.916   2.440  -3.226  0.00  0.00    +0.410 HD
ATOM      3  C   LIG    1       -0.491   1.232  -2.469  0.00  0.00    +0.720 C 
ATOM      4  N   LIG    1       -0.821   1.439  -1.178  0.00  0.00    -0.630 N 
ATOM      5  C   LIG    1       -1.879   2.345  -0.696  0.00  0.00    +0.250 C 
ATOM      6  C   LIG    1       -1.465   2.702   0.753  0.00  0.00    +0.010 C 
ATOM      7  C   LIG    1       -0.865   1.357   1.249  0.00  0.00    +0.070 C 
ATOM      8  C   LIG    1       -0.184   0.798  -0.018  0.00  0.00    +0.290 C 
ATOM      9  O   LIG    1        0.403   0.459  -2.752  0.00  0.00    -0.560 OA
ENDROOT
BRANCH   1  14
ATOM     10  C   LIG    1        1.013   1.472  -6.398  0.00  0.00    -0.010 A 
ATOM     11  C   LIG    1        0.066   1.504  -7.420  0.00  0.00    +0.050 A 
ATOM     12  C   LIG    1       -1.272   1.660  -7.117  0.00  0.00    +0.040 A 
ATOM     13  C   LIG    1       -1.677   1.780  -5.801  0.00  0.00    +0.000 A 
ATOM     14  C   LIG    1       -0.739   1.756  -4.777  0.00  0.00    +0.160 A 
ATOM     15  C   LIG    1        0.606   1.599  -5.072  0.00  0.00    +0.060 A 
BRANCH  10  19
ATOM     16  C   LIG    1        5.324   0.875  -8.840  0.00  0.00    +0.250 C 
ATOM     17  C   LIG    1        4.277   1.051  -7.770  0.00  0.00    +0.180 A 
ATOM     18  N   LIG    1        2.986   1.171  -7.957  0.00  0.00    -0.480 NA
ATOM     19  C   LIG    1        2.452   1.304  -6.722  0.00  0.00    +0.210 A 
ATOM     20  N   LIG    1        3.440   1.264  -5.867  0.00  0.00    -0.370 NA
ATOM     21  O   LIG    1        4.492   1.113  -6.452  0.00  0.00    +0.080 OA
ENDBRANCH  10  19
ENDBRANCH   1  14
BRANCH   7  22
ATOM     22  C   LIG    1        0.149   1.591   2.339  0.00  0.00    -0.100 A 
ATOM     23  C   LIG    1        1.195   2.404   2.184  0.00  0.00    -0.040 A 
ATOM     24  S   LIG    1        2.151   2.425   3.660  0.00  0.00    +0.110 S 
ATOM     25  C   LIG    1        1.043   1.295   4.428  0.00  0.00    -0.040 A 
ATOM     26  C   LIG    1        0.062   0.984   3.580  0.00  0.00    +0.010 A 
ENDBRANCH   7  22
BRANCH   6  27
ATOM     27  C   LIG    1       -2.683   3.100   1.589  0.00  0.00    +0.200 C 
BRANCH  27  28
ATOM     28  O   LIG    1       -3.225   4.324   1.088  0.00  0.00    -0.570 OA
ATOM     29  H   LIG    1       -4.002   4.637   1.571  0.00  0.00    +0.380 HD
ENDBRANCH  27  28
ENDBRANCH   6  27
TORSDOF 5
