REMARK  Name = ZINCvU0000000AXP.0
REMARK                            x       y       z     vdW  Elec       q    Type
REMARK                         _______ _______ _______ _____ _____    ______ ____
ROOT
ATOM      1  C   LIG    1        1.172   1.806   0.001  0.00  0.00    +0.460 A 
ATOM      2  C   LIG    1       -0.013   1.076   0.008  0.00  0.00    -0.230 A 
ATOM      3  C   LIG    1       -1.217   1.774   0.017  0.00  0.00    +0.470 A 
ATOM      4  N   LIG    1       -1.192   3.105   0.029  0.00  0.00    -0.610 NA
ATOM      5  C   LIG    1       -0.049   3.760   0.022  0.00  0.00    +0.570 A 
ATOM      6  N   LIG    1        1.111   3.136   0.008  0.00  0.00    -0.610 NA
ENDROOT
BRANCH   1   7
ATOM      7  N   LIG    1        2.397   1.158  -0.014  0.00  0.00    -0.710 N 
ATOM      8  H   LIG    1        3.219   1.674  -0.019  0.00  0.00    +0.410 HD
BRANCH   7   9
ATOM      9  C   LIG    1        2.452  -0.306  -0.021  0.00  0.00    +0.330 C 
BRANCH   9  14
ATOM     10  F   LIG    1        7.843  -2.005  -0.156  0.00  0.00    -0.130 F 
ATOM     11  C   LIG    1        6.556  -1.596  -0.104  0.00  0.00    +0.130 A 
ATOM     12  C   LIG    1        5.799  -1.568  -1.238  0.00  0.00    -0.020 A 
ATOM     13  C   LIG    1        4.469  -1.154  -1.202  0.00  0.00    +0.080 A 
ATOM     14  C   LIG    1        3.890  -0.755  -0.036  0.00  0.00    -0.110 A 
ATOM     15  C   LIG    1        4.638  -0.770   1.154  0.00  0.00    -0.010 A 
ATOM     16  C   LIG    1        4.072  -0.370   2.376  0.00  0.00    +0.020 A 
ATOM     17  C   LIG    1        4.827  -0.397   3.509  0.00  0.00    +0.030 A 
ATOM     18  C   LIG    1        6.155  -0.815   3.475  0.00  0.00    +0.020 A 
ATOM     19  C   LIG    1        6.737  -1.209   2.309  0.00  0.00    +0.030 A 
ATOM     20  C   LIG    1        5.989  -1.196   1.120  0.00  0.00    -0.080 A 
ENDBRANCH   9  14
ENDBRANCH   7   9
ENDBRANCH   1   7
BRANCH   3  21
ATOM     21  N   LIG    1       -2.424   1.092   0.020  0.00  0.00    -0.710 N 
ATOM     22  H   LIG    1       -3.259   1.586   0.026  0.00  0.00    +0.400 HD
BRANCH  21  23
ATOM     23  C   LIG    1       -2.439  -0.372   0.012  0.00  0.00    +0.240 C 
ATOM     24  C   LIG    1       -2.316  -0.893   1.448  0.00  0.00    -0.000 C 
ATOM     25  C   LIG    1       -3.535  -0.432   2.254  0.00  0.00    +0.220 C 
ATOM     26  O   LIG    1       -4.728  -0.901   1.623  0.00  0.00    -0.370 OA
ATOM     27  C   LIG    1       -4.918  -0.409   0.295  0.00  0.00    +0.240 C 
ATOM     28  C   LIG    1       -3.757  -0.869  -0.590  0.00  0.00    +0.030 C 
BRANCH  27  29
ATOM     29  C   LIG    1       -6.214  -0.943  -0.259  0.00  0.00    -0.180 A 
ATOM     30  C   LIG    1       -7.032  -0.280  -1.078  0.00  0.00    +0.010 A 
ATOM     31  C   LIG    1       -8.167  -0.975  -1.457  0.00  0.00    +0.000 A 
ATOM     32  C   LIG    1       -8.272  -2.203  -0.945  0.00  0.00    -0.050 A 
ATOM     33  S   LIG    1       -6.876  -2.539   0.071  0.00  0.00    +0.140 S 
ENDBRANCH  27  29
ENDBRANCH  21  23
ENDBRANCH   3  21
TORSDOF 6
