REMARK  Name = ZINCrD00000F5Lmg.0
REMARK                            x       y       z     vdW  Elec       q    Type
REMARK                         _______ _______ _______ _____ _____    ______ ____
ROOT
ATOM      1  C   LIG    1        3.573  -2.017  -0.027  0.00  0.00    +0.100 C 
ENDROOT
BRANCH   1   4
ATOM      2  N   LIG    1        5.497  -3.571  -0.070  0.00  0.00    -0.650 N 
ATOM      3  H   LIG    1        6.081  -2.800  -0.147  0.00  0.00    +0.420 HD
ATOM      4  C   LIG    1        4.160  -3.405  -0.052  0.00  0.00    +0.540 C 
ATOM      5  O   LIG    1        3.428  -4.372  -0.057  0.00  0.00    -0.510 OA
BRANCH   2   9
ATOM      6  C   LIG    1        7.127  -7.404   0.210  0.00  0.00    +0.150 A 
ATOM      7  C   LIG    1        5.862  -7.148   0.718  0.00  0.00    -0.080 A 
ATOM      8  C   LIG    1        5.325  -5.877   0.631  0.00  0.00    +0.110 A 
ATOM      9  C   LIG    1        6.045  -4.859   0.024  0.00  0.00    +0.080 A 
ATOM     10  C   LIG    1        7.316  -5.115  -0.487  0.00  0.00    +0.140 A 
ATOM     11  C   LIG    1        7.854  -6.388  -0.393  0.00  0.00    -0.080 A 
BRANCH   6  13
ATOM     12  C   LIG    1        6.852  -9.652   0.935  0.00  0.00    +0.250 C 
ATOM     13  O   LIG    1        7.655  -8.654   0.302  0.00  0.00    -0.320 OA
ENDBRANCH   6  13
BRANCH  10  14
ATOM     14  O   LIG    1        8.026  -4.118  -1.077  0.00  0.00    -0.320 OA
ATOM     15  C   LIG    1        9.322  -4.453  -1.579  0.00  0.00    +0.250 C 
ENDBRANCH  10  14
ENDBRANCH   2   9
ENDBRANCH   1   4
BRANCH   1  16
ATOM     16  S   LIG    1        1.763  -2.125  -0.008  0.00  0.00    +0.110 S 
BRANCH  16  17
ATOM     17  C   LIG    1        1.264  -0.435   0.021  0.00  0.00    +0.200 A 
ATOM     18  N   LIG    1        2.077   0.597   0.025  0.00  0.00    -0.320 NA
ATOM     19  N   LIG    1        1.278   1.751   0.049  0.00  0.00    -0.470 N 
ATOM     20  H   LIG    1        1.584   2.671   0.058  0.00  0.00    +0.440 HD
ATOM     21  C   LIG    1       -0.014   1.320   0.059  0.00  0.00    +0.330 A 
ATOM     22  N   LIG    1        0.003  -0.003   0.041  0.00  0.00    -0.510 NA
BRANCH  21  23
ATOM     23  C   LIG    1       -1.208   2.168   0.078  0.00  0.00    +0.030 C 
ATOM     24  C   LIG    1       -2.437   1.606   0.079  0.00  0.00    +0.170 C 
BRANCH  24  25
ATOM     25  C   LIG    1       -3.629   2.453   0.099  0.00  0.00    -0.010 A 
ATOM     26  C   LIG    1       -4.925   2.017   0.102  0.00  0.00    +0.000 A 
ATOM     27  C   LIG    1       -5.737   3.163   0.123  0.00  0.00    -0.070 A 
ATOM     28  C   LIG    1       -4.914   4.233   0.132  0.00  0.00    +0.190 A 
ATOM     29  O   LIG    1       -3.643   3.801   0.122  0.00  0.00    -0.170 OA
ENDBRANCH  24  25
ENDBRANCH  21  23
ENDBRANCH  16  17
ENDBRANCH   1  16
TORSDOF 8
