REMARK  Name = ZINCrD00000F5Lmg.1
REMARK                            x       y       z     vdW  Elec       q    Type
REMARK                         _______ _______ _______ _____ _____    ______ ____
ROOT
ATOM      1  C   LIG    1        5.216   0.216  -0.063  0.00  0.00    +0.110 C 
ENDROOT
BRANCH   1   4
ATOM      2  N   LIG    1        6.968  -1.531  -0.074  0.00  0.00    -0.650 N 
ATOM      3  H   LIG    1        6.265  -2.195   0.005  0.00  0.00    +0.420 HD
ATOM      4  C   LIG    1        6.659  -0.219  -0.068  0.00  0.00    +0.530 C 
ATOM      5  O   LIG    1        7.543   0.612  -0.065  0.00  0.00    -0.510 OA
BRANCH   2   9
ATOM      6  C   LIG    1       10.948  -2.737  -0.434  0.00  0.00    +0.150 A 
ATOM      7  C   LIG    1       10.550  -1.500  -0.918  0.00  0.00    -0.080 A 
ATOM      8  C   LIG    1        9.231  -1.103  -0.804  0.00  0.00    +0.110 A 
ATOM      9  C   LIG    1        8.305  -1.936  -0.195  0.00  0.00    +0.080 A 
ATOM     10  C   LIG    1        8.704  -3.179   0.292  0.00  0.00    +0.140 A 
ATOM     11  C   LIG    1       10.025  -3.576   0.171  0.00  0.00    -0.080 A 
BRANCH   6  13
ATOM     12  C   LIG    1       13.142  -2.213  -1.187  0.00  0.00    +0.250 C 
ATOM     13  O   LIG    1       12.245  -3.127  -0.553  0.00  0.00    -0.320 OA
ENDBRANCH   6  13
BRANCH  10  14
ATOM     14  O   LIG    1        7.797  -4.001   0.885  0.00  0.00    -0.320 OA
ATOM     15  C   LIG    1        8.277  -5.260   1.361  0.00  0.00    +0.250 C 
ENDBRANCH  10  14
ENDBRANCH   2   9
ENDBRANCH   1   4
BRANCH   1  16
ATOM     16  S   LIG    1        5.131   2.024  -0.055  0.00  0.00    +0.100 S 
BRANCH  16  17
ATOM     17  C   LIG    1        3.383   2.248  -0.051  0.00  0.00    +0.250 A 
ATOM     18  N   LIG    1        2.483   1.290  -0.054  0.00  0.00    -0.530 NA
ATOM     19  C   LIG    1        1.251   1.828  -0.050  0.00  0.00    +0.270 A 
ATOM     20  N   LIG    1        1.362   3.141  -0.050  0.00  0.00    -0.290 NA
ATOM     21  N   LIG    1        2.735   3.435  -0.046  0.00  0.00    -0.460 N 
ATOM     22  H   LIG    1        3.139   4.316  -0.043  0.00  0.00    +0.450 HD
BRANCH  19  23
ATOM     23  C   LIG    1       -0.014   1.074  -0.051  0.00  0.00    +0.090 C 
ATOM     24  C   LIG    1       -1.190   1.732  -0.052  0.00  0.00    +0.120 C 
BRANCH  24  25
ATOM     25  C   LIG    1       -2.448   0.982  -0.060  0.00  0.00    +0.000 A 
ATOM     26  C   LIG    1       -3.703   1.520  -0.061  0.00  0.00    -0.030 A 
ATOM     27  C   LIG    1       -4.606   0.441  -0.069  0.00  0.00    -0.070 A 
ATOM     28  C   LIG    1       -3.872  -0.690  -0.072  0.00  0.00    +0.180 A 
ATOM     29  O   LIG    1       -2.570  -0.361  -0.072  0.00  0.00    -0.170 OA
ENDBRANCH  24  25
ENDBRANCH  19  23
ENDBRANCH  16  17
ENDBRANCH   1  16
TORSDOF 8
