REMARK  Name = ZINCrH000004qOUZ.1
REMARK                            x       y       z     vdW  Elec       q    Type
REMARK                         _______ _______ _______ _____ _____    ______ ____
ROOT
ATOM      1  C   LIG    1        0.596   4.454   5.593  0.00  0.00    +0.110 C 
ATOM      2  C   LIG    1       -0.870   4.163   5.785  0.00  0.00    -0.040 A 
ATOM      3  C   LIG    1       -1.522   4.616   6.914  0.00  0.00    +0.020 A 
ATOM      4  C   LIG    1       -2.872   4.344   7.094  0.00  0.00    +0.150 A 
ATOM      5  C   LIG    1       -3.568   3.621   6.134  0.00  0.00    -0.010 A 
ATOM      6  C   LIG    1       -2.918   3.172   5.001  0.00  0.00    +0.010 A 
ATOM      7  C   LIG    1       -1.568   3.445   4.822  0.00  0.00    +0.070 A 
ENDROOT
BRANCH   7   8
ATOM      8  N   LIG    1       -0.909   2.991   3.674  0.00  0.00    -0.500 N 
ATOM      9  C   LIG    1       -0.966   1.525   3.579  0.00  0.00    +0.190 C 
ATOM     10  C   LIG    1       -0.169   1.065   2.357  0.00  0.00    +0.180 C 
ATOM     11  N   LIG    1       -0.725   1.690   1.148  0.00  0.00    -0.550 NA
ATOM     12  C   LIG    1       -0.667   3.155   1.243  0.00  0.00    +0.180 C 
ATOM     13  C   LIG    1       -0.033   1.213  -0.057  0.00  0.00    +0.190 C 
ATOM     14  C   LIG    1       -1.465   3.616   2.466  0.00  0.00    +0.190 C 
ENDBRANCH   7   8
BRANCH   4  15
ATOM     15  N   LIG    1       -3.531   4.798   8.243  0.00  0.00    -0.660 N 
ATOM     16  H   LIG    1       -4.248   4.272   8.631  0.00  0.00    +0.420 HD
ATOM     17  C   LIG    1       -3.169   5.966   8.810  0.00  0.00    +0.600 C 
ATOM     18  O   LIG    1       -2.338   6.672   8.272  0.00  0.00    -0.510 OA
BRANCH  17  19
ATOM     19  C   LIG    1       -3.781   6.387  10.082  0.00  0.00    +0.010 A 
ATOM     20  C   LIG    1       -3.455   7.548  10.694  0.00  0.00    -0.010 A 
ATOM     21  S   LIG    1       -4.362   7.697  12.136  0.00  0.00    +0.250 S 
ATOM     22  C   LIG    1       -5.145   6.152  11.824  0.00  0.00    +0.110 A 
ATOM     23  N   LIG    1       -4.696   5.659  10.707  0.00  0.00    -0.430 NA
BRANCH  22  24
ATOM     24  C   LIG    1       -6.155   5.521  12.688  0.00  0.00    +0.040 A 
ATOM     25  C   LIG    1       -6.638   6.028  13.857  0.00  0.00    +0.000 A 
ATOM     26  C   LIG    1       -7.577   5.100  14.344  0.00  0.00    -0.050 A 
ATOM     27  C   LIG    1       -7.622   4.082  13.461  0.00  0.00    +0.200 A 
ATOM     28  O   LIG    1       -6.766   4.342  12.460  0.00  0.00    -0.150 OA
ENDBRANCH  22  24
ENDBRANCH  17  19
ENDBRANCH   4  15
TORSDOF 4
