REMARK  Name = ZINCrH000004nClr.0
REMARK                            x       y       z     vdW  Elec       q    Type
REMARK                         _______ _______ _______ _____ _____    ______ ____
ROOT
ATOM      1  C   LIG    1       -2.454   1.129   0.002  0.00  0.00    +0.260 C 
ENDROOT
BRANCH   1   4
ATOM      2  N   LIG    1       -4.789   1.480   0.737  0.00  0.00    -0.660 N 
ATOM      3  H   LIG    1       -5.006   0.613   0.362  0.00  0.00    +0.420 HD
ATOM      4  C   LIG    1       -3.539   1.970   0.624  0.00  0.00    +0.510 C 
ATOM      5  O   LIG    1       -3.287   3.088   1.022  0.00  0.00    -0.510 OA
BRANCH   2  11
ATOM      6  C   LIG    1       -6.759   1.575   2.142  0.00  0.00    +0.110 A 
ATOM      7  C   LIG    1       -7.728   2.315   2.798  0.00  0.00    -0.060 A 
ATOM      8  C   LIG    1       -7.726   3.695   2.705  0.00  0.00    +0.040 A 
ATOM      9  C   LIG    1       -6.754   4.340   1.963  0.00  0.00    -0.010 A 
ATOM     10  C   LIG    1       -5.779   3.608   1.310  0.00  0.00    +0.070 A 
ATOM     11  C   LIG    1       -5.776   2.224   1.398  0.00  0.00    +0.110 A 
BRANCH   6  13
ATOM     12  C   LIG    1       -7.802  -0.379   3.007  0.00  0.00    +0.250 C 
ATOM     13  O   LIG    1       -6.764   0.218   2.228  0.00  0.00    -0.320 OA
ENDBRANCH   6  13
ENDBRANCH   2  11
ENDBRANCH   1   4
BRANCH   1  14
ATOM     14  N   LIG    1       -1.196   1.882  -0.005  0.00  0.00    -0.710 N 
ATOM     15  H   LIG    1       -1.212   2.852   0.005  0.00  0.00    +0.410 HD
ATOM     16  C   LIG    1       -0.019   1.226  -0.025  0.00  0.00    +0.600 C 
ATOM     17  O   LIG    1        0.000   0.010  -0.037  0.00  0.00    -0.500 OA
BRANCH  16  18
ATOM     18  C   LIG    1        1.239   1.979  -0.038  0.00  0.00    -0.270 A 
ATOM     19  C   LIG    1        2.490   1.432  -0.064  0.00  0.00    +0.100 A 
ATOM     20  C   LIG    1        3.495   2.370  -0.072  0.00  0.00    +0.000 A 
ATOM     21  C   LIG    1        3.082   3.643  -0.053  0.00  0.00    -0.060 A 
ATOM     22  S   LIG    1        1.378   3.732  -0.031  0.00  0.00    +0.200 S 
ENDBRANCH  16  18
ENDBRANCH   1  14
BRANCH   1  23
ATOM     23  C   LIG    1       -2.843   0.774  -1.434  0.00  0.00    +0.080 C 
BRANCH  23  24
ATOM     24  C   LIG    1       -1.819  -0.167  -2.014  0.00  0.00    -0.070 A 
ATOM     25  C   LIG    1       -0.721   0.337  -2.688  0.00  0.00    +0.000 A 
ATOM     26  C   LIG    1        0.221  -0.526  -3.216  0.00  0.00    +0.010 A 
ATOM     27  C   LIG    1        0.060  -1.892  -3.079  0.00  0.00    +0.000 A 
ATOM     28  C   LIG    1       -1.040  -2.396  -2.411  0.00  0.00    +0.010 A 
ATOM     29  C   LIG    1       -1.979  -1.533  -1.878  0.00  0.00    +0.020 A 
ENDBRANCH  23  24
ENDBRANCH   1  23
TORSDOF 7
