REMARK  Name = ZINCqH0000005noW.0
REMARK                            x       y       z     vdW  Elec       q    Type
REMARK                         _______ _______ _______ _____ _____    ______ ____
ROOT
ATOM      1  C   LIG    1       -3.410  -2.261  -2.715  0.00  0.00    +0.190 C 
ATOM      2  N   LIG    1       -2.888  -2.018  -1.364  0.00  0.00    -0.540 NA
ATOM      3  C   LIG    1       -2.590  -3.284  -0.680  0.00  0.00    +0.170 C 
ATOM      4  C   LIG    1       -2.223  -2.998   0.780  0.00  0.00    +0.270 C 
ATOM      5  N   LIG    1       -1.137  -2.005   0.807  0.00  0.00    -0.620 N 
ATOM      6  C   LIG    1       -1.305  -0.770   0.026  0.00  0.00    +0.300 C 
ATOM      7  C   LIG    1       -0.016  -2.224   1.523  0.00  0.00    +0.700 C 
ATOM      8  N   LIG    1        0.168  -3.407   2.141  0.00  0.00    -0.670 N 
ATOM      9  H   LIG    1       -0.465  -4.129   2.005  0.00  0.00    +0.410 HD
ATOM     10  O   LIG    1        0.829  -1.354   1.611  0.00  0.00    -0.540 OA
ATOM     11  C   LIG    1       -1.708  -1.144  -1.404  0.00  0.00    +0.180 C 
ENDROOT
BRANCH   8  12
ATOM     12  C   LIG    1        1.271  -3.594   2.978  0.00  0.00    +0.190 A 
ATOM     13  C   LIG    1        1.876  -2.513   3.580  0.00  0.00    +0.040 A 
ATOM     14  C   LIG    1        2.975  -2.684   4.418  0.00  0.00    +0.050 A 
ATOM     15  C   LIG    1        3.482  -3.924   4.663  0.00  0.00    +0.000 A 
ATOM     16  C   LIG    1        2.894  -5.051   4.067  0.00  0.00    -0.080 A 
ATOM     17  C   LIG    1        3.394  -6.346   4.300  0.00  0.00    +0.080 A 
ATOM     18  C   LIG    1        2.772  -7.397   3.688  0.00  0.00    -0.030 A 
ATOM     19  C   LIG    1        1.675  -7.170   2.860  0.00  0.00    +0.290 A 
ATOM     20  N   LIG    1        1.212  -5.962   2.646  0.00  0.00    -0.480 NA
ATOM     21  C   LIG    1        1.771  -4.892   3.218  0.00  0.00    +0.100 A 
ENDBRANCH   8  12
BRANCH   6  22
ATOM     22  C   LIG    1       -0.006  -0.005   0.003  0.00  0.00    -0.070 A 
ATOM     23  C   LIG    1        0.032   1.306   0.439  0.00  0.00    +0.010 A 
ATOM     24  C   LIG    1        1.223   2.007   0.418  0.00  0.00    -0.010 A 
ATOM     25  C   LIG    1        2.376   1.397  -0.042  0.00  0.00    +0.000 A 
ATOM     26  C   LIG    1        2.338   0.086  -0.477  0.00  0.00    -0.020 A 
ATOM     27  C   LIG    1        1.147  -0.615  -0.455  0.00  0.00    +0.050 A 
ENDBRANCH   6  22
TORSDOF 2
