REMARK  Name = ZINCrg000000qcCm.0
REMARK                            x       y       z     vdW  Elec       q    Type
REMARK                         _______ _______ _______ _____ _____    ______ ____
ROOT
ATOM      1  N   LIG    1        8.926   2.052  -5.002  0.00  0.00    -0.520 NA
ATOM      2  C   LIG    1        9.613   2.188  -3.711  0.00  0.00    +0.170 C 
ATOM      3  C   LIG    1        8.980   1.228  -2.697  0.00  0.00    +0.300 C 
ATOM      4  N   LIG    1        7.531   1.476  -2.660  0.00  0.00    -0.620 N 
ATOM      5  C   LIG    1        6.794   1.487  -3.933  0.00  0.00    +0.280 C 
ATOM      6  C   LIG    1        6.894   1.683  -1.490  0.00  0.00    +0.520 C 
ATOM      7  O   LIG    1        7.517   1.666  -0.449  0.00  0.00    -0.540 OA
ATOM      8  C   LIG    1        7.513   2.442  -4.898  0.00  0.00    +0.180 C 
ENDROOT
BRANCH   1   9
ATOM      9  C   LIG    1        9.610   2.827  -6.046  0.00  0.00    +0.210 C 
BRANCH   9  12
ATOM     10  N   LIG    1        9.510   3.066  -8.506  0.00  0.00    -0.730 N 
ATOM     11  H   LIG    1       10.224   3.719  -8.440  0.00  0.00    +0.400 HD
ATOM     12  C   LIG    1        9.033   2.474  -7.393  0.00  0.00    +0.510 C 
ATOM     13  O   LIG    1        8.140   1.658  -7.475  0.00  0.00    -0.520 OA
BRANCH  10  14
ATOM     14  C   LIG    1        8.949   2.724  -9.815  0.00  0.00    +0.280 C 
BRANCH  14  15
ATOM     15  C   LIG    1        9.662   3.531 -10.902  0.00  0.00    +0.180 C 
BRANCH  15  17
ATOM     16  C   LIG    1       11.794   3.835 -11.954  0.00  0.00    +0.200 C 
ATOM     17  O   LIG    1       11.034   3.138 -10.965  0.00  0.00    -0.390 OA
ENDBRANCH  15  17
ENDBRANCH  14  15
ENDBRANCH  10  14
ENDBRANCH   9  12
ENDBRANCH   1   9
BRANCH   6  18
ATOM     18  C   LIG    1        5.409   1.936  -1.475  0.00  0.00    +0.050 C 
BRANCH  18  19
ATOM     19  C   LIG    1        4.940   2.137  -0.033  0.00  0.00    +0.130 C 
BRANCH  19  20
ATOM     20  C   LIG    1        3.454   2.390  -0.018  0.00  0.00    -0.170 A 
ATOM     21  C   LIG    1        2.848   3.587  -0.005  0.00  0.00    +0.220 A 
ATOM     22  N   LIG    1        1.490   3.423   0.007  0.00  0.00    -0.600 N 
ATOM     23  H   LIG    1        0.841   4.144   0.017  0.00  0.00    +0.420 HD
ATOM     24  C   LIG    1        1.181   2.081   0.002  0.00  0.00    +0.090 A 
ATOM     25  C   LIG    1       -0.017   1.374   0.010  0.00  0.00    -0.010 A 
ATOM     26  C   LIG    1        0.002  -0.004   0.002  0.00  0.00    +0.020 A 
ATOM     27  C   LIG    1        1.205  -0.696  -0.013  0.00  0.00    -0.030 A 
ATOM     28  C   LIG    1        2.394  -0.021  -0.021  0.00  0.00    +0.050 A 
ATOM     29  C   LIG    1        2.398   1.375  -0.013  0.00  0.00    -0.100 A 
ENDBRANCH  19  20
ENDBRANCH  18  19
ENDBRANCH   6  18
TORSDOF 8
