REMARK  Name = ZINCbw00000004EH.0
REMARK                            x       y       z     vdW  Elec       q    Type
REMARK                         _______ _______ _______ _____ _____    ______ ____
ROOT
ATOM      1  C   LIG    1       -0.724   2.012   1.250  0.00  0.00    +0.120 A 
ATOM      2  C   LIG    1       -1.760   1.369   1.789  0.00  0.00    -0.130 A 
ATOM      3  S   LIG    1       -2.281   2.265   3.213  0.00  0.00    +0.090 S 
ATOM      4  C   LIG    1       -1.052   3.423   2.947  0.00  0.00    +0.320 A 
ATOM      5  N   LIG    1       -0.362   3.107   1.895  0.00  0.00    -0.550 NA
ENDROOT
BRANCH   4   6
ATOM      6  N   LIG    1       -0.822   4.534   3.743  0.00  0.00    -0.700 N 
ATOM      7  H   LIG    1       -0.101   5.146   3.525  0.00  0.00    +0.410 HD
ATOM      8  C   LIG    1       -1.666   4.784   4.913  0.00  0.00    +0.300 C 
ENDBRANCH   4   6
BRANCH   1   9
ATOM      9  C   LIG    1       -0.019   1.526   0.010  0.00  0.00    +0.070 C 
ATOM     10  C   LIG    1        0.002  -0.004   0.002  0.00  0.00    +0.040 C 
BRANCH   9  12
ATOM     11  C   LIG    1        0.025   1.645  -2.485  0.00  0.00    +0.030 C 
ATOM     12  C   LIG    1       -0.759   2.033  -1.229  0.00  0.00    +0.010 C 
ENDBRANCH   9  12
ENDBRANCH   1   9
TORSDOF 3
