REMARK  Name = ZINCnE000001UaFd.1
REMARK                            x       y       z     vdW  Elec       q    Type
REMARK                         _______ _______ _______ _____ _____    ______ ____
ROOT
ATOM      1  O   LIG    1       -0.939   8.231   0.812  0.00  0.00    -1.040 OA
ATOM      2  S   LIG    1       -1.938   7.225   0.725  0.00  0.00    +2.570 S 
ATOM      3  O   LIG    1       -2.778   7.060  -0.409  0.00  0.00    -1.040 OA
ENDROOT
BRANCH   2   4
ATOM      4  C   LIG    1       -3.007   7.465   2.106  0.00  0.00    -0.630 A 
ATOM      5  C   LIG    1       -2.779   8.509   2.982  0.00  0.00    +0.170 A 
ATOM      6  C   LIG    1       -3.616   8.700   4.066  0.00  0.00    +0.000 A 
ATOM      7  C   LIG    1       -4.684   7.844   4.275  0.00  0.00    +0.130 A 
ATOM      8  C   LIG    1       -4.914   6.796   3.398  0.00  0.00    +0.000 A 
ATOM      9  F   LIG    1       -5.956   5.960   3.600  0.00  0.00    -0.120 F 
ATOM     10  F   LIG    1       -5.502   8.031   5.334  0.00  0.00    -0.120 F 
ATOM     11  C   LIG    1       -4.077   6.611   2.308  0.00  0.00    +0.200 A 
ATOM     12  F   LIG    1       -4.303   5.593   1.448  0.00  0.00    -0.090 F 
ENDBRANCH   2   4
BRANCH   2  13
ATOM     13  N   LIG    1       -1.165   5.778   0.950  0.00  0.00    -1.140 NA
BRANCH  13  14
ATOM     14  C   LIG    1       -0.180   5.314  -0.030  0.00  0.00    +0.230 C 
ATOM     15  C   LIG    1        1.219   5.717   0.433  0.00  0.00    -0.010 C 
ATOM     16  C   LIG    1        2.245   5.040  -0.484  0.00  0.00    +0.000 C 
ATOM     17  C   LIG    1        2.232   3.540  -0.197  0.00  0.00    +0.060 C 
ATOM     18  C   LIG    1        0.825   3.003  -0.249  0.00  0.00    -0.090 A 
ATOM     19  C   LIG    1        0.662   1.631  -0.382  0.00  0.00    -0.030 A 
ATOM     20  C   LIG    1       -0.601   1.077  -0.430  0.00  0.00    -0.030 A 
ATOM     21  C   LIG    1       -1.713   1.894  -0.349  0.00  0.00    -0.030 A 
ATOM     22  C   LIG    1       -1.552   3.257  -0.211  0.00  0.00    +0.050 A 
ATOM     23  C   LIG    1       -0.282   3.817  -0.166  0.00  0.00    -0.020 A 
ENDBRANCH  13  14
ENDBRANCH   2  13
TORSDOF 3
