REMARK  Name = ZINCrH000004v6P5.0
REMARK                            x       y       z     vdW  Elec       q    Type
REMARK                         _______ _______ _______ _____ _____    ______ ____
ROOT
ATOM      1  O   LIG    1        3.976  -0.514   0.562  0.00  0.00    -0.550 OA
ATOM      2  C   LIG    1        4.896   0.034  -0.014  0.00  0.00    +0.700 C 
ATOM      3  N   LIG    1        4.723   1.258  -0.550  0.00  0.00    -0.720 N 
ATOM      4  H   LIG    1        5.431   1.663  -1.074  0.00  0.00    +0.400 HD
ATOM      5  N   LIG    1        6.090  -0.583  -0.115  0.00  0.00    -0.680 N 
ATOM      6  H   LIG    1        6.802  -0.180  -0.636  0.00  0.00    +0.410 HD
ENDROOT
BRANCH   5   7
ATOM      7  C   LIG    1        6.303  -1.809   0.532  0.00  0.00    +0.090 A 
ATOM      8  C   LIG    1        5.715  -2.065   1.769  0.00  0.00    +0.100 A 
ATOM      9  C   LIG    1        5.952  -3.287   2.371  0.00  0.00    -0.020 A 
ATOM     10  C   LIG    1        6.764  -4.214   1.726  0.00  0.00    +0.290 A 
ATOM     11  N   LIG    1        7.306  -3.937   0.551  0.00  0.00    -0.500 NA
ATOM     12  C   LIG    1        7.096  -2.783  -0.054  0.00  0.00    +0.260 A 
BRANCH  10  13
ATOM     13  N   LIG    1        7.010  -5.448   2.324  0.00  0.00    -0.480 N 
ATOM     14  C   LIG    1        7.584  -5.277   3.667  0.00  0.00    +0.170 C 
ATOM     15  C   LIG    1        7.782  -6.653   4.309  0.00  0.00    +0.230 C 
ATOM     16  O   LIG    1        8.611  -7.454   3.463  0.00  0.00    -0.380 OA
ATOM     17  C   LIG    1        8.082  -7.641   2.147  0.00  0.00    +0.220 C 
ATOM     18  C   LIG    1        7.886  -6.275   1.483  0.00  0.00    +0.190 C 
ENDBRANCH  10  13
ENDBRANCH   5   7
BRANCH   3  19
ATOM     19  C   LIG    1        3.464   1.978  -0.341  0.00  0.00    +0.210 C 
ATOM     20  C   LIG    1        3.289   2.511   1.090  0.00  0.00    +0.040 C 
ATOM     21  C   LIG    1        4.001   3.791   0.615  0.00  0.00    +0.020 C 
ATOM     22  C   LIG    1        3.509   3.444  -0.801  0.00  0.00    +0.050 C 
BRANCH  19  23
ATOM     23  C   LIG    1        2.265   1.221  -0.854  0.00  0.00    -0.060 A 
ATOM     24  C   LIG    1        2.430   0.220  -1.793  0.00  0.00    +0.040 A 
ATOM     25  C   LIG    1        1.332  -0.475  -2.263  0.00  0.00    +0.020 A 
ATOM     26  C   LIG    1        0.067  -0.168  -1.794  0.00  0.00    -0.030 A 
ATOM     27  C   LIG    1       -0.098   0.835  -0.855  0.00  0.00    +0.020 A 
ATOM     28 CL   LIG    1       -1.313  -1.039  -2.385  0.00  0.00    -0.070 Cl
ATOM     29  C   LIG    1        1.002   1.528  -0.386  0.00  0.00    +0.030 A 
ENDBRANCH  19  23
ENDBRANCH   3  19
TORSDOF 4
