REMARK  Name = ZINCpk00000y6xGR.0
REMARK                            x       y       z     vdW  Elec       q    Type
REMARK                         _______ _______ _______ _____ _____    ______ ____
ROOT
ATOM      1  N   LIG    1       -0.067   1.120  -2.437  0.00  0.00    -0.990 NA
ENDROOT
BRANCH   1   3
ATOM      2  C   LIG    1        2.638   1.582  -2.487  0.00  0.00    -0.280 C 
ATOM      3  S   LIG    1        1.045   2.089  -3.191  0.00  0.00    +2.590 S 
ATOM      4  O   LIG    1        0.709   3.403  -2.767  0.00  0.00    -0.950 OA
ATOM      5  O   LIG    1        0.963   1.717  -4.559  0.00  0.00    -0.920 OA
ENDBRANCH   1   3
BRANCH   1   6
ATOM      6  C   LIG    1       -0.365  -0.209  -2.975  0.00  0.00    +0.440 C 
BRANCH   6   7
ATOM      7  C   LIG    1       -1.575  -0.129  -3.870  0.00  0.00    +0.150 A 
ATOM      8  N   LIG    1       -1.575   0.106  -5.156  0.00  0.00    -0.250 NA
ATOM      9  N   LIG    1       -2.784   0.092  -5.600  0.00  0.00    -0.280 NA
ATOM     10  C   LIG    1       -3.603  -0.158  -4.622  0.00  0.00    +0.170 A 
ATOM     11  C   LIG    1       -5.101  -0.310  -4.686  0.00  0.00    +0.140 C 
ATOM     12  C   LIG    1       -5.727   0.463  -3.528  0.00  0.00    +0.230 C 
ATOM     13  O   LIG    1       -5.782  -0.367  -2.370  0.00  0.00    -0.370 OA
ATOM     14  C   LIG    1       -4.704  -1.297  -2.246  0.00  0.00    +0.240 C 
ATOM     15  C   LIG    1       -3.376  -0.541  -2.148  0.00  0.00    +0.270 C 
ATOM     16  N   LIG    1       -2.861  -0.293  -3.495  0.00  0.00    -0.470 N 
ENDBRANCH   6   7
ENDBRANCH   1   6
BRANCH   1  17
ATOM     17  C   LIG    1       -0.753   1.593  -1.232  0.00  0.00    +0.290 C 
BRANCH  17  18
ATOM     18  C   LIG    1       -0.013   1.086   0.008  0.00  0.00    +0.020 C 
BRANCH  18  19
ATOM     19  C   LIG    1       -0.729   1.579   1.267  0.00  0.00    -0.020 C 
ATOM     20  C   LIG    1        0.066   1.167   2.523  0.00  0.00    +0.040 C 
ATOM     21  C   LIG    1       -1.025   0.817   3.565  0.00  0.00    +0.040 C 
ATOM     22  C   LIG    1       -2.107   0.118   2.705  0.00  0.00    +0.030 C 
ATOM     23  C   LIG    1       -2.111   0.913   1.382  0.00  0.00    +0.280 C 
ATOM     24  F   LIG    1       -2.318   0.048   0.303  0.00  0.00    -0.200 F 
ATOM     25  F   LIG    1       -3.113   1.890   1.412  0.00  0.00    -0.190 F 
ENDBRANCH  18  19
ENDBRANCH  17  18
ENDBRANCH   1  17
TORSDOF 6
