REMARK  Name = ZINCpk000000oEn9.0
REMARK                            x       y       z     vdW  Elec       q    Type
REMARK                         _______ _______ _______ _____ _____    ______ ____
ROOT
ATOM      1  N   LIG    1       -1.156  -0.694   0.009  0.00  0.00    -0.730 N 
ATOM      2  H   LIG    1       -2.002  -0.220   0.020  0.00  0.00    +0.400 HD
ATOM      3  C   LIG    1        0.002  -0.004   0.002  0.00  0.00    +0.530 C 
ATOM      4  O   LIG    1        1.060  -0.596  -0.011  0.00  0.00    -0.530 OA
ENDROOT
BRANCH   3   5
ATOM      5  C   LIG    1       -0.018   1.503   0.010  0.00  0.00    +0.000 C 
ATOM      6  C   LIG    1       -0.563   2.041   1.354  0.00  0.00    +0.080 C 
ATOM      7  C   LIG    1        0.268   3.277   1.622  0.00  0.00    +0.520 C 
ATOM      8  N   LIG    1        1.367   3.272   0.847  0.00  0.00    -0.620 N 
ATOM      9  O   LIG    1       -0.015   4.145   2.421  0.00  0.00    -0.510 OA
ATOM     10  C   LIG    1        1.416   2.075  -0.000  0.00  0.00    +0.290 C 
BRANCH   8  11
ATOM     11  C   LIG    1        2.384   4.327   0.849  0.00  0.00    +0.320 C 
BRANCH  11  12
ATOM     12  C   LIG    1        2.013   5.394  -0.182  0.00  0.00    +0.150 C 
BRANCH  12  13
ATOM     13  O   LIG    1        0.800   6.038   0.213  0.00  0.00    -0.380 OA
ATOM     14  C   LIG    1        0.363   7.058  -0.687  0.00  0.00    +0.200 C 
ENDBRANCH  12  13
ENDBRANCH  11  12
ENDBRANCH   8  11
ENDBRANCH   3   5
BRANCH   1  15
ATOM     15  C   LIG    1       -1.136  -2.159   0.001  0.00  0.00    +0.270 C 
BRANCH  15  16
ATOM     16  C   LIG    1       -2.571  -2.688   0.012  0.00  0.00    +0.180 C 
BRANCH  16  17
ATOM     17  N   LIG    1       -2.551  -4.157   0.004  0.00  0.00    -0.490 N 
BRANCH  17  18
ATOM     18  C   LIG    1       -3.831  -4.674  -0.213  0.00  0.00    +0.090 A 
ATOM     19  C   LIG    1       -4.859  -4.381   0.673  0.00  0.00    -0.030 A 
ATOM     20  C   LIG    1       -6.123  -4.893   0.456  0.00  0.00    +0.000 A 
ATOM     21  C   LIG    1       -6.365  -5.697  -0.643  0.00  0.00    +0.000 A 
ATOM     22  C   LIG    1       -5.343  -5.991  -1.528  0.00  0.00    +0.010 A 
ATOM     23  C   LIG    1       -4.079  -5.477  -1.319  0.00  0.00    -0.060 A 
ATOM     24  C   LIG    1       -2.967  -5.793  -2.287  0.00  0.00    +0.100 C 
ENDBRANCH  17  18
BRANCH  17  26
ATOM     25  C   LIG    1       -1.741  -6.188   1.107  0.00  0.00    +0.020 C 
ATOM     26  C   LIG    1       -1.976  -4.683   1.249  0.00  0.00    +0.170 C 
ENDBRANCH  17  26
ENDBRANCH  16  17
ENDBRANCH  15  16
ENDBRANCH   1  15
TORSDOF 9
