REMARK  Name = ZINCkj00000y7KMb.0
REMARK                            x       y       z     vdW  Elec       q    Type
REMARK                         _______ _______ _______ _____ _____    ______ ____
ROOT
ATOM      1  C   LIG    1       -2.619  -0.007  -1.887  0.00  0.00    +0.180 C 
ATOM      2  C   LIG    1       -2.322  -1.520  -2.014  0.00  0.00    +0.110 C 
ATOM      3  C   LIG    1       -2.209  -1.997  -0.583  0.00  0.00    +0.500 C 
ATOM      4  N   LIG    1       -2.046  -0.949   0.243  0.00  0.00    -0.620 N 
ATOM      5  C   LIG    1       -1.912  -1.056   1.698  0.00  0.00    +0.330 C 
ATOM      6  O   LIG    1       -2.259  -3.157  -0.232  0.00  0.00    -0.480 OA
ATOM      7  C   LIG    1       -2.019   0.316  -0.501  0.00  0.00    +0.300 C 
ENDROOT
BRANCH   7   8
ATOM      8  C   LIG    1       -0.601   0.804  -0.648  0.00  0.00    -0.190 A 
ATOM      9  C   LIG    1       -0.316   2.160  -0.594  0.00  0.00    +0.090 A 
ATOM     10  C   LIG    1        1.003   2.564  -0.740  0.00  0.00    -0.020 A 
ATOM     11  C   LIG    1        1.983   1.608  -0.927  0.00  0.00    +0.290 A 
ATOM     12  N   LIG    1        1.676   0.326  -0.967  0.00  0.00    -0.470 NA
ATOM     13  C   LIG    1        0.433  -0.094  -0.832  0.00  0.00    +0.280 A 
ENDBRANCH   7   8
BRANCH   1  14
ATOM     14  N   LIG    1       -4.065   0.248  -1.907  0.00  0.00    -0.500 N 
ATOM     15  H   LIG    1       -4.243   1.199  -1.621  0.00  0.00    +0.440 HD
ATOM     16  H   LIG    1       -4.527  -0.386  -1.272  0.00  0.00    +0.430 HD
BRANCH  14  17
ATOM     17  C   LIG    1       -4.581   0.042  -3.266  0.00  0.00    +0.180 C 
BRANCH  17  19
ATOM     18  C   LIG    1       -6.698  -0.990  -2.430  0.00  0.00    +0.030 C 
ATOM     19  C   LIG    1       -6.107   0.155  -3.256  0.00  0.00    +0.070 C 
ENDBRANCH  17  19
BRANCH  17  20
ATOM     20  C   LIG    1       -3.997   1.104  -4.200  0.00  0.00    +0.200 C 
BRANCH  20  21
ATOM     21  O   LIG    1       -4.470   2.394  -3.809  0.00  0.00    -0.400 OA
ATOM     22  C   LIG    1       -3.981   3.463  -4.621  0.00  0.00    +0.240 C 
ENDBRANCH  20  21
ENDBRANCH  17  20
ENDBRANCH  14  17
ENDBRANCH   1  14
TORSDOF 6
