REMARK  Name = ZINCpe000000YeHu.0
REMARK                            x       y       z     vdW  Elec       q    Type
REMARK                         _______ _______ _______ _____ _____    ______ ____
ROOT
ATOM      1  C   LIG    1        3.026   3.388   0.921  0.00  0.00    +0.340 C 
ATOM      2  N   LIG    1        1.677   3.040   0.467  0.00  0.00    -0.510 N 
ATOM      3  C   LIG    1        0.760   4.008   0.280  0.00  0.00    +0.710 A 
ATOM      4  N   LIG    1       -0.485   3.728  -0.141  0.00  0.00    -0.650 N 
ATOM      5  H   LIG    1       -1.120   4.450  -0.269  0.00  0.00    +0.440 HD
ATOM      6  C   LIG    1       -0.865   2.458  -0.389  0.00  0.00    +0.600 A 
ATOM      7  C   LIG    1        0.059   1.414  -0.202  0.00  0.00    -0.150 A 
ATOM      8  N   LIG    1        0.012   0.035  -0.357  0.00  0.00    -0.390 N 
ATOM      9  C   LIG    1       -1.139  -0.756  -0.799  0.00  0.00    +0.360 C 
ATOM     10  C   LIG    1        1.240  -0.439  -0.017  0.00  0.00    +0.450 A 
ATOM     11  N   LIG    1        2.017   0.567   0.329  0.00  0.00    -0.510 NA
ATOM     12  O   LIG    1       -1.997   2.217  -0.770  0.00  0.00    -0.510 OA
ATOM     13  O   LIG    1        1.068   5.165   0.493  0.00  0.00    -0.530 OA
ATOM     14  C   LIG    1        1.345   1.716   0.234  0.00  0.00    +0.330 A 
ENDROOT
BRANCH  10  15
ATOM     15  N   LIG    1        1.613  -1.763  -0.034  0.00  0.00    -0.450 N 
ATOM     16  C   LIG    1        2.539  -2.069   1.086  0.00  0.00    +0.240 C 
ATOM     17  C   LIG    1        3.243  -3.368   0.628  0.00  0.00    +0.010 C 
ATOM     18  C   LIG    1        4.571  -3.510   1.350  0.00  0.00    +0.030 C 
ATOM     19  C   LIG    1        5.348  -4.741   0.854  0.00  0.00    +0.010 C 
ATOM     20  C   LIG    1        6.484  -4.187  -0.064  0.00  0.00    +0.020 C 
ATOM     21  C   LIG    1        5.815  -3.740  -1.329  0.00  0.00    +0.000 C 
ATOM     22  C   LIG    1        4.812  -2.628  -1.157  0.00  0.00    +0.060 C 
ATOM     23  C   LIG    1        3.400  -3.159  -0.906  0.00  0.00    +0.040 C 
ATOM     24  C   LIG    1        2.355  -2.089  -1.270  0.00  0.00    +0.240 C 
BRANCH  23  25
ATOM     25  C   LIG    1        3.163  -4.415  -1.636  0.00  0.00    +0.220 C 
ATOM     26  N   LIG    1        2.980  -5.384  -2.199  0.00  0.00    -0.420 NA
ENDBRANCH  23  25
ENDBRANCH  10  15
TORSDOF 2
