REMARK  Name = ZINCrH000004rMdt.0
REMARK                            x       y       z     vdW  Elec       q    Type
REMARK                         _______ _______ _______ _____ _____    ______ ____
ROOT
ATOM      1  N   LIG    1        1.525   1.749   1.982  0.00  0.00    -0.720 N 
ATOM      2  H   LIG    1        1.528   2.578   2.486  0.00  0.00    +0.410 HD
ATOM      3  C   LIG    1        0.434   0.958   1.992  0.00  0.00    +0.490 C 
ATOM      4  O   LIG    1        0.430  -0.078   1.361  0.00  0.00    -0.540 OA
ENDROOT
BRANCH   3   5
ATOM      5  C   LIG    1       -0.783   1.363   2.783  0.00  0.00    +0.180 C 
ATOM      6  C   LIG    1       -1.301   2.708   2.269  0.00  0.00    +0.070 C 
BRANCH   5   7
ATOM      7  N   LIG    1       -1.830   0.344   2.628  0.00  0.00    -0.660 NA
ATOM      8  H   LIG    1       -1.835  -0.028   1.690  0.00  0.00    +0.360 HD
BRANCH   7   9
ATOM      9  C   LIG    1       -1.672  -0.728   3.620  0.00  0.00    +0.180 C 
ATOM     10  C   LIG    1       -2.285  -0.287   4.950  0.00  0.00    +0.050 C 
BRANCH   9  11
ATOM     11  C   LIG    1       -2.371  -1.971   3.132  0.00  0.00    -0.070 A 
ATOM     12  C   LIG    1       -3.352  -1.876   2.164  0.00  0.00    +0.040 A 
ATOM     13  C   LIG    1       -3.990  -3.017   1.712  0.00  0.00    +0.020 A 
ATOM     14  C   LIG    1       -3.654  -4.251   2.237  0.00  0.00    +0.020 A 
ATOM     15  C   LIG    1       -2.676  -4.346   3.209  0.00  0.00    +0.020 A 
ATOM     16  C   LIG    1       -2.034  -3.206   3.657  0.00  0.00    -0.030 A 
ATOM     17 CL   LIG    1       -0.806  -3.324   4.878  0.00  0.00    -0.070 Cl
ENDBRANCH   9  11
ENDBRANCH   7   9
ENDBRANCH   5   7
ENDBRANCH   3   5
BRANCH   1  18
ATOM     18  C   LIG    1        2.706   1.358   1.208  0.00  0.00    +0.300 C 
BRANCH  18  21
ATOM     19  N   LIG    1        4.961   2.257   0.735  0.00  0.00    -0.670 N 
ATOM     20  H   LIG    1        5.149   1.444   0.241  0.00  0.00    +0.410 HD
ATOM     21  C   LIG    1        3.777   2.406   1.362  0.00  0.00    +0.510 C 
ATOM     22  O   LIG    1        3.575   3.384   2.051  0.00  0.00    -0.510 OA
BRANCH  19  30
ATOM     23  C   LIG    1        4.159   4.899   0.044  0.00  0.00    +0.080 C 
ATOM     24  C   LIG    1        5.570   4.579   0.468  0.00  0.00    -0.070 A 
ATOM     25  C   LIG    1        6.516   5.583   0.533  0.00  0.00    +0.020 A 
ATOM     26  C   LIG    1        7.812   5.290   0.917  0.00  0.00    +0.020 A 
ATOM     27  C   LIG    1        8.163   3.993   1.241  0.00  0.00    +0.020 A 
ATOM     28  C   LIG    1        7.221   2.985   1.182  0.00  0.00    -0.090 A 
ATOM     29  C   LIG    1        7.605   1.571   1.534  0.00  0.00    +0.080 C 
ATOM     30  C   LIG    1        5.918   3.276   0.797  0.00  0.00    +0.130 A 
ENDBRANCH  19  30
ENDBRANCH  18  21
ENDBRANCH   1  18
TORSDOF 7
