REMARK  Name = ZINCrD00000hQ7gJ.0
REMARK                            x       y       z     vdW  Elec       q    Type
REMARK                         _______ _______ _______ _____ _____    ______ ____
ROOT
ATOM      1  N   LIG    1        2.106   1.159  -1.220  0.00  0.00    -0.550 NA
ATOM      2  C   LIG    1        1.444   1.674  -2.425  0.00  0.00    +0.180 C 
ATOM      3  C   LIG    1        0.009   1.145  -2.487  0.00  0.00    +0.040 C 
ATOM      4  C   LIG    1       -0.749   1.594  -1.235  0.00  0.00    +0.030 C 
ATOM      5  C   LIG    1       -0.013   1.086   0.008  0.00  0.00    +0.100 C 
ATOM      6  C   LIG    1        1.423   1.616  -0.003  0.00  0.00    +0.210 C 
ENDROOT
BRANCH   5   7
ATOM      7  C   LIG    1       -0.720   1.573   1.247  0.00  0.00    +0.100 A 
ATOM      8  N   LIG    1       -1.218   0.804   2.140  0.00  0.00    -0.460 NA
ATOM      9  C   LIG    1       -1.823   1.378   3.197  0.00  0.00    +0.080 A 
ATOM     10  C   LIG    1       -2.447   0.781   4.311  0.00  0.00    +0.080 A 
ATOM     11  C   LIG    1       -3.006   1.553   5.284  0.00  0.00    +0.030 A 
ATOM     12  C   LIG    1       -2.972   2.937   5.200  0.00  0.00    +0.040 A 
ATOM     13  C   LIG    1       -2.369   3.548   4.123  0.00  0.00    +0.060 A 
ATOM     14  C   LIG    1       -1.793   2.775   3.118  0.00  0.00    -0.180 A 
ATOM     15  S   LIG    1       -0.950   3.218   1.637  0.00  0.00    +0.100 S 
ENDBRANCH   5   7
BRANCH   1  16
ATOM     16  C   LIG    1        3.526   1.533  -1.198  0.00  0.00    +0.450 C 
BRANCH  16  27
ATOM     17  O   LIG    1        4.986  -0.863  -0.426  0.00  0.00    -0.460 OA
ATOM     18  C   LIG    1        4.845  -0.537  -1.585  0.00  0.00    +0.550 C 
ATOM     19  C   LIG    1        5.247  -1.323  -2.798  0.00  0.00    +0.000 C 
ATOM     20  C   LIG    1        6.494  -2.168  -2.735  0.00  0.00    +0.100 C 
ATOM     21  C   LIG    1        6.865  -2.538  -4.155  0.00  0.00    -0.040 C 
ATOM     22  C   LIG    1        6.421  -1.927  -5.212  0.00  0.00    -0.050 C 
ATOM     23  C   LIG    1        5.485  -0.737  -5.181  0.00  0.00    +0.110 C 
ATOM     24  C   LIG    1        5.559  -0.156  -3.785  0.00  0.00    +0.000 C 
ATOM     25  C   LIG    1        4.507   0.828  -3.370  0.00  0.00    +0.540 C 
ATOM     26  O   LIG    1        3.962   1.651  -4.073  0.00  0.00    -0.470 OA
ATOM     27  N   LIG    1        4.287   0.612  -2.047  0.00  0.00    -0.580 N 
ENDBRANCH  16  27
ENDBRANCH   1  16
TORSDOF 3
