REMARK  Name = ZINCtV00001bB3wP.0
REMARK                            x       y       z     vdW  Elec       q    Type
REMARK                         _______ _______ _______ _____ _____    ______ ____
ROOT
ATOM      1  N   LIG    1        7.876   3.936  -0.235  0.00  0.00    -0.290 NA
ATOM      2  C   LIG    1        9.093   4.378  -0.367  0.00  0.00    +0.310 C 
ENDROOT
BRANCH   2   3
ATOM      3  C   LIG    1       10.217   3.437  -0.383  0.00  0.00    -0.070 A 
ATOM      4  C   LIG    1       11.544   3.912  -0.400  0.00  0.00    +0.000 A 
ATOM      5  C   LIG    1       11.822   5.290  -0.402  0.00  0.00    +0.000 A 
ATOM      6  C   LIG    1       13.114   5.715  -0.418  0.00  0.00    +0.040 A 
ATOM      7  C   LIG    1       14.179   4.816  -0.434  0.00  0.00    +0.010 A 
ATOM      8  C   LIG    1       13.979   3.473  -0.420  0.00  0.00    +0.040 A 
ATOM      9  C   LIG    1       12.662   2.965  -0.410  0.00  0.00    -0.070 A 
ATOM     10  C   LIG    1       12.421   1.591  -0.414  0.00  0.00    +0.090 A 
ATOM     11  C   LIG    1       11.111   1.113  -0.404  0.00  0.00    -0.070 A 
ATOM     12  C   LIG    1       10.843  -0.273  -0.409  0.00  0.00    +0.030 A 
ATOM     13  C   LIG    1        9.555  -0.707  -0.399  0.00  0.00    +0.010 A 
ATOM     14  C   LIG    1        8.483   0.184  -0.383  0.00  0.00    +0.020 A 
ATOM     15  C   LIG    1        8.675   1.531  -0.378  0.00  0.00    +0.020 A 
ATOM     16  C   LIG    1        9.983   2.046  -0.388  0.00  0.00    +0.000 A 
ENDBRANCH   2   3
BRANCH   1  17
ATOM     17  N   LIG    1        6.802   4.835  -0.220  0.00  0.00    -0.540 N 
ATOM     18  H   LIG    1        6.965   5.787  -0.307  0.00  0.00    +0.420 HD
BRANCH  17  19
ATOM     19  C   LIG    1        5.541   4.377  -0.084  0.00  0.00    +0.580 C 
ATOM     20  S   LIG    1        4.229   5.476  -0.065  0.00  0.00    -0.590 S 
BRANCH  19  21
ATOM     21  N   LIG    1        5.314   3.054   0.037  0.00  0.00    -0.610 N 
ATOM     22  H   LIG    1        6.060   2.439   0.109  0.00  0.00    +0.410 HD
BRANCH  21  26
ATOM     23  C   LIG    1        1.408   1.609   0.104  0.00  0.00    -0.070 A 
ATOM     24  C   LIG    1        2.351   1.088   0.971  0.00  0.00    +0.020 A 
ATOM     25  C   LIG    1        3.648   1.562   0.947  0.00  0.00    +0.000 A 
ATOM     26  C   LIG    1        4.003   2.569   0.059  0.00  0.00    +0.110 A 
ATOM     27  C   LIG    1        3.052   3.094  -0.806  0.00  0.00    +0.070 A 
ATOM     28  C   LIG    1        1.757   2.613  -0.781  0.00  0.00    +0.020 A 
BRANCH  23  30
ATOM     29  C   LIG    1       -0.608   1.310   1.517  0.00  0.00    +0.030 C 
ATOM     30  C   LIG    1       -0.005   1.087   0.128  0.00  0.00    +0.020 C 
ATOM     31  C   LIG    1       -0.002  -0.409  -0.192  0.00  0.00    +0.040 C 
ENDBRANCH  23  30
ENDBRANCH  21  26
ENDBRANCH  19  21
ENDBRANCH  17  19
ENDBRANCH   1  17
TORSDOF 6
