REMARK  Name = ZINCqH0000000vn7.0
REMARK                            x       y       z     vdW  Elec       q    Type
REMARK                         _______ _______ _______ _____ _____    ______ ____
ROOT
ATOM      1  C   LIG    1       -5.348   4.372   3.834  0.00  0.00    +0.210 A 
ATOM      2  N   LIG    1       -5.018   3.186   3.386  0.00  0.00    -0.450 NA
ATOM      3  C   LIG    1       -4.065   2.730   4.231  0.00  0.00    +0.210 A 
ATOM      4  N   LIG    1       -3.868   3.660   5.128  0.00  0.00    -0.360 NA
ATOM      5  O   LIG    1       -4.596   4.607   4.914  0.00  0.00    +0.100 OA
ENDROOT
BRANCH   1   8
ATOM      6  C   LIG    1       -7.225   6.327   4.888  0.00  0.00    -0.050 C 
ATOM      7  C   LIG    1       -7.745   5.229   3.940  0.00  0.00    +0.090 C 
ATOM      8  C   LIG    1       -6.377   5.299   3.241  0.00  0.00    +0.100 C 
ATOM      9  C   LIG    1       -6.273   6.744   3.755  0.00  0.00    -0.050 C 
ATOM     10  C   LIG    1       -6.871   7.779   2.799  0.00  0.00    +0.080 C 
ATOM     11  C   LIG    1       -4.872   7.123   4.240  0.00  0.00    +0.040 C 
BRANCH   6  13
ATOM     12  C   LIG    1       -5.875   6.736   7.084  0.00  0.00    +0.070 C 
ATOM     13  C   LIG    1       -6.517   5.788   6.104  0.00  0.00    +0.370 C 
ATOM     14  O   LIG    1       -6.463   4.596   6.293  0.00  0.00    -0.450 OA
ENDBRANCH   6  13
ENDBRANCH   1   8
BRANCH   3  15
ATOM     15  C   LIG    1       -3.369   1.422   4.150  0.00  0.00    +0.240 A 
ATOM     16  C   LIG    1       -2.402   1.097   5.095  0.00  0.00    -0.010 A 
ATOM     17  C   LIG    1       -1.758  -0.129   5.010  0.00  0.00    +0.120 A 
ATOM     18  C   LIG    1       -2.103  -0.988   3.982  0.00  0.00    -0.010 A 
ATOM     19  C   LIG    1       -3.079  -0.601   3.070  0.00  0.00    +0.330 A 
ATOM     20  N   LIG    1       -3.671   0.575   3.173  0.00  0.00    -0.510 NA
BRANCH  19  21
ATOM     21  O   LIG    1       -3.422  -1.438   2.059  0.00  0.00    -0.290 OA
BRANCH  21  22
ATOM     22  C   LIG    1       -4.431  -0.984   1.155  0.00  0.00    +0.270 C 
BRANCH  22  23
ATOM     23  C   LIG    1       -4.682  -2.054   0.091  0.00  0.00    +0.460 C 
ATOM     24  F   LIG    1       -5.669  -1.609  -0.795  0.00  0.00    -0.170 F 
ATOM     25  F   LIG    1       -3.498  -2.297  -0.615  0.00  0.00    -0.170 F 
ATOM     26  F   LIG    1       -5.107  -3.235   0.709  0.00  0.00    -0.170 F 
ENDBRANCH  22  23
ENDBRANCH  21  22
ENDBRANCH  19  21
ENDBRANCH   3  15
TORSDOF 6
