REMARK  Name = ZINCfA000000JmlK.0
REMARK                            x       y       z     vdW  Elec       q    Type
REMARK                         _______ _______ _______ _____ _____    ______ ____
ROOT
ATOM      1  C   LIG    1       -2.971   2.824   0.043  0.00  0.00    -0.080 A 
ATOM      2  C   LIG    1       -2.484   4.061  -0.334  0.00  0.00    +0.060 A 
ATOM      3  C   LIG    1       -3.318   5.164  -0.326  0.00  0.00    +0.100 A 
ATOM      4  C   LIG    1       -4.636   5.030   0.069  0.00  0.00    -0.160 A 
ATOM      5  C   LIG    1       -5.121   3.793   0.452  0.00  0.00    +0.100 A 
ATOM      6  C   LIG    1       -4.288   2.690   0.438  0.00  0.00    +0.000 A 
ENDROOT
BRANCH   1   7
ATOM      7  C   LIG    1       -2.063   1.621   0.029  0.00  0.00    +0.060 C 
ATOM      8  C   LIG    1       -0.959   1.695  -1.040  0.00  0.00    +0.100 C 
ATOM      9  C   LIG    1       -0.013   1.086   0.008  0.00  0.00    +0.040 C 
ATOM     10  C   LIG    1       -0.939   1.683   1.080  0.00  0.00    +0.100 C 
BRANCH   7  11
ATOM     11  N   LIG    1       -2.798   0.349   0.028  0.00  0.00    -0.620 N 
ATOM     12  H   LIG    1       -3.239   0.216  -0.870  0.00  0.00    +0.440 HD
ATOM     13  H   LIG    1       -3.503   0.368   0.749  0.00  0.00    +0.440 HD
ATOM     14  H   LIG    1       -2.157  -0.410   0.204  0.00  0.00    +0.440 HD
ENDBRANCH   7  11
ENDBRANCH   1   7
BRANCH   4  15
ATOM     15  C   LIG    1       -5.544   6.233   0.084  0.00  0.00    +0.500 C 
ATOM     16  F   LIG    1       -6.860   5.827  -0.165  0.00  0.00    -0.170 F 
ATOM     17  F   LIG    1       -5.140   7.134  -0.907  0.00  0.00    -0.170 F 
ATOM     18  F   LIG    1       -5.476   6.854   1.335  0.00  0.00    -0.170 F 
ENDBRANCH   4  15
TORSDOF 3
