REMARK  Name = ZINCrD000006V6xV.2
REMARK                            x       y       z     vdW  Elec       q    Type
REMARK                         _______ _______ _______ _____ _____    ______ ____
ROOT
ATOM      1  C   LIG    1       -8.178   7.713   2.747  0.00  0.00    +0.100 A 
ATOM      2  C   LIG    1       -7.133   8.313   2.068  0.00  0.00    -0.030 A 
ATOM      3  C   LIG    1       -5.937   7.635   1.879  0.00  0.00    -0.060 A 
ATOM      4  C   LIG    1       -5.785   6.357   2.372  0.00  0.00    -0.080 A 
ATOM      5  C   LIG    1       -4.504   5.584   2.196  0.00  0.00    +0.230 C 
ATOM      6  N   LIG    1       -3.686   6.181   1.135  0.00  0.00    -0.530 NA
ATOM      7  C   LIG    1       -3.501   7.619   1.383  0.00  0.00    +0.170 C 
ATOM      8  C   LIG    1       -6.832   5.750   3.053  0.00  0.00    -0.040 A 
ATOM      9  C   LIG    1       -4.830   8.330   1.128  0.00  0.00    +0.100 C 
ATOM     10  C   LIG    1       -8.026   6.421   3.243  0.00  0.00    +0.100 A 
ENDROOT
BRANCH   1  12
ATOM     11  C   LIG    1       -9.430   9.704   2.392  0.00  0.00    +0.240 C 
ATOM     12  O   LIG    1       -9.348   8.382   2.929  0.00  0.00    -0.310 OA
ENDBRANCH   1  12
BRANCH  10  13
ATOM     13  O   LIG    1       -9.047   5.822   3.911  0.00  0.00    -0.310 OA
ATOM     14  C   LIG    1       -8.819   4.495   4.391  0.00  0.00    +0.230 C 
ENDBRANCH  10  13
BRANCH   6  15
ATOM     15  C   LIG    1       -2.392   5.495   1.020  0.00  0.00    +0.210 C 
BRANCH  15  16
ATOM     16  C   LIG    1       -2.616   4.059   0.543  0.00  0.00    +0.070 C 
BRANCH  16  17
ATOM     17  C   LIG    1       -1.288   3.356   0.426  0.00  0.00    +0.520 C 
ATOM     18  N   LIG    1       -1.239   2.072   0.019  0.00  0.00    -0.680 N 
ATOM     19  H   LIG    1       -2.050   1.623  -0.268  0.00  0.00    +0.410 HD
ATOM     20  O   LIG    1       -0.263   3.946   0.697  0.00  0.00    -0.520 OA
BRANCH  18  21
ATOM     21  C   LIG    1       -0.017   1.385   0.011  0.00  0.00    +0.060 A 
ATOM     22  C   LIG    1        0.771   1.377  -1.134  0.00  0.00    +0.140 A 
ATOM     23  C   LIG    1        1.973   0.694  -1.139  0.00  0.00    -0.010 A 
ATOM     24  C   LIG    1        2.392   0.018  -0.008  0.00  0.00    +0.100 A 
ATOM     25  C   LIG    1        1.611   0.024   1.133  0.00  0.00    -0.010 A 
ATOM     26  F   LIG    1        0.362   2.037  -2.240  0.00  0.00    -0.120 F 
ATOM     27  C   LIG    1        0.407   0.705   1.147  0.00  0.00    +0.140 A 
ATOM     28  F   LIG    1       -0.355   0.709   2.262  0.00  0.00    -0.120 F 
ENDBRANCH  18  21
ENDBRANCH  16  17
ENDBRANCH  15  16
ENDBRANCH   6  15
TORSDOF 6
