REMARK  Name = ZINCrH00000tj10i.0
REMARK                            x       y       z     vdW  Elec       q    Type
REMARK                         _______ _______ _______ _____ _____    ______ ____
ROOT
ATOM      1  C   LIG    1       -0.637   1.844   3.597  0.00  0.00    -0.100 A 
ATOM      2  C   LIG    1       -0.176   3.042   4.107  0.00  0.00    +0.090 A 
ATOM      3  C   LIG    1       -0.823   3.634   5.177  0.00  0.00    -0.120 A 
ATOM      4  C   LIG    1       -1.924   3.021   5.747  0.00  0.00    +0.100 A 
ATOM      5  C   LIG    1       -2.385   1.818   5.244  0.00  0.00    -0.200 A 
ATOM      6  C   LIG    1       -3.582   1.155   5.877  0.00  0.00    +0.300 C 
ATOM      7  O   LIG    1       -4.096   0.159   4.987  0.00  0.00    -0.370 OA
ATOM      8  C   LIG    1       -3.080  -0.714   4.477  0.00  0.00    +0.390 C 
ATOM      9  O   LIG    1       -2.192   0.050   3.656  0.00  0.00    -0.300 OA
ATOM     10 BR   LIG    1       -0.196   5.279   5.868  0.00  0.00    -0.050 Br
ATOM     11  C   LIG    1       -1.744   1.228   4.166  0.00  0.00    +0.180 A 
ENDROOT
BRANCH   8  12
ATOM     12  C   LIG    1       -3.717  -1.804   3.655  0.00  0.00    -0.090 A 
ATOM     13  C   LIG    1       -3.317  -2.007   2.347  0.00  0.00    +0.050 A 
ATOM     14  C   LIG    1       -3.898  -3.010   1.595  0.00  0.00    +0.010 A 
ATOM     15  C   LIG    1       -4.886  -3.805   2.147  0.00  0.00    +0.010 A 
ATOM     16  C   LIG    1       -5.289  -3.599   3.453  0.00  0.00    +0.010 A 
ATOM     17  C   LIG    1       -4.705  -2.599   4.207  0.00  0.00    +0.040 A 
ENDBRANCH   8  12
BRANCH   1  18
ATOM     18  C   LIG    1        0.064   1.203   2.428  0.00  0.00    +0.250 C 
BRANCH  18  23
ATOM     19  C   LIG    1        1.918  -2.072   2.313  0.00  0.00    +0.010 C 
ATOM     20  C   LIG    1        3.154  -1.669   3.123  0.00  0.00    +0.030 C 
ATOM     21  C   LIG    1        2.728  -0.731   4.255  0.00  0.00    +0.030 C 
ATOM     22  C   LIG    1        2.020   0.489   3.661  0.00  0.00    +0.170 C 
ATOM     23  N   LIG    1        0.846   0.051   2.897  0.00  0.00    -0.530 NA
ATOM     24  C   LIG    1        1.234  -0.813   1.775  0.00  0.00    +0.200 C 
BRANCH  19  28
ATOM     25  N   LIG    1        2.962  -4.119   1.396  0.00  0.00    -0.860 N 
ATOM     26  H   LIG    1        3.231  -4.683   0.654  0.00  0.00    +0.400 HD
ATOM     27  H   LIG    1        3.143  -4.397   2.308  0.00  0.00    +0.400 HD
ATOM     28  C   LIG    1        2.336  -2.949   1.160  0.00  0.00    +0.520 C 
ATOM     29  O   LIG    1        2.109  -2.601   0.021  0.00  0.00    -0.540 OA
ENDBRANCH  19  28
ENDBRANCH  18  23
ENDBRANCH   1  18
TORSDOF 4
