REMARK  Name = ZINCrD000003UGtz.0
REMARK                            x       y       z     vdW  Elec       q    Type
REMARK                         _______ _______ _______ _____ _____    ______ ____
ROOT
ATOM      1  C   LIG    1       -5.192  -2.873   0.011  0.00  0.00    +0.260 C 
ENDROOT
BRANCH   1   3
ATOM      2  C   LIG    1       -3.685  -0.959   0.014  0.00  0.00    +0.520 C 
ATOM      3  N   LIG    1       -3.845  -2.297   0.008  0.00  0.00    -0.730 N 
ATOM      4  H   LIG    1       -3.069  -2.879   0.001  0.00  0.00    +0.400 HD
ATOM      5  O   LIG    1       -4.655  -0.232   0.023  0.00  0.00    -0.500 OA
BRANCH   2   6
ATOM      6  C   LIG    1       -2.299  -0.366   0.011  0.00  0.00    +0.220 C 
BRANCH   6   7
ATOM      7  O   LIG    1       -2.391   1.060   0.019  0.00  0.00    -0.290 OA
BRANCH   7  14
ATOM      8  C   LIG    1       -2.551   3.881   0.045  0.00  0.00    +0.100 C 
ATOM      9  C   LIG    1       -1.238   3.141   0.029  0.00  0.00    -0.110 A 
ATOM     10  C   LIG    1       -0.049   3.844   0.023  0.00  0.00    +0.050 A 
ATOM     11  C   LIG    1        1.156   3.166   0.008  0.00  0.00    -0.020 A 
ATOM     12  C   LIG    1        1.174   1.783   0.000  0.00  0.00    +0.040 A 
ATOM     13  C   LIG    1       -0.013   1.076   0.008  0.00  0.00    -0.080 A 
ATOM     14  C   LIG    1       -1.223   1.754   0.017  0.00  0.00    +0.120 A 
ENDBRANCH   7  14
ENDBRANCH   6   7
ENDBRANCH   2   6
ENDBRANCH   1   3
BRANCH   1  15
ATOM     15  C   LIG    1       -5.717  -2.951  -1.424  0.00  0.00    -0.030 C 
ATOM     16  C   LIG    1       -5.766  -1.545  -2.026  0.00  0.00    +0.020 C 
ATOM     17  C   LIG    1       -7.124  -3.553  -1.421  0.00  0.00    +0.030 C 
ENDBRANCH   1  15
BRANCH   1  18
ATOM     18  C   LIG    1       -5.144  -4.279   0.613  0.00  0.00    +0.030 C 
BRANCH  18  19
ATOM     19  C   LIG    1       -4.738  -4.190   2.085  0.00  0.00    +0.260 C 
BRANCH  19  20
ATOM     20  N   LIG    1       -4.692  -5.536   2.662  0.00  0.00    -0.720 N 
ATOM     21  H   LIG    1       -4.904  -6.307   2.112  0.00  0.00    +0.400 HD
ATOM     22  C   LIG    1       -4.356  -5.704   3.956  0.00  0.00    +0.500 C 
ATOM     23  O   LIG    1       -4.091  -4.741   4.643  0.00  0.00    -0.520 OA
BRANCH  22  24
ATOM     24  C   LIG    1       -4.308  -7.089   4.548  0.00  0.00    +0.100 C 
ATOM     25  C   LIG    1       -5.728  -7.688   4.606  0.00  0.00    +0.040 C 
ATOM     26  C   LIG    1       -5.749  -8.486   5.934  0.00  0.00    +0.040 C 
ATOM     27  C   LIG    1       -4.926  -7.586   6.888  0.00  0.00    +0.030 C 
ATOM     28  F   LIG    1       -3.473  -7.909   3.783  0.00  0.00    -0.190 F 
ATOM     29  C   LIG    1       -3.797  -7.024   5.999  0.00  0.00    +0.050 C 
ENDBRANCH  22  24
ENDBRANCH  19  20
ENDBRANCH  18  19
ENDBRANCH   1  18
TORSDOF 9
