REMARK  Name = ZINCpe000000U9N4.0
REMARK                            x       y       z     vdW  Elec       q    Type
REMARK                         _______ _______ _______ _____ _____    ______ ____
ROOT
ATOM      1  N   LIG    1        7.103   1.476   0.635  0.00  0.00    -0.530 NA
ATOM      2  C   LIG    1        7.057   0.013   0.510  0.00  0.00    +0.180 C 
ATOM      3  C   LIG    1        6.005  -0.374  -0.534  0.00  0.00    +0.290 C 
ATOM      4  N   LIG    1        4.729   0.258  -0.169  0.00  0.00    -0.610 N 
ATOM      5  C   LIG    1        4.721   1.704   0.102  0.00  0.00    +0.280 C 
ATOM      6  C   LIG    1        3.595  -0.466  -0.089  0.00  0.00    +0.560 C 
ATOM      7  O   LIG    1        3.636  -1.675  -0.210  0.00  0.00    -0.530 OA
ATOM      8  C   LIG    1        5.825   2.009   1.127  0.00  0.00    +0.170 C 
ENDROOT
BRANCH   6   9
ATOM      9  C   LIG    1        2.301   0.209   0.146  0.00  0.00    -0.120 A 
ATOM     10  C   LIG    1        1.314  -0.414   0.911  0.00  0.00    +0.080 A 
ATOM     11  C   LIG    1        0.109   0.221   1.128  0.00  0.00    +0.040 A 
ATOM     12  C   LIG    1       -0.123   1.474   0.587  0.00  0.00    -0.090 A 
ATOM     13  C   LIG    1        0.851   2.097  -0.172  0.00  0.00    +0.020 A 
ATOM     14  C   LIG    1        2.061   1.473  -0.395  0.00  0.00    +0.040 A 
BRANCH  12  15
ATOM     15  C   LIG    1       -1.444   2.160   0.822  0.00  0.00    +0.380 C 
BRANCH  15  16
ATOM     16  N   LIG    1       -1.365   2.968   2.041  0.00  0.00    -0.380 N 
ATOM     17  C   LIG    1       -1.629   4.282   2.155  0.00  0.00    +0.470 A 
ATOM     18  N   LIG    1       -1.444   4.626   3.404  0.00  0.00    -0.550 NA
ATOM     19  C   LIG    1       -1.056   3.566   4.112  0.00  0.00    +0.420 A 
ATOM     20  N   LIG    1       -0.993   2.527   3.321  0.00  0.00    -0.310 NA
ENDBRANCH  15  16
ENDBRANCH  12  15
ENDBRANCH   6   9
BRANCH   1  21
ATOM     21  C   LIG    1        8.215   1.896   1.498  0.00  0.00    +0.190 C 
BRANCH  21  22
ATOM     22  C   LIG    1        7.838   1.667   2.963  0.00  0.00    +0.170 C 
BRANCH  22  24
ATOM     23  C   LIG    1        8.490   2.136   5.329  0.00  0.00    +0.010 C 
ATOM     24  C   LIG    1        8.924   2.254   3.867  0.00  0.00    -0.010 C 
ENDBRANCH  22  24
BRANCH  22  25
ATOM     25  O   LIG    1        7.720   0.264   3.211  0.00  0.00    -0.560 OA
ATOM     26  H   LIG    1        8.531  -0.235   3.043  0.00  0.00    +0.370 HD
ENDBRANCH  22  25
ENDBRANCH  21  22
ENDBRANCH   1  21
TORSDOF 7
