REMARK  Name = ZINCrH000004k0bZ.0
REMARK                            x       y       z     vdW  Elec       q    Type
REMARK                         _______ _______ _______ _____ _____    ______ ____
ROOT
ATOM      1  C   LIG    1        0.590   4.212  -2.920  0.00  0.00    +0.280 C 
ATOM      2  N   LIG    1        1.665   3.924  -1.968  0.00  0.00    -0.610 N 
ATOM      3  C   LIG    1        2.945   3.889  -2.388  0.00  0.00    +0.510 C 
ATOM      4  O   LIG    1        3.843   3.740  -1.586  0.00  0.00    -0.490 OA
ENDROOT
BRANCH   3   5
ATOM      5  C   LIG    1        3.261   4.035  -3.854  0.00  0.00    +0.110 C 
BRANCH   5   6
ATOM      6  C   LIG    1        4.753   3.962  -4.056  0.00  0.00    -0.010 A 
ATOM      7  C   LIG    1        5.513   5.116  -4.019  0.00  0.00    +0.040 A 
ATOM      8  C   LIG    1        6.882   5.048  -4.200  0.00  0.00    +0.100 A 
ATOM      9  C   LIG    1        7.489   3.827  -4.427  0.00  0.00    -0.050 A 
ATOM     10  C   LIG    1        6.729   2.674  -4.470  0.00  0.00    +0.100 A 
ATOM     11  C   LIG    1        5.361   2.741  -4.284  0.00  0.00    +0.040 A 
BRANCH   9  12
ATOM     12  N   LIG    1        8.955   3.755  -4.625  0.00  0.00    +0.030 N 
ATOM     13  O   LIG    1        9.625   4.771  -4.588  0.00  0.00    -0.160 OA
ATOM     14  O   LIG    1        9.490   2.679  -4.826  0.00  0.00    -0.160 OA
ENDBRANCH   9  12
ENDBRANCH   5   6
ENDBRANCH   3   5
BRANCH   2  15
ATOM     15  C   LIG    1        1.349   3.673  -0.560  0.00  0.00    +0.340 C 
BRANCH  15  16
ATOM     16  C   LIG    1        0.957   2.229  -0.382  0.00  0.00    -0.110 A 
ATOM     17  C   LIG    1       -0.377   1.877  -0.331  0.00  0.00    +0.030 A 
ATOM     18  C   LIG    1       -0.738   0.551  -0.168  0.00  0.00    -0.020 A 
ATOM     19  C   LIG    1        0.235  -0.424  -0.055  0.00  0.00    +0.020 A 
ATOM     20  C   LIG    1        1.571  -0.079  -0.105  0.00  0.00    -0.050 A 
ATOM     21  C   LIG    1        1.937   1.251  -0.269  0.00  0.00    +0.120 A 
BRANCH  21  22
ATOM     22  N   LIG    1        3.288   1.605  -0.319  0.00  0.00    -0.470 N 
ATOM     23  C   LIG    1        4.107   0.486  -0.803  0.00  0.00    +0.160 C 
ATOM     24  C   LIG    1        5.553   0.951  -0.983  0.00  0.00    +0.030 C 
ATOM     25  C   LIG    1        6.091   1.461   0.357  0.00  0.00    -0.010 C 
ATOM     26  C   LIG    1        5.193   2.593   0.862  0.00  0.00    +0.030 C 
ATOM     27  C   LIG    1        3.757   2.080   0.989  0.00  0.00    +0.180 C 
ENDBRANCH  21  22
ENDBRANCH  15  16
ENDBRANCH   2  15
TORSDOF 6
