REMARK  Name = ZINCrD00000F5Lnf.0
REMARK                            x       y       z     vdW  Elec       q    Type
REMARK                         _______ _______ _______ _____ _____    ______ ____
ROOT
ATOM      1  N   LIG    1        9.811   1.302  -0.244  0.00  0.00    -0.730 N 
ATOM      2  H   LIG    1        9.640   2.253  -0.316  0.00  0.00    +0.400 HD
ATOM      3  C   LIG    1        8.782   0.438  -0.136  0.00  0.00    +0.550 C 
ATOM      4  O   LIG    1        8.996  -0.756  -0.045  0.00  0.00    -0.550 OA
ENDROOT
BRANCH   3   5
ATOM      5  C   LIG    1        7.407   0.937  -0.130  0.00  0.00    -0.100 C 
ATOM      6  C   LIG    1        6.376   0.072  -0.022  0.00  0.00    +0.140 C 
BRANCH   6   7
ATOM      7  C   LIG    1        4.994   0.573  -0.015  0.00  0.00    -0.110 A 
ATOM      8  C   LIG    1        3.923  -0.322   0.096  0.00  0.00    +0.070 A 
ATOM      9  C   LIG    1        2.631   0.152   0.102  0.00  0.00    +0.000 A 
ATOM     10  C   LIG    1        2.388   1.518  -0.003  0.00  0.00    +0.180 A 
ATOM     11  C   LIG    1        3.449   2.411  -0.120  0.00  0.00    -0.030 A 
ATOM     12  C   LIG    1        4.745   1.947  -0.120  0.00  0.00    +0.060 A 
BRANCH  10  13
ATOM     13  N   LIG    1        1.077   1.993   0.003  0.00  0.00    -0.560 N 
ATOM     14  C   LIG    1        0.712   3.415   0.021  0.00  0.00    +0.260 C 
ATOM     15  C   LIG    1       -0.770   3.454   0.457  0.00  0.00    +0.060 C 
ATOM     16  C   LIG    1       -1.266   2.058   0.008  0.00  0.00    +0.070 C 
ATOM     17  C   LIG    1       -0.014   1.209  -0.007  0.00  0.00    +0.510 C 
ATOM     18  O   LIG    1        0.002  -0.004  -0.030  0.00  0.00    -0.500 OA
ENDBRANCH  10  13
ENDBRANCH   6   7
ENDBRANCH   3   5
BRANCH   1  19
ATOM     19  C   LIG    1       11.188   0.802  -0.251  0.00  0.00    +0.290 C 
BRANCH  19  20
ATOM     20  C   LIG    1       12.157   1.979  -0.382  0.00  0.00    +0.200 C 
BRANCH  20  21
ATOM     21  O   LIG    1       12.061   2.807   0.779  0.00  0.00    -0.310 OA
BRANCH  21  26
ATOM     22  C   LIG    1       15.378   7.355   0.960  0.00  0.00    +0.100 C 
ATOM     23  C   LIG    1       14.491   6.138   0.911  0.00  0.00    -0.120 A 
ATOM     24  C   LIG    1       13.634   5.866   1.962  0.00  0.00    +0.050 A 
ATOM     25  C   LIG    1       12.820   4.752   1.921  0.00  0.00    -0.020 A 
ATOM     26  C   LIG    1       12.861   3.904   0.823  0.00  0.00    +0.120 A 
ATOM     27  C   LIG    1       13.726   4.176  -0.228  0.00  0.00    -0.070 A 
ATOM     28  C   LIG    1       14.534   5.295  -0.184  0.00  0.00    +0.040 A 
ENDBRANCH  21  26
ENDBRANCH  20  21
ENDBRANCH  19  20
ENDBRANCH   1  19
TORSDOF 7
