REMARK  Name = ZINCpe000000YqaE.0
REMARK                            x       y       z     vdW  Elec       q    Type
REMARK                         _______ _______ _______ _____ _____    ______ ____
ROOT
ATOM      1  N   LIG    1        0.191   1.012  -0.733  0.00  0.00    -0.470 N 
ATOM      2  C   LIG    1        1.556   1.555  -0.735  0.00  0.00    +0.200 C 
ATOM      3  C   LIG    1        2.147   1.448   0.675  0.00  0.00    +0.290 C 
ATOM      4  N   LIG    1        2.034   0.052   1.124  0.00  0.00    -0.610 N 
ATOM      5  C   LIG    1        0.722  -0.606   1.027  0.00  0.00    +0.300 C 
ATOM      6  C   LIG    1        3.103  -0.607   1.612  0.00  0.00    +0.570 C 
ATOM      7  O   LIG    1        2.976  -1.734   2.048  0.00  0.00    -0.510 OA
ATOM      8  C   LIG    1        0.187  -0.418  -0.397  0.00  0.00    +0.220 C 
ENDROOT
BRANCH   1  14
ATOM      9  C   LIG    1       -1.725   4.686  -5.172  0.00  0.00    +0.370 C 
ATOM     10  N   LIG    1       -1.166   4.043  -3.981  0.00  0.00    -0.380 N 
ATOM     11  N   LIG    1       -0.514   4.694  -2.926  0.00  0.00    -0.240 NA
ATOM     12  C   LIG    1       -0.145   3.822  -2.032  0.00  0.00    +0.300 A 
ATOM     13  C   LIG    1       -0.545   2.539  -2.467  0.00  0.00    -0.290 A 
ATOM     14  C   LIG    1       -0.432   1.237  -1.945  0.00  0.00    +0.440 A 
ATOM     15  N   LIG    1       -0.936   0.229  -2.648  0.00  0.00    -0.590 NA
ATOM     16  C   LIG    1       -1.539   0.436  -3.806  0.00  0.00    +0.580 A 
ATOM     17  N   LIG    1       -1.669   1.633  -4.334  0.00  0.00    -0.550 NA
ATOM     18  C   LIG    1       -1.192   2.708  -3.707  0.00  0.00    +0.360 A 
ENDBRANCH   1  14
BRANCH   6  19
ATOM     19  C   LIG    1        4.432   0.043   1.617  0.00  0.00    -0.150 A 
ATOM     20  C   LIG    1        5.551  -0.629   1.123  0.00  0.00    +0.310 A 
ATOM     21  N   LIG    1        6.734  -0.050   1.123  0.00  0.00    -0.450 NA
ATOM     22  C   LIG    1        6.914   1.169   1.592  0.00  0.00    +0.280 A 
ATOM     23  C   LIG    1        5.855   1.901   2.105  0.00  0.00    +0.050 A 
ATOM     24  F   LIG    1        6.055   3.149   2.583  0.00  0.00    -0.120 F 
ATOM     25  C   LIG    1        4.589   1.339   2.123  0.00  0.00    +0.070 A 
ENDBRANCH   6  19
TORSDOF 2
