REMARK  Name = ZINCrD000000C7KT.0
REMARK                            x       y       z     vdW  Elec       q    Type
REMARK                         _______ _______ _______ _____ _____    ______ ____
ROOT
ATOM      1  O   LIG    1        4.725   8.062  -1.021  0.00  0.00    -0.490 OA
ATOM      2  C   LIG    1        4.874   9.146  -0.490  0.00  0.00    +0.570 C 
ATOM      3  N   LIG    1        3.811   9.801   0.016  0.00  0.00    -0.670 N 
ATOM      4  H   LIG    1        3.917  10.698   0.371  0.00  0.00    +0.410 HD
ENDROOT
BRANCH   2   5
ATOM      5  C   LIG    1        6.218   9.742  -0.399  0.00  0.00    -0.160 A 
ATOM      6  C   LIG    1        6.392  10.992   0.206  0.00  0.00    +0.090 A 
ATOM      7  C   LIG    1        7.652  11.545   0.294  0.00  0.00    +0.020 A 
ATOM      8  C   LIG    1        8.754  10.865  -0.230  0.00  0.00    +0.090 A 
ATOM      9  O   LIG    1        9.870  11.622  -0.023  0.00  0.00    -0.300 OA
ATOM     10  C   LIG    1        9.507  12.575   0.993  0.00  0.00    +0.440 C 
ATOM     11  C   LIG    1        8.586   9.629  -0.836  0.00  0.00    +0.010 A 
ATOM     12  O   LIG    1        8.084  12.726   0.829  0.00  0.00    -0.300 OA
ATOM     13  C   LIG    1        7.327   9.063  -0.924  0.00  0.00    +0.190 A 
BRANCH  13  14
ATOM     14  O   LIG    1        7.165   7.854  -1.518  0.00  0.00    -0.470 OA
ATOM     15  H   LIG    1        6.993   7.902  -2.469  0.00  0.00    +0.400 HD
ENDBRANCH  13  14
ENDBRANCH   2   5
BRANCH   3  16
ATOM     16  C   LIG    1        2.554   9.188   0.030  0.00  0.00    +0.190 A 
ATOM     17  C   LIG    1        1.405   9.953  -0.131  0.00  0.00    -0.050 A 
ATOM     18  C   LIG    1        0.163   9.347  -0.117  0.00  0.00    +0.070 A 
ATOM     19  C   LIG    1        0.061   7.979   0.051  0.00  0.00    -0.090 A 
ATOM     20  C   LIG    1        1.205   7.211   0.218  0.00  0.00    +0.150 A 
ATOM     21  C   LIG    1        2.452   7.815   0.205  0.00  0.00    -0.010 A 
BRANCH  20  22
ATOM     22  O   LIG    1        1.102   5.867   0.389  0.00  0.00    -0.310 OA
BRANCH  22  23
ATOM     23  C   LIG    1       -0.215   5.312   0.392  0.00  0.00    +0.290 C 
BRANCH  23  24
ATOM     24  C   LIG    1       -0.132   3.821   0.591  0.00  0.00    +0.120 A 
ATOM     25  C   LIG    1        1.104   3.219   0.735  0.00  0.00    +0.000 A 
ATOM     26  C   LIG    1        1.170   1.846   0.918  0.00  0.00    +0.070 A 
ATOM     27  C   LIG    1       -0.015   1.127   0.950  0.00  0.00    -0.030 A 
ATOM     28  C   LIG    1       -1.214   1.797   0.794  0.00  0.00    +0.260 A 
ATOM     29  N   LIG    1       -1.239   3.105   0.626  0.00  0.00    -0.480 NA
ENDBRANCH  23  24
ENDBRANCH  22  23
ENDBRANCH  20  22
ENDBRANCH   3  16
TORSDOF 6
