REMARK  Name = ZINCkj00000kJLuk.0
REMARK                            x       y       z     vdW  Elec       q    Type
REMARK                         _______ _______ _______ _____ _____    ______ ____
ROOT
ATOM      1  N   LIG    1        1.238   3.441   0.008  0.00  0.00    -0.470 N 
ATOM      2  C   LIG    1        0.495   3.981   1.157  0.00  0.00    +0.200 C 
ATOM      3  C   LIG    1        0.508   5.511   1.092  0.00  0.00    +0.270 C 
ATOM      4  O   LIG    1        1.862   5.970   1.059  0.00  0.00    -0.390 OA
ATOM      5  C   LIG    1        2.615   5.464  -0.047  0.00  0.00    +0.160 C 
ATOM      6  C   LIG    1        2.623   3.934   0.005  0.00  0.00    +0.220 C 
ENDROOT
BRANCH   1  10
ATOM      7  C   LIG    1       -1.287  -0.784   0.010  0.00  0.00    +0.150 C 
ATOM      8  C   LIG    1        0.002  -0.004   0.002  0.00  0.00    +0.200 A 
ATOM      9  C   LIG    1       -0.017   1.377   0.010  0.00  0.00    -0.090 A 
ATOM     10  C   LIG    1        1.204   2.056   0.002  0.00  0.00    +0.350 A 
ATOM     11  N   LIG    1        2.332   1.352  -0.013  0.00  0.00    -0.570 NA
ATOM     12  C   LIG    1        2.303   0.035  -0.020  0.00  0.00    +0.530 A 
ATOM     13  N   LIG    1        1.168  -0.635  -0.013  0.00  0.00    -0.530 NA
ENDBRANCH   1  10
BRANCH   5  14
ATOM     14  C   LIG    1        4.051   5.986   0.030  0.00  0.00    +0.290 C 
BRANCH  14  15
ATOM     15  N   LIG    1        4.040   7.455  -0.016  0.00  0.00    -0.380 N 
ATOM     16  C   LIG    1        3.534   7.900  -1.321  0.00  0.00    +0.320 C 
ATOM     17  H   LIG    1        3.443   7.810   0.715  0.00  0.00    +0.430 HD
BRANCH  15  18
ATOM     18  C   LIG    1        5.406   7.960   0.178  0.00  0.00    +0.290 C 
BRANCH  18  19
ATOM     19  C   LIG    1        5.378   9.488   0.254  0.00  0.00    -0.090 C 
ATOM     20  C   LIG    1        6.109  10.264  -0.843  0.00  0.00    +0.050 C 
ATOM     21  C   LIG    1        6.693  10.203   0.570  0.00  0.00    +0.070 C 
ENDBRANCH  18  19
ENDBRANCH  15  18
ENDBRANCH  14  15
ENDBRANCH   5  14
TORSDOF 5
