REMARK  Name = ZINCkj00000kJLuk.1
REMARK                            x       y       z     vdW  Elec       q    Type
REMARK                         _______ _______ _______ _____ _____    ______ ____
ROOT
ATOM      1  N   LIG    1       -0.493   1.946   1.193  0.00  0.00    -0.470 N 
ATOM      2  C   LIG    1       -0.518   3.412   1.082  0.00  0.00    +0.200 C 
ATOM      3  C   LIG    1       -1.299   3.811  -0.173  0.00  0.00    +0.260 C 
ATOM      4  O   LIG    1       -0.702   3.191  -1.316  0.00  0.00    -0.390 OA
ATOM      5  C   LIG    1       -0.663   1.764  -1.242  0.00  0.00    +0.150 C 
ATOM      6  C   LIG    1        0.124   1.344   0.002  0.00  0.00    +0.220 C 
ENDROOT
BRANCH   1  10
ATOM      7  C   LIG    1        0.004   2.038   6.090  0.00  0.00    +0.150 C 
ATOM      8  C   LIG    1        0.422   1.575   4.718  0.00  0.00    +0.200 A 
ATOM      9  C   LIG    1       -0.263   2.003   3.597  0.00  0.00    -0.090 A 
ATOM     10  C   LIG    1        0.161   1.546   2.347  0.00  0.00    +0.350 A 
ATOM     11  N   LIG    1        1.199   0.718   2.283  0.00  0.00    -0.570 NA
ATOM     12  C   LIG    1        1.827   0.340   3.378  0.00  0.00    +0.530 A 
ATOM     13  N   LIG    1        1.451   0.753   4.572  0.00  0.00    -0.530 NA
ENDBRANCH   1  10
BRANCH   5  14
ATOM     14  C   LIG    1        0.021   1.205  -2.491  0.00  0.00    +0.290 C 
BRANCH  14  15
ATOM     15  N   LIG    1       -0.770   1.552  -3.679  0.00  0.00    -0.380 N 
ATOM     16  C   LIG    1       -0.042   1.145  -4.889  0.00  0.00    +0.330 C 
ATOM     17  H   LIG    1       -0.925   2.549  -3.700  0.00  0.00    +0.430 HD
BRANCH  15  18
ATOM     18  C   LIG    1       -2.062   0.856  -3.628  0.00  0.00    +0.280 C 
BRANCH  18  19
ATOM     19  C   LIG    1       -2.935   1.313  -4.799  0.00  0.00    -0.080 C 
ATOM     20  C   LIG    1       -4.233   2.051  -4.466  0.00  0.00    +0.050 C 
ATOM     21  C   LIG    1       -4.282   0.615  -4.990  0.00  0.00    +0.070 C 
ENDBRANCH  18  19
ENDBRANCH  15  18
ENDBRANCH  14  15
ENDBRANCH   5  14
TORSDOF 5
