REMARK  Name = ZINCqH0000008avi.0
REMARK                            x       y       z     vdW  Elec       q    Type
REMARK                         _______ _______ _______ _____ _____    ______ ____
ROOT
ATOM      1  C   LIG    1        0.002  -0.004   0.017  0.00  0.00    +0.440 A 
ATOM      2  N   LIG    1        1.248  -0.416  -0.025  0.00  0.00    -0.280 NA
ATOM      3  N   LIG    1        2.059   0.730  -0.037  0.00  0.00    -0.470 N 
ATOM      4  H   LIG    1        3.028   0.756  -0.066  0.00  0.00    +0.450 HD
ATOM      5  C   LIG    1        1.220   1.791   0.000  0.00  0.00    +0.350 A 
ATOM      6  N   LIG    1       -0.016   1.329   0.032  0.00  0.00    -0.540 NA
ENDROOT
BRANCH   5   7
ATOM      7  C   LIG    1        1.616   3.213   0.003  0.00  0.00    -0.030 A 
ATOM      8  C   LIG    1        2.952   3.568   0.097  0.00  0.00    +0.050 A 
ATOM      9  C   LIG    1        3.332   4.905   0.101  0.00  0.00    +0.010 A 
ATOM     10  C   LIG    1        2.408   5.901   0.013  0.00  0.00    +0.050 A 
ATOM     11  C   LIG    1        1.040   5.587  -0.084  0.00  0.00    -0.050 A 
ATOM     12  C   LIG    1        0.067   6.597  -0.177  0.00  0.00    +0.020 A 
ATOM     13  C   LIG    1       -1.247   6.258  -0.286  0.00  0.00    +0.010 A 
ATOM     14  C   LIG    1       -1.644   4.923  -0.290  0.00  0.00    +0.020 A 
ATOM     15  C   LIG    1       -0.728   3.919  -0.197  0.00  0.00    +0.060 A 
ATOM     16  C   LIG    1        0.635   4.231  -0.095  0.00  0.00    -0.020 A 
ENDBRANCH   5   7
BRANCH   1  18
ATOM     17  C   LIG    1       -0.979  -2.171   0.022  0.00  0.00    +0.520 C 
ATOM     18  N   LIG    1       -1.125  -0.831   0.041  0.00  0.00    -0.620 N 
ATOM     19  H   LIG    1       -2.013  -0.440   0.072  0.00  0.00    +0.430 HD
ATOM     20  O   LIG    1        0.131  -2.659  -0.017  0.00  0.00    -0.470 OA
BRANCH  17  22
ATOM     21  C   LIG    1       -2.994  -2.795   1.325  0.00  0.00    +0.070 C 
ATOM     22  C   LIG    1       -2.194  -3.062   0.048  0.00  0.00    +0.060 C 
BRANCH  22  23
ATOM     23  C   LIG    1       -1.760  -4.504   0.019  0.00  0.00    -0.130 A 
ATOM     24  C   LIG    1       -2.160  -5.338  -1.014  0.00  0.00    +0.080 A 
ATOM     25  C   LIG    1       -1.736  -6.658  -0.999  0.00  0.00    -0.030 A 
ATOM     26  C   LIG    1       -0.934  -7.096   0.037  0.00  0.00    +0.260 A 
ATOM     27  N   LIG    1       -0.573  -6.275   1.004  0.00  0.00    -0.480 NA
ATOM     28  C   LIG    1       -0.952  -5.012   1.020  0.00  0.00    +0.290 A 
ENDBRANCH  22  23
ENDBRANCH  17  22
ENDBRANCH   1  18
TORSDOF 4
