REMARK  Name = ZINCqH0000008avi.1
REMARK                            x       y       z     vdW  Elec       q    Type
REMARK                         _______ _______ _______ _____ _____    ______ ____
ROOT
ATOM      1  C   LIG    1        5.072  -2.464   0.002  0.00  0.00    +0.500 A 
ATOM      2  N   LIG    1        3.803  -2.128   0.048  0.00  0.00    -0.540 NA
ATOM      3  C   LIG    1        3.686  -0.794  -0.038  0.00  0.00    +0.290 A 
ATOM      4  N   LIG    1        4.887  -0.269  -0.146  0.00  0.00    -0.290 NA
ATOM      5  N   LIG    1        5.802  -1.334  -0.117  0.00  0.00    -0.470 N 
ATOM      6  H   LIG    1        6.768  -1.271  -0.175  0.00  0.00    +0.450 HD
ENDROOT
BRANCH   3   7
ATOM      7  C   LIG    1        2.412  -0.038  -0.021  0.00  0.00    -0.000 A 
ATOM      8  C   LIG    1        1.447  -0.315   0.930  0.00  0.00    +0.060 A 
ATOM      9  C   LIG    1        0.249   0.391   0.952  0.00  0.00    +0.010 A 
ATOM     10  C   LIG    1       -0.008   1.370   0.042  0.00  0.00    +0.040 A 
ATOM     11  C   LIG    1        0.945   1.685  -0.942  0.00  0.00    -0.050 A 
ATOM     12  C   LIG    1        0.703   2.691  -1.893  0.00  0.00    +0.030 A 
ATOM     13  C   LIG    1        1.648   2.970  -2.833  0.00  0.00    +0.020 A 
ATOM     14  C   LIG    1        2.853   2.272  -2.868  0.00  0.00    +0.010 A 
ATOM     15  C   LIG    1        3.119   1.291  -1.961  0.00  0.00    +0.030 A 
ATOM     16  C   LIG    1        2.170   0.976  -0.979  0.00  0.00    -0.020 A 
ENDBRANCH   3   7
BRANCH   1  18
ATOM     17  C   LIG    1        6.905  -3.965   0.006  0.00  0.00    +0.530 C 
ATOM     18  N   LIG    1        5.575  -3.756   0.065  0.00  0.00    -0.620 N 
ATOM     19  H   LIG    1        4.969  -4.509   0.150  0.00  0.00    +0.440 HD
ATOM     20  O   LIG    1        7.662  -3.024  -0.101  0.00  0.00    -0.510 OA
BRANCH  17  22
ATOM     21  C   LIG    1        7.033  -6.014   1.396  0.00  0.00    +0.070 C 
ATOM     22  C   LIG    1        7.451  -5.368   0.074  0.00  0.00    +0.070 C 
BRANCH  22  23
ATOM     23  C   LIG    1        8.955  -5.326  -0.011  0.00  0.00    -0.130 A 
ATOM     24  C   LIG    1        9.618  -5.974  -1.042  0.00  0.00    +0.080 A 
ATOM     25  C   LIG    1       11.002  -5.909  -1.080  0.00  0.00    -0.030 A 
ATOM     26  C   LIG    1       11.671  -5.204  -0.097  0.00  0.00    +0.260 A 
ATOM     27  N   LIG    1       11.007  -4.599   0.869  0.00  0.00    -0.480 NA
ATOM     28  C   LIG    1        9.691  -4.636   0.934  0.00  0.00    +0.280 A 
ENDBRANCH  22  23
ENDBRANCH  17  22
ENDBRANCH   1  18
TORSDOF 4
