REMARK  Name = ZINCAx0000000dWY.0
REMARK                            x       y       z     vdW  Elec       q    Type
REMARK                         _______ _______ _______ _____ _____    ______ ____
ROOT
ATOM      1  C   LIG    1       -9.751   6.660   1.612  0.00  0.00    +0.360 C 
ENDROOT
BRANCH   1   8
ATOM      2  N   LIG    1      -13.047   9.370  -1.944  0.00  0.00    -0.300 N 
ATOM      3  N   LIG    1      -12.316  10.556  -2.089  0.00  0.00    -0.260 NA
ATOM      4  C   LIG    1      -11.238  10.496  -1.356  0.00  0.00    +0.350 A 
ATOM      5  C   LIG    1      -11.219   9.253  -0.696  0.00  0.00    -0.330 A 
ATOM      6  C   LIG    1      -10.306   8.603   0.244  0.00  0.00    +0.580 A 
ATOM      7  O   LIG    1       -9.289   9.156   0.622  0.00  0.00    -0.510 OA
ATOM      8  N   LIG    1      -10.631   7.361   0.673  0.00  0.00    -0.530 N 
ATOM      9  C   LIG    1      -11.772   6.765   0.243  0.00  0.00    +0.640 A 
ATOM     10  N   LIG    1      -12.597   7.330  -0.588  0.00  0.00    -0.520 NA
ATOM     11  C   LIG    1      -12.375   8.557  -1.084  0.00  0.00    +0.340 A 
BRANCH   2  17
ATOM     12  C   LIG    1      -16.034   6.066  -4.028  0.00  0.00    +0.090 C 
ATOM     13  C   LIG    1      -15.733   7.478  -3.598  0.00  0.00    -0.060 A 
ATOM     14  C   LIG    1      -16.657   8.482  -3.827  0.00  0.00    +0.010 A 
ATOM     15  C   LIG    1      -16.386   9.779  -3.433  0.00  0.00    -0.070 A 
ATOM     16  C   LIG    1      -15.190  10.077  -2.809  0.00  0.00    +0.020 A 
ATOM     17  C   LIG    1      -14.260   9.071  -2.577  0.00  0.00    +0.150 A 
ATOM     18  C   LIG    1      -17.395  10.869  -3.684  0.00  0.00    +0.100 C 
ATOM     19  C   LIG    1      -14.534   7.771  -2.980  0.00  0.00    +0.030 A 
ENDBRANCH   2  17
ENDBRANCH   1   8
BRANCH   1  20
ATOM     20  C   LIG    1       -8.740   5.850   0.842  0.00  0.00    +0.500 C 
ATOM     21  N   LIG    1       -7.821   5.117   1.502  0.00  0.00    -0.680 N 
ATOM     22  H   LIG    1       -7.810   5.111   2.471  0.00  0.00    +0.420 HD
ATOM     23  C   LIG    1       -6.917   4.392   0.813  0.00  0.00    +0.700 C 
ATOM     24  N   LIG    1       -5.997   3.659   1.473  0.00  0.00    -0.670 N 
ATOM     25  H   LIG    1       -6.034   3.592   2.440  0.00  0.00    +0.410 HD
ATOM     26  O   LIG    1       -6.930   4.400  -0.402  0.00  0.00    -0.510 OA
ATOM     27  O   LIG    1       -8.753   5.857  -0.370  0.00  0.00    -0.450 OA
BRANCH  24  28
ATOM     28  C   LIG    1       -4.989   2.996   0.762  0.00  0.00    +0.170 A 
ATOM     29  C   LIG    1       -4.503   1.779   1.221  0.00  0.00    +0.010 A 
ATOM     30  C   LIG    1       -3.507   1.121   0.521  0.00  0.00    +0.050 A 
ATOM     31  C   LIG    1       -2.997   1.679  -0.638  0.00  0.00    +0.050 A 
ATOM     32  O   LIG    1       -2.013   1.036  -1.334  0.00  0.00    -0.320 OA
ATOM     33  C   LIG    1       -2.387   0.522  -2.614  0.00  0.00    +0.230 C 
ATOM     34  C   LIG    1       -2.284   1.601  -3.680  0.00  0.00    -0.010 C 
ATOM     35  C   LIG    1       -3.269   2.736  -3.451  0.00  0.00    +0.230 C 
ATOM     36  O   LIG    1       -2.968   3.434  -2.243  0.00  0.00    -0.320 OA
ATOM     37  C   LIG    1       -3.481   2.895  -1.099  0.00  0.00    +0.090 A 
ATOM     38  C   LIG    1       -4.477   3.556  -0.402  0.00  0.00    +0.030 A 
ENDBRANCH  24  28
ENDBRANCH   1  20
TORSDOF 4
