REMARK  Name = ZINCpk00000y6vdG.0
REMARK                            x       y       z     vdW  Elec       q    Type
REMARK                         _______ _______ _______ _____ _____    ______ ____
ROOT
ATOM      1  C   LIG    1        1.571  -1.000   8.606  0.00  0.00    +0.300 C 
ATOM      2  N   LIG    1        1.101   0.140   7.815  0.00  0.00    -0.620 N 
ATOM      3  C   LIG    1        0.724   1.321   8.335  0.00  0.00    +0.520 C 
ATOM      4  C   LIG    1        0.287   2.261   7.233  0.00  0.00    +0.080 C 
ATOM      5  C   LIG    1        0.062   1.336   6.014  0.00  0.00    +0.160 C 
ATOM      6  O   LIG    1        0.732   1.593   9.517  0.00  0.00    -0.520 OA
ATOM      7  C   LIG    1        0.980   0.140   6.352  0.00  0.00    +0.280 C 
ENDROOT
BRANCH   7   8
ATOM      8  C   LIG    1        0.353  -1.148   5.881  0.00  0.00    -0.160 A 
ATOM      9  C   LIG    1        0.763  -1.734   4.694  0.00  0.00    +0.080 A 
ATOM     10  C   LIG    1        0.158  -2.919   4.300  0.00  0.00    -0.030 A 
ATOM     11  C   LIG    1       -0.825  -3.471   5.099  0.00  0.00    +0.260 A 
ATOM     12  N   LIG    1       -1.190  -2.884   6.222  0.00  0.00    -0.480 NA
ATOM     13  C   LIG    1       -0.633  -1.761   6.631  0.00  0.00    +0.270 A 
ENDBRANCH   7   8
BRANCH   5  14
ATOM     14  N   LIG    1        0.490   1.991   4.771  0.00  0.00    -0.660 NA
ATOM     15  H   LIG    1        0.863   1.319   4.117  0.00  0.00    +0.340 HD
BRANCH  14  16
ATOM     16  C   LIG    1       -0.613   2.753   4.171  0.00  0.00    +0.310 C 
BRANCH  16  17
ATOM     17  C   LIG    1       -0.138   3.410   2.901  0.00  0.00    +0.170 A 
ATOM     18  N   LIG    1        0.397   4.597   2.794  0.00  0.00    -0.270 NA
ATOM     19  N   LIG    1        0.691   4.832   1.562  0.00  0.00    -0.290 NA
ATOM     20  C   LIG    1        0.362   3.805   0.833  0.00  0.00    +0.190 A 
ATOM     21  C   LIG    1        0.546   3.647  -0.654  0.00  0.00    +0.150 C 
ATOM     22  C   LIG    1       -0.753   3.116  -1.266  0.00  0.00    +0.020 C 
ATOM     23  C   LIG    1       -0.750   1.591  -1.231  0.00  0.00    +0.020 C 
ATOM     24  C   LIG    1       -0.013   1.086   0.008  0.00  0.00    +0.030 C 
ATOM     25  C   LIG    1       -0.728   1.579   1.269  0.00  0.00    +0.280 C 
ATOM     26  N   LIG    1       -0.183   2.881   1.658  0.00  0.00    -0.470 N 
ENDBRANCH  16  17
ENDBRANCH  14  16
ENDBRANCH   5  14
TORSDOF 4
