REMARK  Name = ZINCrH000004v6Bl.0
REMARK                            x       y       z     vdW  Elec       q    Type
REMARK                         _______ _______ _______ _____ _____    ______ ____
ROOT
ATOM      1  O   LIG    1       -1.553  -4.405  -1.966  0.00  0.00    -0.570 OA
ATOM      2  C   LIG    1       -0.830  -4.214  -2.925  0.00  0.00    +0.710 C 
ATOM      3  N   LIG    1        0.149  -3.289  -2.857  0.00  0.00    -0.730 N 
ATOM      4  H   LIG    1        0.725  -3.137  -3.622  0.00  0.00    +0.400 HD
ATOM      5  N   LIG    1       -1.008  -4.925  -4.056  0.00  0.00    -0.680 N 
ATOM      6  H   LIG    1       -0.476  -4.727  -4.842  0.00  0.00    +0.410 HD
ENDROOT
BRANCH   3   7
ATOM      7  C   LIG    1        0.342  -2.516  -1.628  0.00  0.00    +0.250 C 
ATOM      8  C   LIG    1        1.234  -3.300  -0.660  0.00  0.00    -0.010 C 
ATOM      9  C   LIG    1        1.484  -2.457   0.593  0.00  0.00    +0.220 C 
ATOM     10  O   LIG    1        2.092  -1.218   0.217  0.00  0.00    -0.360 OA
ATOM     11  C   LIG    1        1.308  -0.428  -0.668  0.00  0.00    +0.090 C 
ATOM     12  C   LIG    1        2.030   0.899  -0.980  0.00  0.00    +0.050 C 
ATOM     13  C   LIG    1        1.339   1.881   0.002  0.00  0.00    +0.220 C 
ATOM     14  O   LIG    1       -0.034   1.432   0.018  0.00  0.00    -0.370 OA
ATOM     15  C   LIG    1       -0.006  -0.006   0.007  0.00  0.00    +0.180 C 
ATOM     16  C   LIG    1        1.020  -1.183  -1.962  0.00  0.00    +0.020 C 
ENDBRANCH   3   7
BRANCH   5  17
ATOM     17  C   LIG    1       -1.960  -5.953  -4.095  0.00  0.00    +0.170 A 
ATOM     18  C   LIG    1       -3.148  -5.826  -3.387  0.00  0.00    +0.040 A 
ATOM     19  C   LIG    1       -4.087  -6.838  -3.425  0.00  0.00    +0.010 A 
ATOM     20  C   LIG    1       -3.844  -7.982  -4.171  0.00  0.00    +0.080 A 
ATOM     21  C   LIG    1       -2.656  -8.110  -4.881  0.00  0.00    +0.010 A 
ATOM     22 CL   LIG    1       -2.352  -9.541  -5.815  0.00  0.00    -0.050 Cl
ATOM     23  C   LIG    1       -1.719  -7.095  -4.847  0.00  0.00    +0.000 A 
BRANCH  20  24
ATOM     24  N   LIG    1       -4.796  -9.008  -4.210  0.00  0.00    -0.490 N 
ATOM     25  C   LIG    1       -6.038  -8.549  -4.846  0.00  0.00    +0.180 C 
ATOM     26  C   LIG    1       -6.999  -9.730  -5.002  0.00  0.00    +0.020 C 
ATOM     27  C   LIG    1       -7.299 -10.324  -3.623  0.00  0.00    +0.010 C 
ATOM     28  C   LIG    1       -5.984 -10.749  -2.962  0.00  0.00    +0.020 C 
ATOM     29  C   LIG    1       -5.053  -9.539  -2.865  0.00  0.00    +0.180 C 
ENDBRANCH  20  24
ENDBRANCH   5  17
TORSDOF 3
