REMARK  Name = ZINCpe000000Xae2.0
REMARK                            x       y       z     vdW  Elec       q    Type
REMARK                         _______ _______ _______ _____ _____    ______ ____
ROOT
ATOM      1  C   LIG    1       -0.003   1.234  -0.005  0.00  0.00    +0.510 C 
ATOM      2  N   LIG    1       -1.245   1.756  -0.023  0.00  0.00    -0.600 N 
ATOM      3  C   LIG    1       -1.452   3.208  -0.128  0.00  0.00    +0.290 C 
ATOM      4  C   LIG    1       -2.444   3.472  -1.272  0.00  0.00    +0.210 C 
ATOM      5  N   LIG    1       -3.665   2.686  -1.046  0.00  0.00    -0.480 N 
ATOM      6  C   LIG    1       -3.383   1.245  -1.077  0.00  0.00    +0.200 C 
ATOM      7  C   LIG    1       -2.430   0.889   0.069  0.00  0.00    +0.290 C 
ATOM      8  O   LIG    1        0.149   0.030  -0.011  0.00  0.00    -0.510 OA
ENDROOT
BRANCH   5   9
ATOM      9  C   LIG    1       -4.651   3.021  -1.967  0.00  0.00    +0.310 A 
ATOM     10  C   LIG    1       -5.058   4.346  -2.089  0.00  0.00    -0.040 A 
ATOM     11  C   LIG    1       -6.040   4.665  -3.010  0.00  0.00    +0.090 A 
ATOM     12  C   LIG    1       -6.583   3.646  -3.780  0.00  0.00    -0.060 A 
ATOM     13  C   LIG    1       -6.131   2.353  -3.606  0.00  0.00    +0.290 A 
ATOM     14  N   LIG    1       -5.189   2.078  -2.724  0.00  0.00    -0.520 NA
ENDBRANCH   5   9
BRANCH   1  16
ATOM     15  C   LIG    1        2.310   1.504   0.847  0.00  0.00    +0.100 C 
ATOM     16  C   LIG    1        1.197   2.145   0.015  0.00  0.00    +0.250 C 
BRANCH  16  17
ATOM     17  N   LIG    1        1.672   2.357  -1.355  0.00  0.00    -0.290 N 
ATOM     18  C   LIG    1        2.521   1.552  -2.034  0.00  0.00    +0.160 A 
ATOM     19  C   LIG    1        2.686   2.119  -3.252  0.00  0.00    -0.040 A 
ATOM     20  N   LIG    1        1.946   3.233  -3.255  0.00  0.00    -0.240 NA
ATOM     21  N   LIG    1        1.358   3.346  -2.117  0.00  0.00    -0.080 NA
BRANCH  19  22
ATOM     22  C   LIG    1        3.539   1.599  -4.380  0.00  0.00    +0.210 C 
ATOM     23  C   LIG    1        4.995   1.506  -3.917  0.00  0.00    +0.040 C 
ATOM     24  C   LIG    1        3.444   2.553  -5.572  0.00  0.00    +0.090 C 
BRANCH  22  25
ATOM     25  O   LIG    1        3.079   0.303  -4.768  0.00  0.00    -0.550 OA
ATOM     26  H   LIG    1        3.112  -0.354  -4.059  0.00  0.00    +0.380 HD
ENDBRANCH  22  25
ENDBRANCH  19  22
ENDBRANCH  16  17
ENDBRANCH   1  16
TORSDOF 5
