REMARK  Name = ZINCpe00000gNkt6.0
REMARK                            x       y       z     vdW  Elec       q    Type
REMARK                         _______ _______ _______ _____ _____    ______ ____
ROOT
ATOM      1  C   LIG    1        2.457   1.002  -0.016  0.00  0.00    +0.150 C 
ENDROOT
BRANCH   1   2
ATOM      2  C   LIG    1        3.751   1.773  -0.024  0.00  0.00    +0.450 A 
ATOM      3  N   LIG    1        3.703   3.076  -0.022  0.00  0.00    -0.580 NA
ATOM      4  C   LIG    1        4.823   3.818  -0.023  0.00  0.00    +0.540 A 
ATOM      5  C   LIG    1        6.128   3.127  -0.039  0.00  0.00    -0.210 A 
ATOM      6  C   LIG    1        6.119   1.748  -0.046  0.00  0.00    +0.050 A 
ATOM      7  S   LIG    1        7.766   1.146  -0.064  0.00  0.00    +0.200 S 
ATOM      8  C   LIG    1        8.440   2.776  -0.061  0.00  0.00    -0.220 A 
ATOM      9  C   LIG    1        9.812   3.441  -0.068  0.00  0.00    +0.130 C 
ATOM     10  C   LIG    1        9.551   4.890   0.391  0.00  0.00    +0.050 C 
ATOM     11  C   LIG    1        8.087   5.093  -0.046  0.00  0.00    +0.110 C 
ATOM     12  C   LIG    1        7.479   3.690  -0.048  0.00  0.00    -0.050 A 
ATOM     13  O   LIG    1        4.763   5.037  -0.017  0.00  0.00    -0.480 OA
ATOM     14  N   LIG    1        4.907   1.090  -0.039  0.00  0.00    -0.590 N 
ATOM     15  H   LIG    1        4.889   0.120  -0.045  0.00  0.00    +0.430 HD
ENDBRANCH   1   2
BRANCH   1  16
ATOM     16  C   LIG    1        1.280   1.980   0.001  0.00  0.00    +0.100 C 
BRANCH  16  19
ATOM     17  N   LIG    1       -1.191   1.867   0.018  0.00  0.00    -0.730 N 
ATOM     18  H   LIG    1       -1.204   2.837   0.023  0.00  0.00    +0.410 HD
ATOM     19  C   LIG    1       -0.014   1.209   0.009  0.00  0.00    +0.520 C 
ATOM     20  O   LIG    1        0.002  -0.004   0.002  0.00  0.00    -0.540 OA
BRANCH  17  24
ATOM     21  O   LIG    1       -4.600  -0.393  -2.426  0.00  0.00    -0.550 OA
ATOM     22  C   LIG    1       -4.244   0.235  -1.452  0.00  0.00    +0.520 C 
ATOM     23  C   LIG    1       -2.834   0.753  -1.416  0.00  0.00    +0.060 C 
ATOM     24  C   LIG    1       -2.449   1.117   0.020  0.00  0.00    +0.240 C 
ATOM     25  C   LIG    1       -3.565   1.983   0.616  0.00  0.00    +0.030 C 
ATOM     26  C   LIG    1       -4.820   1.123   0.776  0.00  0.00    +0.270 C 
ATOM     27  N   LIG    1       -5.124   0.429  -0.469  0.00  0.00    -0.720 N 
ATOM     28  H   LIG    1       -6.024   0.087  -0.591  0.00  0.00    +0.400 HD
ENDBRANCH  17  24
ENDBRANCH  16  19
ENDBRANCH   1  16
TORSDOF 4
