REMARK  Name = ZINCrg00001Jdv4E.0
REMARK                            x       y       z     vdW  Elec       q    Type
REMARK                         _______ _______ _______ _____ _____    ______ ____
ROOT
ATOM      1  O   LIG    1        0.723   0.474   2.531  0.00  0.00    -0.580 OA
ATOM      2  C   LIG    1       -0.222   1.232   2.431  0.00  0.00    +0.720 C 
ATOM      3  N   LIG    1       -0.792   1.749   3.538  0.00  0.00    -0.630 N 
ATOM      4  C   LIG    1       -0.233   1.495   4.876  0.00  0.00    +0.320 C 
ATOM      5  C   LIG    1        0.237   2.837   5.451  0.00  0.00    +0.110 C 
ATOM      6  C   LIG    1       -0.826   3.889   5.283  0.00  0.00    +0.060 A 
ATOM      7  N   LIG    1       -0.764   4.968   6.051  0.00  0.00    -0.210 NA
ATOM      8  N   LIG    1       -1.607   5.927   5.968  0.00  0.00    -0.270 NA
ATOM      9  C   LIG    1       -2.610   5.910   5.102  0.00  0.00    +0.250 A 
ATOM     10  C   LIG    1       -2.763   4.813   4.255  0.00  0.00    +0.020 A 
ATOM     11  C   LIG    1       -1.844   3.777   4.357  0.00  0.00    -0.070 A 
ATOM     12  C   LIG    1       -1.998   2.581   3.458  0.00  0.00    +0.360 C 
ATOM     13  N   LIG    1       -0.699   1.557   1.213  0.00  0.00    -0.740 N 
ATOM     14  H   LIG    1       -1.498   2.102   1.135  0.00  0.00    +0.400 HD
ENDROOT
BRANCH   9  15
ATOM     15  N   LIG    1       -3.502   6.975   5.039  0.00  0.00    -0.480 N 
ATOM     16  C   LIG    1       -3.167   7.968   5.974  0.00  0.00    +0.200 C 
ATOM     17  C   LIG    1       -4.254   9.062   6.050  0.00  0.00    +0.020 C 
ATOM     18  C   LIG    1       -4.146   9.951   4.838  0.00  0.00    +0.200 C 
ATOM     19  O   LIG    1       -4.975   9.509   3.743  0.00  0.00    -0.390 OA
ATOM     20  C   LIG    1       -5.008   8.089   3.506  0.00  0.00    +0.230 C 
ATOM     21  C   LIG    1       -3.644   7.464   3.654  0.00  0.00    +0.200 C 
ENDBRANCH   9  15
BRANCH  13  22
ATOM     22  C   LIG    1       -0.013   1.086   0.008  0.00  0.00    +0.310 C 
BRANCH  22  23
ATOM     23  C   LIG    1       -0.754   1.591  -1.231  0.00  0.00    +0.190 C 
BRANCH  23  24
ATOM     24  O   LIG    1       -0.677   3.017  -1.285  0.00  0.00    -0.380 OA
BRANCH  24  25
ATOM     25  C   LIG    1       -1.341   3.594  -2.411  0.00  0.00    +0.170 C 
BRANCH  25  26
ATOM     26  C   LIG    1       -1.195   5.116  -2.366  0.00  0.00    +0.400 C 
ATOM     27  F   LIG    1        0.162   5.455  -2.401  0.00  0.00    -0.200 F 
ATOM     28  F   LIG    1       -1.767   5.605  -1.186  0.00  0.00    -0.200 F 
ENDBRANCH  25  26
ENDBRANCH  24  25
ENDBRANCH  23  24
ENDBRANCH  22  23
ENDBRANCH  13  22
TORSDOF 6
