REMARK  Name = ZINCvU0000000GPa.0
REMARK                            x       y       z     vdW  Elec       q    Type
REMARK                         _______ _______ _______ _____ _____    ______ ____
ROOT
ATOM      1  N   LIG    1       -7.162   0.179   0.071  0.00  0.00    -0.630 N 
ATOM      2  H   LIG    1       -7.577   1.056   0.079  0.00  0.00    +0.420 HD
ATOM      3  C   LIG    1       -5.819   0.069   0.057  0.00  0.00    +0.530 C 
ATOM      4  O   LIG    1       -5.300  -1.027   0.046  0.00  0.00    -0.480 OA
ENDROOT
BRANCH   1   6
ATOM      5  C   LIG    1       -9.320  -0.956   0.091  0.00  0.00    -0.180 A 
ATOM      6  C   LIG    1       -7.950  -0.961   0.072  0.00  0.00    +0.050 A 
ATOM      7  S   LIG    1       -7.344  -2.553   0.058  0.00  0.00    +0.340 S 
ATOM      8  C   LIG    1       -8.952  -3.255   0.071  0.00  0.00    -0.080 A 
ATOM      9  C   LIG    1       -9.887  -2.296   0.085  0.00  0.00    +0.020 A 
BRANCH   9  10
ATOM     10  C   LIG    1      -11.340  -2.569   0.097  0.00  0.00    -0.140 A 
ATOM     11  C   LIG    1      -11.983  -3.400  -0.748  0.00  0.00    +0.030 A 
ATOM     12  C   LIG    1      -13.344  -3.496  -0.536  0.00  0.00    +0.010 A 
ATOM     13  C   LIG    1      -13.816  -2.746   0.463  0.00  0.00    -0.040 A 
ATOM     14  S   LIG    1      -12.498  -1.855   1.212  0.00  0.00    +0.130 S 
ENDBRANCH   9  10
BRANCH   5  15
ATOM     15  C   LIG    1      -10.125   0.264   0.111  0.00  0.00    +0.530 C 
ATOM     16  O   LIG    1      -10.475   0.780  -0.934  0.00  0.00    -0.480 OA
BRANCH  15  18
ATOM     17  C   LIG    1      -11.267   2.010   1.234  0.00  0.00    +0.260 C 
ATOM     18  O   LIG    1      -10.480   0.818   1.289  0.00  0.00    -0.340 OA
ENDBRANCH  15  18
ENDBRANCH   5  15
ENDBRANCH   1   6
BRANCH   3  19
ATOM     19  C   LIG    1       -4.961   1.309   0.056  0.00  0.00    +0.120 C 
BRANCH  19  20
ATOM     20  S   LIG    1       -3.215   0.834   0.036  0.00  0.00    +0.080 S 
BRANCH  20  21
ATOM     21  C   LIG    1       -2.465   2.429   0.038  0.00  0.00    +0.190 A 
ATOM     22  C   LIG    1       -1.052   2.563   0.031  0.00  0.00    -0.140 A 
ATOM     23  C   LIG    1       -0.521   3.849   0.028  0.00  0.00    +0.100 A 
ATOM     24  S   LIG    1        1.230   3.762   0.010  0.00  0.00    +0.210 S 
ATOM     25  C   LIG    1        1.219   1.999   0.001  0.00  0.00    -0.190 A 
ATOM     26  C   LIG    1        2.230   0.856  -0.014  0.00  0.00    +0.120 C 
ATOM     27  C   LIG    1        1.431  -0.384   0.436  0.00  0.00    +0.050 C 
ATOM     28  C   LIG    1        0.002  -0.004   0.002  0.00  0.00    +0.110 C 
ATOM     29  N   LIG    1       -1.355   4.899   0.041  0.00  0.00    -0.490 NA
ATOM     30  C   LIG    1       -2.657   4.726   0.052  0.00  0.00    +0.540 A 
ATOM     31  C   LIG    1       -0.019   1.524   0.010  0.00  0.00    -0.090 A 
ATOM     32  N   LIG    1       -3.209   3.526   0.051  0.00  0.00    -0.540 NA
ENDBRANCH  20  21
ENDBRANCH  19  20
ENDBRANCH   3  19
TORSDOF 7
