REMARK  Name = ZINCrg00000fSdIa.0
REMARK                            x       y       z     vdW  Elec       q    Type
REMARK                         _______ _______ _______ _____ _____    ______ ____
ROOT
ATOM      1  C   LIG    1        3.448   0.911  -2.804  0.00  0.00    +0.050 C 
ATOM      2  C   LIG    1        2.985   0.744  -4.254  0.00  0.00    +0.040 C 
ATOM      3  C   LIG    1        4.173   0.307  -5.117  0.00  0.00    +0.290 C 
ATOM      4  N   LIG    1        4.766  -0.902  -4.529  0.00  0.00    -0.580 N 
ATOM      5  C   LIG    1        5.163  -0.878  -3.115  0.00  0.00    +0.310 C 
ATOM      6  C   LIG    1        3.964  -0.428  -2.274  0.00  0.00    +0.050 C 
ENDROOT
BRANCH   4   7
ATOM      7  C   LIG    1        4.945  -2.037  -5.289  0.00  0.00    +0.520 C 
ATOM      8  N   LIG    1        5.953  -2.820  -5.073  0.00  0.00    -0.870 NA
ATOM      9  S   LIG    1        5.822  -4.066  -6.179  0.00  0.00    +2.580 S 
ATOM     10  C   LIG    1        4.348  -3.560  -7.021  0.00  0.00    -0.620 A 
ATOM     11  C   LIG    1        3.610  -4.063  -8.052  0.00  0.00    +0.160 A 
ATOM     12  C   LIG    1        2.472  -3.390  -8.475  0.00  0.00    +0.060 A 
ATOM     13  C   LIG    1        2.101  -2.216  -7.844  0.00  0.00    +0.060 A 
ATOM     14  C   LIG    1        2.845  -1.706  -6.803  0.00  0.00    +0.090 A 
ATOM     15  O   LIG    1        6.904  -3.941  -7.093  0.00  0.00    -0.940 OA
ATOM     16  O   LIG    1        5.520  -5.254  -5.460  0.00  0.00    -0.940 OA
ATOM     17  C   LIG    1        3.998  -2.373  -6.363  0.00  0.00    -0.120 A 
ENDBRANCH   4   7
BRANCH   1  18
ATOM     18  C   LIG    1        2.290   1.374  -1.958  0.00  0.00    +0.460 C 
ATOM     19  O   LIG    1        1.916   0.702  -1.026  0.00  0.00    -0.480 OA
BRANCH  18  20
ATOM     20  O   LIG    1        1.674   2.533  -2.240  0.00  0.00    -0.330 OA
BRANCH  20  24
ATOM     21  C   LIG    1       -1.815   4.691  -0.182  0.00  0.00    +0.050 C 
ATOM     22  C   LIG    1       -1.119   4.624  -1.542  0.00  0.00    +0.210 C 
ATOM     23  C   LIG    1        0.407   4.453  -1.360  0.00  0.00    +0.070 C 
ATOM     24  C   LIG    1        0.566   2.916  -1.382  0.00  0.00    +0.160 C 
ATOM     25  C   LIG    1       -0.739   2.399  -1.947  0.00  0.00    +0.470 C 
ATOM     26  O   LIG    1       -1.022   1.233  -2.087  0.00  0.00    -0.430 OA
ATOM     27  O   LIG    1       -1.532   3.430  -2.273  0.00  0.00    -0.330 OA
ENDBRANCH  20  24
ENDBRANCH  18  20
ENDBRANCH   1  18
TORSDOF 4
