REMARK  Name = ZINCnE000001IhCD.0
REMARK                            x       y       z     vdW  Elec       q    Type
REMARK                         _______ _______ _______ _____ _____    ______ ____
ROOT
ATOM      1  C   LIG    1        4.752   1.407  -0.036  0.00  0.00    -0.100 A 
ATOM      2  C   LIG    1        3.594   2.130  -0.021  0.00  0.00    -0.020 A 
ATOM      3  C   LIG    1        2.373   1.428  -0.013  0.00  0.00    -0.100 A 
ATOM      4  C   LIG    1        1.142   2.103   0.002  0.00  0.00    +0.040 A 
ATOM      5  C   LIG    1       -0.017   1.389   0.010  0.00  0.00    -0.010 A 
ATOM      6  C   LIG    1        0.002  -0.004   0.002  0.00  0.00    +0.010 A 
ATOM      7  C   LIG    1        1.177  -0.691  -0.013  0.00  0.00    +0.030 A 
ATOM      8  C   LIG    1        2.395   0.011  -0.021  0.00  0.00    +0.130 A 
ATOM      9  N   LIG    1        3.565  -0.636  -0.036  0.00  0.00    -0.490 NA
ATOM     10  C   LIG    1        3.621   3.636  -0.013  0.00  0.00    +0.110 C 
ATOM     11  C   LIG    1        4.703   0.014  -0.044  0.00  0.00    +0.190 A 
ATOM     12  C   LIG    1        5.993  -0.765  -0.061  0.00  0.00    +0.120 C 
ENDROOT
BRANCH   1  13
ATOM     13  C   LIG    1        6.083   2.114  -0.046  0.00  0.00    +0.100 C 
BRANCH  13  15
ATOM     14  N   LIG    1        7.679   2.982  -1.724  0.00  0.00    -0.680 NA
ATOM     15  C   LIG    1        6.512   2.358  -1.470  0.00  0.00    +0.470 C 
ATOM     16  O   LIG    1        5.807   1.994  -2.386  0.00  0.00    -0.570 OA
BRANCH  14  20
ATOM     17  C   LIG    1        9.055   3.752  -5.211  0.00  0.00    -0.080 A 
ATOM     18  N   LIG    1        7.912   3.144  -5.223  0.00  0.00    -0.230 NA
ATOM     19  N   LIG    1        7.412   2.860  -4.099  0.00  0.00    -0.370 NA
ATOM     20  C   LIG    1        8.075   3.207  -3.038  0.00  0.00    +0.300 A 
ATOM     21  S   LIG    1        9.523   3.982  -3.526  0.00  0.00    -0.010 S 
BRANCH  17  23
ATOM     22  C   LIG    1        9.433   5.606  -6.814  0.00  0.00    +0.030 C 
ATOM     23  C   LIG    1        9.844   4.186  -6.420  0.00  0.00    +0.130 C 
ENDBRANCH  17  23
ENDBRANCH  14  20
ENDBRANCH  13  15
ENDBRANCH   1  13
TORSDOF 4
