REMARK  Name = ZINCvU00000005Zt.0
REMARK                            x       y       z     vdW  Elec       q    Type
REMARK                         _______ _______ _______ _____ _____    ______ ____
ROOT
ATOM      1  C   LIG    1        8.610   1.815  -0.070  0.00  0.00    +0.160 C 
ATOM      2  N   LIG    1        7.395   1.385  -0.067  0.00  0.00    -0.250 NA
ATOM      3  N   LIG    1        7.283  -0.004  -0.067  0.00  0.00    -0.460 N 
ATOM      4  C   LIG    1        8.633  -0.590  -0.083  0.00  0.00    +0.250 C 
ATOM      5  C   LIG    1        6.127  -0.697  -0.060  0.00  0.00    +0.590 C 
ATOM      6  O   LIG    1        6.147  -1.914  -0.067  0.00  0.00    -0.520 OA
ATOM      7  C   LIG    1        9.562   0.640  -0.086  0.00  0.00    +0.090 C 
ENDROOT
BRANCH   4   8
ATOM      8  C   LIG    1        8.838  -1.415  -1.327  0.00  0.00    -0.070 A 
ATOM      9  C   LIG    1        8.314  -0.989  -2.534  0.00  0.00    +0.030 A 
ATOM     10  C   LIG    1        8.507  -1.743  -3.676  0.00  0.00    +0.040 A 
ATOM     11  C   LIG    1        9.213  -2.930  -3.610  0.00  0.00    -0.090 A 
ATOM     12  C   LIG    1        9.732  -3.359  -2.402  0.00  0.00    +0.050 A 
ATOM     13 BR   LIG    1        9.470  -3.966  -5.171  0.00  0.00    -0.050 Br
ATOM     14  C   LIG    1        9.544  -2.602  -1.261  0.00  0.00    +0.040 A 
ENDBRANCH   4   8
BRANCH   1  18
ATOM     15  C   LIG    1        9.763   5.901  -0.060  0.00  0.00    +0.240 A 
ATOM     16  C   LIG    1        8.415   5.561  -0.049  0.00  0.00    -0.070 A 
ATOM     17  C   LIG    1        8.037   4.236  -0.052  0.00  0.00    +0.100 A 
ATOM     18  C   LIG    1        9.011   3.234  -0.067  0.00  0.00    -0.100 A 
ATOM     19  C   LIG    1       10.365   3.580  -0.073  0.00  0.00    +0.100 A 
ATOM     20  C   LIG    1       10.735   4.906  -0.075  0.00  0.00    -0.070 A 
BRANCH  15  22
ATOM     21  C   LIG    1        9.120   8.293  -0.041  0.00  0.00    +0.290 C 
ATOM     22  N   LIG    1       10.142   7.244  -0.057  0.00  0.00    -0.630 N 
ATOM     23  C   LIG    1       11.562   7.604  -0.069  0.00  0.00    +0.280 C 
ENDBRANCH  15  22
ENDBRANCH   1  18
BRANCH   5  24
ATOM     24  C   LIG    1        4.848   0.014  -0.044  0.00  0.00    -0.060 C 
ATOM     25  C   LIG    1        3.692  -0.680  -0.036  0.00  0.00    +0.120 C 
BRANCH  25  26
ATOM     26  C   LIG    1        2.405   0.035  -0.020  0.00  0.00    -0.080 A 
ATOM     27  C   LIG    1        1.203  -0.681  -0.013  0.00  0.00    +0.040 A 
ATOM     28  C   LIG    1        0.002  -0.004   0.002  0.00  0.00    +0.010 A 
ATOM     29  C   LIG    1       -0.017   1.380   0.010  0.00  0.00    +0.010 A 
ATOM     30  C   LIG    1        1.168   2.095   0.002  0.00  0.00    +0.010 A 
ATOM     31  C   LIG    1        2.377   1.433  -0.013  0.00  0.00    +0.030 A 
ENDBRANCH  25  26
ENDBRANCH   5  24
TORSDOF 5
