REMARK  Name = ZINCrH000004rKWe.0
REMARK                            x       y       z     vdW  Elec       q    Type
REMARK                         _______ _______ _______ _____ _____    ______ ____
ROOT
ATOM      1  C   LIG    1       -4.715  -0.851  -1.794  0.00  0.00    +0.550 C 
ATOM      2  N   LIG    1       -3.978  -0.595  -0.695  0.00  0.00    -0.600 N 
ATOM      3  C   LIG    1       -4.522  -0.840   0.647  0.00  0.00    +0.270 C 
ATOM      4  C   LIG    1       -4.390   0.442   1.475  0.00  0.00    +0.030 C 
ATOM      5  C   LIG    1       -2.930   0.903   1.464  0.00  0.00    +0.040 C 
ATOM      6  C   LIG    1       -2.502   1.209   0.027  0.00  0.00    +0.100 C 
ATOM      7  C   LIG    1       -2.613  -0.064  -0.818  0.00  0.00    +0.290 C 
ATOM      8  O   LIG    1       -4.295  -0.547  -2.893  0.00  0.00    -0.500 OA
ENDROOT
BRANCH   6   9
ATOM      9  C   LIG    1       -1.075   1.694   0.020  0.00  0.00    +0.290 A 
ATOM     10  N   LIG    1       -0.712   2.943   0.040  0.00  0.00    -0.480 NA
ATOM     11  C   LIG    1        0.644   3.025   0.020  0.00  0.00    +0.050 A 
ATOM     12  C   LIG    1        1.544   4.093   0.023  0.00  0.00    +0.070 A 
ATOM     13  C   LIG    1        2.889   3.850  -0.001  0.00  0.00    +0.000 A 
ATOM     14  C   LIG    1        3.372   2.550  -0.029  0.00  0.00    +0.030 A 
ATOM     15  C   LIG    1        2.502   1.480  -0.031  0.00  0.00    +0.010 A 
ATOM     16  C   LIG    1        1.133   1.708  -0.007  0.00  0.00    +0.050 A 
ATOM     17  N   LIG    1        0.022   0.889  -0.002  0.00  0.00    -0.600 N 
ATOM     18  H   LIG    1        0.022  -0.081  -0.017  0.00  0.00    +0.420 HD
ENDBRANCH   6   9
BRANCH   1  24
ATOM     19  C   LIG    1       -9.622  -0.891  -2.703  0.00  0.00    +0.110 C 
ATOM     20  C   LIG    1       -8.398  -1.527  -2.097  0.00  0.00    -0.040 A 
ATOM     21  C   LIG    1       -8.509  -2.724  -1.414  0.00  0.00    +0.060 A 
ATOM     22  C   LIG    1       -7.390  -3.315  -0.853  0.00  0.00    +0.070 A 
ATOM     23  C   LIG    1       -6.155  -2.712  -0.973  0.00  0.00    +0.060 A 
ATOM     24  C   LIG    1       -6.036  -1.503  -1.661  0.00  0.00    -0.080 A 
ATOM     25  C   LIG    1       -7.169  -0.910  -2.219  0.00  0.00    +0.010 A 
BRANCH  25  26
ATOM     26  N   LIG    1       -7.053   0.375  -2.945  0.00  0.00    +0.010 N 
ATOM     27  O   LIG    1       -7.174   1.427  -2.344  0.00  0.00    -0.140 OA
ATOM     28  O   LIG    1       -6.837   0.379  -4.143  0.00  0.00    -0.110 OA
ENDBRANCH  25  26
ENDBRANCH   1  24
TORSDOF 3
