REMARK  Name = ZINCAx0000000dBS.0
REMARK                            x       y       z     vdW  Elec       q    Type
REMARK                         _______ _______ _______ _____ _____    ______ ____
ROOT
ATOM      1  N   LIG    1       -1.569   5.271   2.685  0.00  0.00    -0.510 N 
ATOM      2  C   LIG    1       -2.596   5.931   2.114  0.00  0.00    +0.570 A 
ATOM      3  C   LIG    1       -2.589   7.361   2.137  0.00  0.00    -0.230 A 
ATOM      4  C   LIG    1       -1.518   7.996   2.749  0.00  0.00    +0.070 A 
ATOM      5  S   LIG    1       -1.730   9.737   2.652  0.00  0.00    +0.200 S 
ATOM      6  C   LIG    1       -3.252   9.578   1.791  0.00  0.00    -0.200 A 
ATOM      7  C   LIG    1       -4.101  10.749   1.326  0.00  0.00    +0.120 C 
ATOM      8  C   LIG    1       -5.508  10.240   1.003  0.00  0.00    -0.010 C 
ATOM      9  C   LIG    1       -6.301  11.342   0.298  0.00  0.00    +0.030 C 
ATOM     10  C   LIG    1       -5.396   9.020   0.083  0.00  0.00    +0.020 C 
ATOM     11  C   LIG    1       -4.832   7.843   0.880  0.00  0.00    +0.110 C 
ATOM     12  N   LIG    1       -0.529   7.256   3.299  0.00  0.00    -0.470 NA
ATOM     13  C   LIG    1       -3.567   8.295   1.597  0.00  0.00    -0.030 A 
ATOM     14  O   LIG    1       -3.511   5.321   1.590  0.00  0.00    -0.520 OA
ATOM     15  C   LIG    1       -0.555   5.957   3.273  0.00  0.00    +0.410 A 
ENDROOT
BRANCH   1  16
ATOM     16  C   LIG    1       -1.549   3.806   2.677  0.00  0.00    +0.340 C 
BRANCH  16  19
ATOM     17  N   LIG    1       -0.704   1.998   1.216  0.00  0.00    -0.730 N 
ATOM     18  H   LIG    1       -1.058   1.359   1.854  0.00  0.00    +0.400 HD
ATOM     19  C   LIG    1       -0.843   3.320   1.438  0.00  0.00    +0.500 C 
ATOM     20  O   LIG    1       -0.401   4.119   0.639  0.00  0.00    -0.520 OA
BRANCH  17  21
ATOM     21  C   LIG    1       -0.019   1.526   0.010  0.00  0.00    +0.260 C 
BRANCH  21  22
ATOM     22  C   LIG    1        0.002  -0.004   0.002  0.00  0.00    +0.080 C 
BRANCH  22  26
ATOM     23  C   LIG    1        2.002  -1.383  -3.514  0.00  0.00    +0.130 A 
ATOM     24  C   LIG    1        2.723  -1.148  -2.352  0.00  0.00    -0.020 A 
ATOM     25  C   LIG    1        2.074  -0.702  -1.216  0.00  0.00    +0.060 A 
ATOM     26  C   LIG    1        0.707  -0.490  -1.238  0.00  0.00    -0.130 A 
ATOM     27  C   LIG    1       -0.013  -0.729  -2.393  0.00  0.00    +0.060 A 
ATOM     28  C   LIG    1        0.632  -1.169  -3.533  0.00  0.00    -0.080 A 
BRANCH  23  30
ATOM     29  C   LIG    1        1.833  -2.042  -5.792  0.00  0.00    +0.250 C 
ATOM     30  O   LIG    1        2.638  -1.822  -4.632  0.00  0.00    -0.320 OA
ENDBRANCH  23  30
ENDBRANCH  22  26
ENDBRANCH  21  22
ENDBRANCH  17  21
ENDBRANCH  16  19
ENDBRANCH   1  16
BRANCH  15  31
ATOM     31  C   LIG    1        0.576   5.190   3.909  0.00  0.00    +0.280 C 
BRANCH  31  32
ATOM     32  N   LIG    1        1.549   6.133   4.477  0.00  0.00    -0.510 NA
ATOM     33  C   LIG    1        2.212   6.907   3.418  0.00  0.00    +0.160 C 
ATOM     34  C   LIG    1        3.171   7.915   4.055  0.00  0.00    +0.230 C 
ATOM     35  O   LIG    1        4.106   7.219   4.884  0.00  0.00    -0.390 OA
ATOM     36  C   LIG    1        3.494   6.455   5.927  0.00  0.00    +0.230 C 
ATOM     37  C   LIG    1        2.538   5.432   5.308  0.00  0.00    +0.160 C 
ENDBRANCH  31  32
ENDBRANCH  15  31
TORSDOF 8
