REMARK  Name = ZINCrD00000F5Lvl.0
REMARK                            x       y       z     vdW  Elec       q    Type
REMARK                         _______ _______ _______ _____ _____    ______ ____
ROOT
ATOM      1  C   LIG    1       -0.185   5.034   1.040  0.00  0.00    -0.070 A 
ATOM      2  C   LIG    1       -1.359   5.721   0.759  0.00  0.00    -0.060 A 
ATOM      3  C   LIG    1       -1.319   7.223   0.685  0.00  0.00    +0.080 C 
ATOM      4  C   LIG    1       -2.483   7.766  -0.140  0.00  0.00    +0.040 C 
ATOM      5  C   LIG    1       -3.802   7.226   0.428  0.00  0.00    +0.100 C 
ATOM      6  C   LIG    1       -3.796   5.724   0.244  0.00  0.00    -0.080 C 
ATOM      7  C   LIG    1       -4.894   5.070  -0.190  0.00  0.00    +0.110 C 
ATOM      8  C   LIG    1       -2.548   4.997   0.556  0.00  0.00    +0.200 A 
ATOM      9  N   LIG    1       -2.585   3.676   0.631  0.00  0.00    -0.430 NA
ATOM     10  C   LIG    1       -1.505   2.942   0.898  0.00  0.00    +0.130 A 
ATOM     11  C   LIG    1       -1.579   1.538   0.966  0.00  0.00    +0.060 A 
ATOM     12  C   LIG    1       -0.459   0.816   1.243  0.00  0.00    +0.040 A 
ATOM     13  C   LIG    1        0.767   1.442   1.450  0.00  0.00    +0.030 A 
ATOM     14  C   LIG    1        0.877   2.801   1.389  0.00  0.00    +0.010 A 
ATOM     15  C   LIG    1       -0.255   3.574   1.113  0.00  0.00    -0.060 A 
ENDROOT
BRANCH   7  16
ATOM     16  C   LIG    1       -4.804   3.660  -0.568  0.00  0.00    +0.040 A 
ATOM     17  C   LIG    1       -5.775   2.715  -0.382  0.00  0.00    -0.040 A 
ATOM     18  C   LIG    1       -5.266   1.508  -0.892  0.00  0.00    -0.080 A 
ATOM     19  C   LIG    1       -4.023   1.763  -1.352  0.00  0.00    +0.150 A 
ATOM     20  O   LIG    1       -3.748   3.062  -1.155  0.00  0.00    -0.140 OA
ENDBRANCH   7  16
BRANCH   1  21
ATOM     21  C   LIG    1        1.088   5.752   1.257  0.00  0.00    +0.530 C 
ATOM     22  O   LIG    1        1.822   5.985   0.318  0.00  0.00    -0.480 OA
BRANCH  21  23
ATOM     23  O   LIG    1        1.435   6.147   2.497  0.00  0.00    -0.320 OA
BRANCH  23  24
ATOM     24  C   LIG    1        2.700   6.846   2.636  0.00  0.00    +0.260 C 
BRANCH  24  28
ATOM     25  N   LIG    1        4.035   7.866   4.452  0.00  0.00    -0.850 N 
ATOM     26  H   LIG    1        4.175   8.099   5.383  0.00  0.00    +0.410 HD
ATOM     27  H   LIG    1        4.698   8.108   3.787  0.00  0.00    +0.400 HD
ATOM     28  C   LIG    1        2.918   7.207   4.083  0.00  0.00    +0.520 C 
ATOM     29  O   LIG    1        2.089   6.905   4.915  0.00  0.00    -0.510 OA
ENDBRANCH  24  28
ENDBRANCH  23  24
ENDBRANCH  21  23
ENDBRANCH   1  21
TORSDOF 5
