REMARK  Name = ZINCrD00000l4NZ6.0
REMARK                            x       y       z     vdW  Elec       q    Type
REMARK                         _______ _______ _______ _____ _____    ______ ____
ROOT
ATOM      1  C   LIG    1        0.004  -0.001   0.006  0.00  0.00    +0.130 C 
ATOM      2  N   LIG    1        0.697  -0.527   1.195  0.00  0.00    -0.710 N 
ATOM      3  H   LIG    1        1.623  -0.378   1.439  0.00  0.00    +0.440 HD
ATOM      4  C   LIG    1       -0.207  -1.255   1.876  0.00  0.00    +0.710 C 
ATOM      5  N   LIG    1       -1.404  -1.271   1.280  0.00  0.00    -0.560 N 
ATOM      6  O   LIG    1        0.038  -1.834   2.916  0.00  0.00    -0.540 OA
ATOM      7  C   LIG    1       -0.011   1.529   0.024  0.00  0.00    +0.090 C 
ATOM      8  C   LIG    1       -1.403  -0.550   0.141  0.00  0.00    +0.540 C 
ATOM      9  O   LIG    1       -2.333  -0.374  -0.616  0.00  0.00    -0.460 OA
ENDROOT
BRANCH   1  10
ATOM     10  C   LIG    1        0.665  -0.516  -1.274  0.00  0.00    +0.050 C 
BRANCH  10  11
ATOM     11  C   LIG    1        2.136  -0.095  -1.293  0.00  0.00    +0.010 C 
BRANCH  11  12
ATOM     12  C   LIG    1        2.797  -0.611  -2.573  0.00  0.00    +0.010 C 
BRANCH  12  13
ATOM     13  C   LIG    1        4.268  -0.189  -2.593  0.00  0.00    +0.000 C 
BRANCH  13  14
ATOM     14  C   LIG    1        4.929  -0.705  -3.873  0.00  0.00    +0.000 C 
BRANCH  14  16
ATOM     15  C   LIG    1        7.061  -0.799  -5.172  0.00  0.00    +0.000 C 
ATOM     16  C   LIG    1        6.400  -0.283  -3.892  0.00  0.00    -0.010 C 
ENDBRANCH  14  16
ENDBRANCH  13  14
ENDBRANCH  12  13
ENDBRANCH  11  12
ENDBRANCH  10  11
ENDBRANCH   1  10
BRANCH   5  17
ATOM     17  C   LIG    1       -2.573  -1.985   1.800  0.00  0.00    +0.360 C 
BRANCH  17  18
ATOM     18  C   LIG    1       -3.354  -1.073   2.711  0.00  0.00    +0.500 C 
ATOM     19  N   LIG    1       -4.477  -1.517   3.309  0.00  0.00    -0.670 N 
ATOM     20  H   LIG    1       -4.820  -2.401   3.101  0.00  0.00    +0.420 HD
ATOM     21  O   LIG    1       -2.971   0.062   2.906  0.00  0.00    -0.500 OA
BRANCH  19  22
ATOM     22  C   LIG    1       -5.148  -0.705   4.229  0.00  0.00    +0.180 A 
ATOM     23  C   LIG    1       -5.782  -1.274   5.326  0.00  0.00    -0.050 A 
ATOM     24  C   LIG    1       -6.441  -0.471   6.238  0.00  0.00    +0.070 A 
ATOM     25  C   LIG    1       -6.480   0.898   6.055  0.00  0.00    -0.090 A 
ATOM     26  C   LIG    1       -5.853   1.472   4.957  0.00  0.00    +0.150 A 
ATOM     27  C   LIG    1       -5.186   0.670   4.044  0.00  0.00    +0.000 A 
BRANCH  26  28
ATOM     28  O   LIG    1       -5.892   2.818   4.779  0.00  0.00    -0.310 OA
ATOM     29  C   LIG    1       -6.596   3.583   5.760  0.00  0.00    +0.250 C 
ENDBRANCH  26  28
ENDBRANCH  19  22
ENDBRANCH  17  18
ENDBRANCH   5  17
TORSDOF 10
