REMARK  Name = ZINCpe000000UxKE.0
REMARK                            x       y       z     vdW  Elec       q    Type
REMARK                         _______ _______ _______ _____ _____    ______ ____
ROOT
ATOM      1  N   LIG    1       -0.017   1.381   0.010  0.00  0.00    -0.470 N 
ATOM      2  C   LIG    1       -0.807   1.903  -1.113  0.00  0.00    +0.200 C 
ATOM      3  C   LIG    1       -0.955   3.421  -0.967  0.00  0.00    +0.300 C 
ATOM      4  N   LIG    1        0.386   4.009  -0.824  0.00  0.00    -0.620 N 
ATOM      5  C   LIG    1        1.288   3.445   0.191  0.00  0.00    +0.290 C 
ATOM      6  C   LIG    1        0.777   5.037  -1.603  0.00  0.00    +0.520 C 
ATOM      7  O   LIG    1        1.886   5.510  -1.472  0.00  0.00    -0.530 OA
ATOM      8  C   LIG    1        1.347   1.926  -0.001  0.00  0.00    +0.210 C 
ENDROOT
BRANCH   1  13
ATOM      9  C   LIG    1        1.177  -1.987  -0.021  0.00  0.00    +0.590 A 
ATOM     10  N   LIG    1        0.061  -2.700  -0.014  0.00  0.00    -0.590 NA
ATOM     11  C   LIG    1       -1.125  -2.108   0.001  0.00  0.00    +0.380 A 
ATOM     12  C   LIG    1       -1.192  -0.729   0.009  0.00  0.00    -0.160 A 
ATOM     13  C   LIG    1        0.002  -0.004   0.002  0.00  0.00    +0.400 A 
ATOM     14  N   LIG    1        1.156  -0.663  -0.018  0.00  0.00    -0.600 NA
BRANCH   9  16
ATOM     15  C   LIG    1        2.440  -4.107  -0.046  0.00  0.00    +0.300 C 
ATOM     16  N   LIG    1        2.396  -2.643  -0.037  0.00  0.00    -0.590 N 
ATOM     17  C   LIG    1        3.642  -1.872  -0.045  0.00  0.00    +0.310 C 
ENDBRANCH   9  16
ENDBRANCH   1  13
BRANCH   6  18
ATOM     18  C   LIG    1       -0.164   5.600  -2.637  0.00  0.00    +0.060 C 
BRANCH  18  19
ATOM     19  C   LIG    1        0.521   6.750  -3.378  0.00  0.00    +0.050 C 
BRANCH  19  20
ATOM     20  C   LIG    1       -0.435   7.321  -4.428  0.00  0.00    +0.320 C 
BRANCH  20  21
ATOM     21  N   LIG    1        0.221   8.422  -5.138  0.00  0.00    -0.370 N 
ATOM     22  C   LIG    1        0.381   8.522  -6.474  0.00  0.00    +0.220 A 
ATOM     23  C   LIG    1        1.032   9.681  -6.726  0.00  0.00    -0.120 A 
ATOM     24  C   LIG    1        1.278  10.311  -5.502  0.00  0.00    +0.220 A 
ATOM     25  N   LIG    1        0.788   9.560  -4.549  0.00  0.00    -0.290 NA
ENDBRANCH  20  21
ENDBRANCH  19  20
ENDBRANCH  18  19
ENDBRANCH   6  18
TORSDOF 6
