REMARK  Name = ZINCpk000000oYfG.0
REMARK                            x       y       z     vdW  Elec       q    Type
REMARK                         _______ _______ _______ _____ _____    ______ ____
ROOT
ATOM      1  C   LIG    1        0.696  -1.798   1.276  0.00  0.00    +0.650 C 
ATOM      2  N   LIG    1        1.039  -0.779   0.464  0.00  0.00    -0.600 N 
ATOM      3  C   LIG    1        0.030  -0.120  -0.377  0.00  0.00    +0.300 C 
ATOM      4  C   LIG    1        0.051   1.384  -0.079  0.00  0.00    +0.290 C 
ATOM      5  N   LIG    1        1.442   1.856  -0.140  0.00  0.00    -0.600 N 
ATOM      6  C   LIG    1        2.450   1.197   0.701  0.00  0.00    +0.280 C 
ATOM      7  C   LIG    1        1.785   2.875  -0.953  0.00  0.00    +0.610 C 
ATOM      8  O   LIG    1        0.975   3.326  -1.739  0.00  0.00    -0.520 OA
ATOM      9  C   LIG    1        2.430  -0.307   0.403  0.00  0.00    +0.290 C 
ATOM     10  O   LIG    1       -0.458  -2.179   1.318  0.00  0.00    -0.570 OA
ENDROOT
BRANCH   7  11
ATOM     11  C   LIG    1        3.148   3.444  -0.889  0.00  0.00    -0.050 A 
ATOM     12  N   LIG    1        4.082   3.127  -0.011  0.00  0.00    -0.200 NA
ATOM     13  N   LIG    1        5.143   3.814  -0.248  0.00  0.00    -0.160 N 
ATOM     14  N   LIG    1        4.909   4.643  -1.353  0.00  0.00    -0.270 NA
ATOM     15  C   LIG    1        3.681   4.414  -1.756  0.00  0.00    +0.110 A 
ATOM     16  C   LIG    1        2.978   5.066  -2.918  0.00  0.00    +0.190 C 
BRANCH  13  17
ATOM     17  C   LIG    1        6.339   3.744   0.479  0.00  0.00    +0.150 A 
ATOM     18  C   LIG    1        6.446   2.882   1.562  0.00  0.00    +0.030 A 
ATOM     19  C   LIG    1        7.627   2.812   2.274  0.00  0.00    +0.040 A 
ATOM     20  C   LIG    1        8.700   3.607   1.916  0.00  0.00    +0.020 A 
ATOM     21  C   LIG    1        8.596   4.470   0.841  0.00  0.00    +0.040 A 
ATOM     22  C   LIG    1        7.419   4.541   0.121  0.00  0.00    +0.040 A 
ENDBRANCH  13  17
ENDBRANCH   7  11
BRANCH   1  23
ATOM     23  O   LIG    1        1.630  -2.393   2.042  0.00  0.00    -0.370 OA
BRANCH  23  25
ATOM     24  C   LIG    1        2.379  -4.030   3.682  0.00  0.00    +0.070 C 
ATOM     25  C   LIG    1        1.188  -3.483   2.893  0.00  0.00    +0.220 C 
ENDBRANCH  23  25
ENDBRANCH   1  23
TORSDOF 4
