REMARK  Name = ZINCqH00000503ZS.0
REMARK                            x       y       z     vdW  Elec       q    Type
REMARK                         _______ _______ _______ _____ _____    ______ ____
ROOT
ATOM      1  C   LIG    1       -2.995   2.089  -0.027  0.00  0.00    +0.160 C 
ATOM      2  C   LIG    1       -1.976   2.114   1.083  0.00  0.00    +0.180 A 
ATOM      3  C   LIG    1       -2.250   2.101   2.407  0.00  0.00    -0.080 A 
ATOM      4  C   LIG    1       -0.970   2.140   3.115  0.00  0.00    +0.540 A 
ATOM      5  N   LIG    1       -0.002   2.169   2.176  0.00  0.00    -0.370 N 
ATOM      6  O   LIG    1       -0.810   2.147   4.323  0.00  0.00    -0.510 OA
ATOM      7  N   LIG    1       -0.616   2.149   0.919  0.00  0.00    -0.390 N 
ATOM      8  C   LIG    1        0.083   2.168  -0.368  0.00  0.00    +0.350 C 
ENDROOT
BRANCH   5   9
ATOM      9  C   LIG    1        1.375   2.211   2.417  0.00  0.00    +0.150 A 
ATOM     10  C   LIG    1        2.223   1.329   1.760  0.00  0.00    +0.000 A 
ATOM     11  C   LIG    1        3.583   1.377   1.996  0.00  0.00    +0.030 A 
ATOM     12  C   LIG    1        4.099   2.293   2.894  0.00  0.00    +0.010 A 
ATOM     13  C   LIG    1        3.256   3.169   3.554  0.00  0.00    +0.030 A 
ATOM     14  C   LIG    1        1.896   3.130   3.318  0.00  0.00    +0.030 A 
ENDBRANCH   5   9
BRANCH   3  15
ATOM     15  N   LIG    1       -3.530   2.063   2.994  0.00  0.00    -0.630 N 
ATOM     16  H   LIG    1       -4.175   2.761   2.797  0.00  0.00    +0.410 HD
ATOM     17  C   LIG    1       -3.858   1.059   3.831  0.00  0.00    +0.550 C 
ATOM     18  O   LIG    1       -3.085   0.134   4.004  0.00  0.00    -0.520 OA
BRANCH  17  19
ATOM     19  C   LIG    1       -5.143   1.079   4.531  0.00  0.00    -0.070 C 
ATOM     20  C   LIG    1       -5.471   0.074   5.367  0.00  0.00    +0.120 C 
BRANCH  20  21
ATOM     21  C   LIG    1       -6.763   0.095   6.071  0.00  0.00    -0.070 A 
ATOM     22  C   LIG    1       -7.651   1.158   5.880  0.00  0.00    +0.050 A 
ATOM     23  C   LIG    1       -8.863   1.168   6.538  0.00  0.00    +0.010 A 
ATOM     24  C   LIG    1       -9.197   0.135   7.397  0.00  0.00    +0.040 A 
ATOM     25  C   LIG    1       -8.322  -0.919   7.597  0.00  0.00    +0.030 A 
ATOM     26  C   LIG    1       -7.108  -0.947   6.941  0.00  0.00    -0.020 A 
ATOM     27 CL   LIG    1       -6.012  -2.269   7.193  0.00  0.00    -0.060 Cl
ENDBRANCH  20  21
ENDBRANCH  17  19
ENDBRANCH   3  15
TORSDOF 4
