REMARK  Name = ZINCkj00000hcUmM.0
REMARK                            x       y       z     vdW  Elec       q    Type
REMARK                         _______ _______ _______ _____ _____    ______ ____
ROOT
ATOM      1  C   LIG    1       -0.199  -0.615  -2.348  0.00  0.00    +0.580 C 
ATOM      2  N   LIG    1        0.581  -0.480  -1.257  0.00  0.00    -0.720 N 
ATOM      3  H   LIG    1        1.524  -0.699  -1.305  0.00  0.00    +0.410 HD
ATOM      4  O   LIG    1       -1.381  -0.341  -2.288  0.00  0.00    -0.500 OA
ENDROOT
BRANCH   2   5
ATOM      5  C   LIG    1        0.002  -0.004   0.002  0.00  0.00    +0.270 C 
ATOM      6  C   LIG    1       -0.019   1.529   0.010  0.00  0.00    +0.060 C 
ATOM      7  C   LIG    1        1.420   2.051  -0.001  0.00  0.00    +0.260 C 
ATOM      8  N   LIG    1        2.122   1.599   1.206  0.00  0.00    -0.500 N 
ATOM      9  C   LIG    1        2.246   0.135   1.192  0.00  0.00    +0.280 C 
ATOM     10  H   LIG    1        3.042   2.013   1.232  0.00  0.00    +0.430 HD
ATOM     11  H   LIG    1        1.603   1.884   2.023  0.00  0.00    +0.430 HD
ATOM     12  C   LIG    1        0.854  -0.491   1.174  0.00  0.00    -0.130 C 
ATOM     13  C   LIG    1        0.864  -2.017   1.332  0.00  0.00    +0.070 C 
ATOM     14  C   LIG    1        0.784  -1.778   2.850  0.00  0.00    +0.030 C 
ATOM     15  C   LIG    1        0.132  -0.423   2.525  0.00  0.00    +0.040 C 
ENDBRANCH   2   5
BRANCH   1  20
ATOM     16  C   LIG    1        2.150  -2.479  -7.211  0.00  0.00    +0.130 C 
ATOM     17  C   LIG    1        1.492  -1.985  -5.948  0.00  0.00    -0.080 A 
ATOM     18  C   LIG    1        2.236  -1.824  -4.789  0.00  0.00    +0.260 A 
ATOM     19  N   LIG    1        1.679  -1.389  -3.681  0.00  0.00    -0.440 NA
ATOM     20  C   LIG    1        0.385  -1.096  -3.619  0.00  0.00    +0.020 A 
ATOM     21  C   LIG    1       -0.428  -1.234  -4.749  0.00  0.00    +0.140 A 
ATOM     22  C   LIG    1        0.141  -1.688  -5.936  0.00  0.00    +0.030 A 
BRANCH  21  23
ATOM     23  O   LIG    1       -1.749  -0.930  -4.689  0.00  0.00    -0.470 OA
ATOM     24  H   LIG    1       -1.950  -0.009  -4.904  0.00  0.00    +0.400 HD
ENDBRANCH  21  23
ENDBRANCH   1  20
TORSDOF 3
