REMARK  Name = ZINCpe000000T9Te.0
REMARK                            x       y       z     vdW  Elec       q    Type
REMARK                         _______ _______ _______ _____ _____    ______ ____
ROOT
ATOM      1  C   LIG    1        1.170   1.814   0.252  0.00  0.00    -0.230 A 
ATOM      2  C   LIG    1        1.103   3.211   0.256  0.00  0.00    +0.400 A 
ATOM      3  N   LIG    1       -0.051   3.841   0.189  0.00  0.00    -0.500 NA
ATOM      4  C   LIG    1       -1.199   3.186   0.114  0.00  0.00    +0.430 A 
ATOM      5  C   LIG    1       -1.214   1.777   0.100  0.00  0.00    -0.250 A 
ATOM      6  C   LIG    1       -2.515   1.089   0.023  0.00  0.00    +0.570 A 
ATOM      7  N   LIG    1       -3.633   1.846  -0.042  0.00  0.00    -0.660 N 
ATOM      8  H   LIG    1       -4.499   1.413  -0.097  0.00  0.00    +0.440 HD
ATOM      9  C   LIG    1       -3.564   3.186  -0.030  0.00  0.00    +0.710 A 
ATOM     10  O   LIG    1       -4.599   3.821  -0.090  0.00  0.00    -0.510 OA
ATOM     11  O   LIG    1       -2.580  -0.125   0.013  0.00  0.00    -0.480 OA
ATOM     12  N   LIG    1       -2.403   3.858   0.044  0.00  0.00    -0.500 N 
ATOM     13  C   LIG    1       -0.017   1.075   0.175  0.00  0.00    +0.260 A 
ENDROOT
BRANCH   1  16
ATOM     14  N   LIG    1        3.612   1.848   0.403  0.00  0.00    -0.690 N 
ATOM     15  H   LIG    1        3.573   2.817   0.405  0.00  0.00    +0.410 HD
ATOM     16  C   LIG    1        2.475   1.128   0.329  0.00  0.00    +0.570 C 
ATOM     17  O   LIG    1        2.524  -0.087   0.325  0.00  0.00    -0.510 OA
BRANCH  14  22
ATOM     18  C   LIG    1        7.421   1.535  -0.142  0.00  0.00    +0.080 C 
ATOM     19  C   LIG    1        6.160   2.040   0.562  0.00  0.00    -0.090 C 
ATOM     20  C   LIG    1        5.681   1.267   1.794  0.00  0.00    +0.080 C 
ATOM     21  C   LIG    1        5.966   3.557   0.560  0.00  0.00    +0.090 C 
ATOM     22  C   LIG    1        4.907   1.167   0.479  0.00  0.00    +0.190 C 
BRANCH  22  23
ATOM     23  C   LIG    1        5.006  -0.095  -0.274  0.00  0.00    +0.240 C 
ATOM     24  N   LIG    1        5.082  -1.068  -0.855  0.00  0.00    -0.390 NA
ENDBRANCH  22  23
ENDBRANCH  14  22
ENDBRANCH   1  16
BRANCH  12  25
ATOM     25  C   LIG    1       -2.416   5.323   0.052  0.00  0.00    +0.210 C 
ATOM     26  C   LIG    1       -1.564   6.031   1.107  0.00  0.00    +0.070 C 
ATOM     27  C   LIG    1       -3.089   6.018   1.237  0.00  0.00    +0.050 C 
ENDBRANCH  12  25
TORSDOF 4
