REMARK  Name = ZINCtV00000F4uPd.0
REMARK                            x       y       z     vdW  Elec       q    Type
REMARK                         _______ _______ _______ _____ _____    ______ ____
ROOT
ATOM      1  N   LIG    1       -3.153   4.287  -1.429  0.00  0.00    -1.060 N 
ATOM      2  H   LIG    1       -2.361   4.841  -1.510  0.00  0.00    +0.430 HD
ENDROOT
BRANCH   1   5
ATOM      3  C   LIG    1       -4.597   2.406  -4.237  0.00  0.00    -0.060 A 
ATOM      4  C   LIG    1       -4.368   3.418  -3.325  0.00  0.00    +0.030 A 
ATOM      5  C   LIG    1       -3.388   3.265  -2.353  0.00  0.00    +0.120 A 
ATOM      6  C   LIG    1       -2.639   2.097  -2.304  0.00  0.00    +0.010 A 
ATOM      7  C   LIG    1       -2.877   1.087  -3.215  0.00  0.00    -0.060 A 
ATOM      8  C   LIG    1       -3.853   1.242  -4.182  0.00  0.00    +0.030 A 
BRANCH   3  10
ATOM      9  C   LIG    1       -6.330   3.937  -5.133  0.00  0.00    +0.030 C 
ATOM     10  C   LIG    1       -5.660   2.571  -5.292  0.00  0.00    -0.030 C 
ATOM     11  C   LIG    1       -6.709   1.468  -5.136  0.00  0.00    +0.040 C 
ATOM     12  C   LIG    1       -5.021   2.475  -6.679  0.00  0.00    +0.040 C 
ENDBRANCH   3  10
BRANCH   7  13
ATOM     13  C   LIG    1       -2.068  -0.183  -3.159  0.00  0.00    -0.030 C 
ATOM     14  C   LIG    1       -2.984  -1.355  -2.800  0.00  0.00    +0.040 C 
ATOM     15  C   LIG    1       -0.976  -0.046  -2.096  0.00  0.00    +0.030 C 
ATOM     16  C   LIG    1       -1.424  -0.438  -4.523  0.00  0.00    +0.040 C 
ENDBRANCH   7  13
ENDBRANCH   1   5
BRANCH   1  17
ATOM     17  S   LIG    1       -4.227   4.553  -0.197  0.00  0.00    +2.690 S 
ATOM     18  O   LIG    1       -3.676   5.594   0.598  0.00  0.00    -0.940 OA
ATOM     19  O   LIG    1       -5.513   4.630  -0.796  0.00  0.00    -0.940 OA
BRANCH  17  20
ATOM     20  C   LIG    1       -4.233   3.107   0.810  0.00  0.00    -0.680 A 
ATOM     21  C   LIG    1       -5.184   2.126   0.605  0.00  0.00    +0.190 A 
ATOM     22  C   LIG    1       -5.192   0.994   1.399  0.00  0.00    +0.030 A 
ATOM     23  C   LIG    1       -4.242   0.839   2.392  0.00  0.00    +0.060 A 
ATOM     24  C   LIG    1       -3.287   1.820   2.594  0.00  0.00    -0.200 A 
ATOM     25 CL   LIG    1       -4.249  -0.584   3.385  0.00  0.00    -0.020 Cl
ATOM     26  C   LIG    1       -3.283   2.953   1.803  0.00  0.00    +0.200 A 
BRANCH  24  27
ATOM     27  C   LIG    1       -2.251   1.652   3.676  0.00  0.00    +0.510 C 
ATOM     28  F   LIG    1       -1.502   0.496   3.429  0.00  0.00    -0.170 F 
ATOM     29  F   LIG    1       -2.887   1.539   4.917  0.00  0.00    -0.170 F 
ATOM     30  F   LIG    1       -1.403   2.764   3.686  0.00  0.00    -0.170 F 
ENDBRANCH  24  27
ENDBRANCH  17  20
ENDBRANCH   1  17
TORSDOF 6
