REMARK  Name = ZINCpk00000eaXFw.0
REMARK                            x       y       z     vdW  Elec       q    Type
REMARK                         _______ _______ _______ _____ _____    ______ ____
ROOT
ATOM      1  S   LIG    1        0.033  -3.529  -1.766  0.00  0.00    +2.640 S 
ATOM      2  O   LIG    1        0.598  -4.583  -1.000  0.00  0.00    -1.010 OA
ATOM      3  O   LIG    1        0.560  -3.107  -3.016  0.00  0.00    -1.000 OA
ENDROOT
BRANCH   1   8
ATOM      4  C   LIG    1       -0.018   1.503   0.010  0.00  0.00    +0.160 C 
ATOM      5  C   LIG    1        0.002  -0.004   0.002  0.00  0.00    +0.050 A 
ATOM      6  N   LIG    1        0.022  -0.777   1.058  0.00  0.00    -0.270 NA
ATOM      7  N   LIG    1        0.036  -2.109   0.625  0.00  0.00    -0.300 N 
ATOM      8  C   LIG    1        0.023  -2.107  -0.725  0.00  0.00    -0.430 A 
ATOM      9  C   LIG    1       -0.003  -0.818  -1.135  0.00  0.00    -0.020 A 
BRANCH   7  10
ATOM     10  C   LIG    1        0.060  -3.295   1.485  0.00  0.00    +0.270 C 
ATOM     11  C   LIG    1       -1.150  -3.277   2.442  0.00  0.00    +0.020 C 
ATOM     12  C   LIG    1       -0.594  -3.856   3.767  0.00  0.00    +0.020 C 
ATOM     13  C   LIG    1        0.831  -3.254   3.831  0.00  0.00    +0.020 C 
ATOM     14  C   LIG    1        1.319  -3.280   2.368  0.00  0.00    +0.020 C 
ENDBRANCH   7  10
ENDBRANCH   1   8
BRANCH   1  15
ATOM     15  N   LIG    1       -1.546  -3.946  -2.041  0.00  0.00    -1.060 NA
BRANCH  15  16
ATOM     16  C   LIG    1       -1.849  -5.051  -2.844  0.00  0.00    +0.410 A 
ATOM     17  N   LIG    1       -0.978  -5.839  -3.437  0.00  0.00    -0.400 NA
ATOM     18  N   LIG    1       -1.685  -6.824  -4.143  0.00  0.00    -0.350 N 
ATOM     19  C   LIG    1       -2.994  -6.606  -3.956  0.00  0.00    +0.070 A 
ATOM     20  C   LIG    1       -4.174  -7.380  -4.490  0.00  0.00    +0.150 C 
ATOM     21  C   LIG    1       -5.409  -6.964  -3.678  0.00  0.00    +0.270 C 
ATOM     22  N   LIG    1       -5.499  -5.499  -3.629  0.00  0.00    -0.510 N 
ATOM     23  H   LIG    1       -6.409  -5.231  -3.285  0.00  0.00    +0.430 HD
ATOM     24  H   LIG    1       -5.370  -5.125  -4.557  0.00  0.00    +0.430 HD
ATOM     25  C   LIG    1       -4.464  -4.955  -2.735  0.00  0.00    +0.370 C 
ATOM     26  C   LIG    1       -1.097  -7.900  -4.945  0.00  0.00    +0.340 C 
ATOM     27  C   LIG    1       -3.128  -5.516  -3.154  0.00  0.00    -0.310 A 
ENDBRANCH  15  16
ENDBRANCH   1  15
TORSDOF 4
