REMARK  Name = ZINCqH0000000vjG.0
REMARK                            x       y       z     vdW  Elec       q    Type
REMARK                         _______ _______ _______ _____ _____    ______ ____
ROOT
ATOM      1  C   LIG    1        1.645   2.403  -3.700  0.00  0.00    +0.180 A 
ATOM      2  C   LIG    1        2.783   1.874  -4.278  0.00  0.00    +0.120 A 
ATOM      3  N   LIG    1        3.334   2.824  -5.055  0.00  0.00    -0.460 NA
ATOM      4  C   LIG    1        2.597   3.921  -4.992  0.00  0.00    +0.240 A 
ATOM      5  C   LIG    1        2.733   5.183  -5.609  0.00  0.00    +0.070 A 
ATOM      6  C   LIG    1        1.809   6.150  -5.361  0.00  0.00    +0.060 A 
ATOM      7  C   LIG    1        0.733   5.882  -4.497  0.00  0.00    +0.000 A 
ATOM      8  C   LIG    1        0.613   4.672  -3.914  0.00  0.00    +0.250 A 
ATOM      9  N   LIG    1        1.530   3.687  -4.157  0.00  0.00    -0.350 N 
ENDROOT
BRANCH   2  10
ATOM     10  C   LIG    1        3.303   0.506  -4.077  0.00  0.00    +0.050 A 
ATOM     11  C   LIG    1        3.929  -0.255  -5.015  0.00  0.00    -0.010 A 
ATOM     12  C   LIG    1        4.254  -1.479  -4.393  0.00  0.00    -0.060 A 
ATOM     13  C   LIG    1        3.815  -1.404  -3.122  0.00  0.00    +0.180 A 
ATOM     14  O   LIG    1        3.246  -0.201  -2.933  0.00  0.00    -0.170 OA
ENDBRANCH   2  10
BRANCH   1  16
ATOM     15  C   LIG    1        0.288   2.402  -1.749  0.00  0.00    +0.530 C 
ATOM     16  N   LIG    1        0.776   1.751  -2.823  0.00  0.00    -0.630 N 
ATOM     17  H   LIG    1        0.524   0.829  -2.987  0.00  0.00    +0.420 HD
ATOM     18  O   LIG    1        0.529   3.581  -1.594  0.00  0.00    -0.520 OA
BRANCH  15  21
ATOM     19  C   LIG    1       -2.074   1.986   0.705  0.00  0.00    -0.040 C 
ATOM     20  C   LIG    1       -0.576   2.329   0.647  0.00  0.00    +0.090 C 
ATOM     21  C   LIG    1       -0.556   1.667  -0.741  0.00  0.00    -0.010 C 
ATOM     22  C   LIG    1       -2.055   1.999  -0.834  0.00  0.00    -0.050 C 
ATOM     23  C   LIG    1       -2.891   0.885  -1.468  0.00  0.00    +0.040 C 
ATOM     24  C   LIG    1       -2.342   3.376  -1.437  0.00  0.00    +0.070 C 
BRANCH  19  26
ATOM     25  C   LIG    1       -3.450   2.930   2.712  0.00  0.00    +0.050 C 
ATOM     26  C   LIG    1       -2.921   3.076   1.309  0.00  0.00    +0.360 C 
ATOM     27  O   LIG    1       -3.175   4.068   0.668  0.00  0.00    -0.440 OA
ENDBRANCH  19  26
ENDBRANCH  15  21
ENDBRANCH   1  16
TORSDOF 4
