REMARK  Name = ZINCpe00000gMawh.0
REMARK                            x       y       z     vdW  Elec       q    Type
REMARK                         _______ _______ _______ _____ _____    ______ ____
ROOT
ATOM      1  C   LIG    1       -3.000   2.801  -1.590  0.00  0.00    +0.530 C 
ATOM      2  N   LIG    1       -1.828   2.179  -1.353  0.00  0.00    -0.720 N 
ATOM      3  H   LIG    1       -1.310   1.823  -2.092  0.00  0.00    +0.400 HD
ATOM      4  O   LIG    1       -3.648   3.246  -0.666  0.00  0.00    -0.520 OA
ENDROOT
BRANCH   1   7
ATOM      5  N   LIG    1       -5.626   2.869  -4.123  0.00  0.00    -0.610 N 
ATOM      6  C   LIG    1       -4.929   3.545  -3.022  0.00  0.00    +0.300 C 
ATOM      7  C   LIG    1       -3.507   2.942  -3.002  0.00  0.00    +0.000 C 
ATOM      8  C   LIG    1       -3.743   1.557  -3.647  0.00  0.00    +0.070 C 
ATOM      9  C   LIG    1       -4.984   1.746  -4.490  0.00  0.00    +0.520 C 
ATOM     10  O   LIG    1       -5.348   0.995  -5.370  0.00  0.00    -0.520 OA
BRANCH   5  14
ATOM     11  C   LIG    1       -8.088   2.122  -7.560  0.00  0.00    +0.170 C 
ATOM     12  N   LIG    1       -8.053   3.007  -6.389  0.00  0.00    -0.480 NA
ATOM     13  C   LIG    1       -6.726   3.647  -6.247  0.00  0.00    +0.160 C 
ATOM     14  C   LIG    1       -6.861   3.356  -4.742  0.00  0.00    +0.250 C 
ATOM     15  C   LIG    1       -7.835   2.234  -5.146  0.00  0.00    +0.170 C 
ENDBRANCH   5  14
ENDBRANCH   1   7
BRANCH   2  16
ATOM     16  C   LIG    1       -1.336   2.042   0.019  0.00  0.00    +0.350 C 
BRANCH  16  17
ATOM     17  C   LIG    1       -0.016   1.315   0.009  0.00  0.00    +0.110 A 
ATOM     18  C   LIG    1        1.162   2.038   0.002  0.00  0.00    +0.030 A 
ATOM     19  C   LIG    1        2.371   1.359  -0.013  0.00  0.00    +0.080 A 
ATOM     20  C   LIG    1        2.350  -0.027  -0.021  0.00  0.00    +0.040 A 
ATOM     21  C   LIG    1        1.133  -0.682  -0.012  0.00  0.00    +0.040 A 
ATOM     22  N   LIG    1        0.002  -0.004   0.002  0.00  0.00    -0.430 NA
BRANCH  21  23
ATOM     23  C   LIG    1        1.098  -2.189  -0.020  0.00  0.00    +0.520 C 
ATOM     24  F   LIG    1        1.656  -2.674   1.168  0.00  0.00    -0.170 F 
ATOM     25  F   LIG    1        1.833  -2.667  -1.110  0.00  0.00    -0.170 F 
ATOM     26  F   LIG    1       -0.228  -2.624  -0.124  0.00  0.00    -0.160 F 
ENDBRANCH  21  23
ENDBRANCH  16  17
ENDBRANCH   2  16
TORSDOF 5
