REMARK  Name = ZINCrH000004tPHe.0
REMARK                            x       y       z     vdW  Elec       q    Type
REMARK                         _______ _______ _______ _____ _____    ______ ____
ROOT
ATOM      1  O   LIG    1       -3.419  -3.782  -1.005  0.00  0.00    -0.490 OA
ATOM      2  C   LIG    1       -3.459  -4.877  -0.484  0.00  0.00    +0.510 C 
ATOM      3  N   LIG    1       -2.331  -5.436  -0.005  0.00  0.00    -0.670 N 
ATOM      4  H   LIG    1       -2.348  -6.342   0.342  0.00  0.00    +0.420 HD
ENDROOT
BRANCH   3   5
ATOM      5  C   LIG    1       -1.134  -4.710  -0.007  0.00  0.00    +0.150 A 
ATOM      6  C   LIG    1        0.076  -5.367  -0.198  0.00  0.00    +0.000 A 
ATOM      7  C   LIG    1        1.262  -4.655  -0.201  0.00  0.00    +0.040 A 
ATOM      8  C   LIG    1        1.252  -3.288  -0.021  0.00  0.00    +0.030 A 
ATOM      9  C   LIG    1        0.041  -2.618   0.177  0.00  0.00    +0.030 A 
ATOM     10  C   LIG    1       -1.156  -3.337   0.180  0.00  0.00    +0.050 A 
BRANCH   9  11
ATOM     11  C   LIG    1        0.027  -1.199   0.370  0.00  0.00    -0.080 C 
ATOM     12  C   LIG    1        0.015  -0.036   0.529  0.00  0.00    -0.110 C 
BRANCH  12  13
ATOM     13  C   LIG    1        0.002   1.383   0.722  0.00  0.00    +0.230 A 
ATOM     14  C   LIG    1       -1.214   2.046   0.907  0.00  0.00    +0.000 A 
ATOM     15  C   LIG    1       -1.209   3.416   1.098  0.00  0.00    +0.070 A 
ATOM     16  C   LIG    1        0.008   4.083   1.087  0.00  0.00    -0.030 A 
ATOM     17  C   LIG    1        1.175   3.366   0.892  0.00  0.00    +0.270 A 
ATOM     18  N   LIG    1        1.146   2.061   0.718  0.00  0.00    -0.470 NA
ENDBRANCH  12  13
ENDBRANCH   9  11
ENDBRANCH   3   5
BRANCH   2  19
ATOM     19  C   LIG    1       -4.770  -5.611  -0.374  0.00  0.00    +0.240 C 
BRANCH  19  20
ATOM     20  O   LIG    1       -5.811  -4.818  -0.950  0.00  0.00    -0.280 OA
BRANCH  20  21
ATOM     21  C   LIG    1       -7.066  -5.340  -0.931  0.00  0.00    +0.090 A 
ATOM     22  C   LIG    1       -7.291  -6.590  -0.377  0.00  0.00    +0.000 A 
ATOM     23  C   LIG    1       -8.568  -7.117  -0.354  0.00  0.00    +0.030 A 
ATOM     24  C   LIG    1       -9.623  -6.402  -0.895  0.00  0.00    +0.100 A 
ATOM     25  C   LIG    1       -9.401  -5.155  -1.455  0.00  0.00    +0.010 A 
ATOM     26  F   LIG    1      -10.870  -6.921  -0.876  0.00  0.00    -0.130 F 
ATOM     27  C   LIG    1       -8.125  -4.622  -1.474  0.00  0.00    +0.110 A 
ATOM     28  F   LIG    1       -7.908  -3.406  -2.020  0.00  0.00    -0.120 F 
ENDBRANCH  20  21
ENDBRANCH  19  20
ENDBRANCH   2  19
TORSDOF 6
