REMARK  Name = ZINCrD00000hQ4Lk.0
REMARK                            x       y       z     vdW  Elec       q    Type
REMARK                         _______ _______ _______ _____ _____    ______ ____
ROOT
ATOM      1  C   LIG    1       -0.586   0.024  -2.445  0.00  0.00    +0.030 C 
ATOM      2  C   LIG    1        0.353  -0.584  -1.401  0.00  0.00    -0.010 C 
ATOM      3  C   LIG    1        1.785  -0.466  -1.915  0.00  0.00    +0.040 C 
ATOM      4  C   LIG    1        1.941   0.833  -2.666  0.00  0.00    +0.010 C 
ATOM      5  C   LIG    1        2.426   1.940  -1.712  0.00  0.00    +0.280 C 
ATOM      6  N   LIG    1        1.763   1.870  -0.395  0.00  0.00    -0.620 N 
ATOM      7  C   LIG    1        0.349   1.609  -0.245  0.00  0.00    +0.260 C 
ATOM      8  C   LIG    1        2.506   2.058   0.713  0.00  0.00    +0.710 C 
ATOM      9  N   LIG    1        1.952   1.897   1.931  0.00  0.00    -0.740 N 
ATOM     10  H   LIG    1        1.002   1.717   2.012  0.00  0.00    +0.400 HD
ATOM     11  O   LIG    1        3.676   2.373   0.615  0.00  0.00    -0.580 OA
ATOM     12  C   LIG    1        0.114   0.084  -0.113  0.00  0.00    +0.020 C 
ENDROOT
BRANCH   2  13
ATOM     13  C   LIG    1        0.018  -2.046  -1.252  0.00  0.00    -0.070 A 
ATOM     14  C   LIG    1        0.767  -2.845  -0.409  0.00  0.00    +0.000 A 
ATOM     15  C   LIG    1        0.457  -4.184  -0.269  0.00  0.00    +0.000 A 
ATOM     16  C   LIG    1       -0.598  -4.727  -0.979  0.00  0.00    +0.000 A 
ATOM     17  C   LIG    1       -1.344  -3.930  -1.826  0.00  0.00    +0.000 A 
ATOM     18  C   LIG    1       -1.036  -2.589  -1.963  0.00  0.00    +0.010 A 
ENDBRANCH   2  13
BRANCH   9  19
ATOM     19  C   LIG    1        2.784   1.995   3.133  0.00  0.00    +0.380 C 
BRANCH  19  20
ATOM     20  C   LIG    1        1.929   1.778   4.355  0.00  0.00    +0.170 A 
ATOM     21  C   LIG    1        1.834   0.548   4.917  0.00  0.00    -0.030 A 
ATOM     22  C   LIG    1        1.032   0.369   6.053  0.00  0.00    +0.360 A 
ATOM     23  N   LIG    1        0.379   1.384   6.569  0.00  0.00    -0.460 NA
ATOM     24  C   LIG    1        0.466   2.605   6.023  0.00  0.00    +0.250 A 
ATOM     25  C   LIG    1       -0.105   3.826   6.356  0.00  0.00    -0.100 A 
ATOM     26  C   LIG    1        0.337   4.762   5.434  0.00  0.00    +0.290 A 
ATOM     27  N   LIG    1        1.135   4.171   4.573  0.00  0.00    -0.300 NA
ATOM     28  N   LIG    1        1.244   2.818   4.914  0.00  0.00    -0.310 N 
ENDBRANCH  19  20
ENDBRANCH   9  19
TORSDOF 3
