REMARK  Name = ZINCkj00000y7FOa.0
REMARK                            x       y       z     vdW  Elec       q    Type
REMARK                         _______ _______ _______ _____ _____    ______ ____
ROOT
ATOM      1  N   LIG    1        0.852   4.603   2.983  0.00  0.00    -0.750 N 
ATOM      2  H   LIG    1       -0.018   4.185   3.081  0.00  0.00    +0.400 HD
ATOM      3  C   LIG    1        1.556   4.433   1.846  0.00  0.00    +0.500 C 
ATOM      4  O   LIG    1        2.644   4.956   1.724  0.00  0.00    -0.490 OA
ENDROOT
BRANCH   1   5
ATOM      5  C   LIG    1        1.399   5.418   4.070  0.00  0.00    +0.160 C 
ATOM      6  C   LIG    1        1.682   6.830   3.555  0.00  0.00    +0.050 C 
ATOM      7  C   LIG    1        2.700   4.788   4.573  0.00  0.00    +0.090 C 
BRANCH   5   8
ATOM      8  C   LIG    1        0.388   5.485   5.216  0.00  0.00    +0.280 C 
BRANCH   8   9
ATOM      9  N   LIG    1       -0.777   6.274   4.795  0.00  0.00    -0.390 N 
ATOM     10  C   LIG    1       -1.476   5.574   3.709  0.00  0.00    +0.300 C 
ATOM     11  H   LIG    1       -0.471   7.179   4.470  0.00  0.00    +0.430 HD
BRANCH   9  12
ATOM     12  C   LIG    1       -1.690   6.445   5.934  0.00  0.00    +0.250 C 
BRANCH  12  14
ATOM     13  C   LIG    1       -3.790   7.549   6.716  0.00  0.00    +0.060 C 
ATOM     14  C   LIG    1       -2.840   7.370   5.530  0.00  0.00    +0.030 C 
ENDBRANCH  12  14
ENDBRANCH   9  12
ENDBRANCH   8   9
ENDBRANCH   5   8
ENDBRANCH   1   5
BRANCH   3  15
ATOM     15  C   LIG    1        0.993   3.595   0.728  0.00  0.00    +0.290 C 
BRANCH  15  16
ATOM     16  C   LIG    1        0.872   2.164   1.185  0.00  0.00    +0.070 A 
ATOM     17  C   LIG    1       -0.348   1.521   1.099  0.00  0.00    -0.020 A 
ATOM     18  C   LIG    1       -0.448   0.202   1.517  0.00  0.00    +0.070 A 
ATOM     19  C   LIG    1        0.686  -0.419   2.018  0.00  0.00    -0.020 A 
ATOM     20  C   LIG    1        1.872   0.289   2.073  0.00  0.00    +0.270 A 
ATOM     21  N   LIG    1        1.931   1.540   1.662  0.00  0.00    -0.470 NA
ENDBRANCH  15  16
BRANCH  15  22
ATOM     22  O   LIG    1        1.864   3.662  -0.403  0.00  0.00    -0.520 OA
ATOM     23  H   LIG    1        2.759   3.341  -0.229  0.00  0.00    +0.400 HD
ENDBRANCH  15  22
ENDBRANCH   3  15
TORSDOF 8
