REMARK  Name = ZINCkj00000y7FOa.1
REMARK                            x       y       z     vdW  Elec       q    Type
REMARK                         _______ _______ _______ _____ _____    ______ ____
ROOT
ATOM      1  N   LIG    1        1.208   2.382   4.718  0.00  0.00    -0.750 N 
ATOM      2  H   LIG    1        1.514   2.752   3.875  0.00  0.00    +0.400 HD
ATOM      3  C   LIG    1        1.966   2.509   5.825  0.00  0.00    +0.500 C 
ATOM      4  O   LIG    1        1.584   2.046   6.878  0.00  0.00    -0.490 OA
ENDROOT
BRANCH   1   5
ATOM      5  C   LIG    1       -0.078   1.684   4.787  0.00  0.00    +0.160 C 
ATOM      6  C   LIG    1        0.131   0.287   5.376  0.00  0.00    +0.060 C 
ATOM      7  C   LIG    1       -1.039   2.474   5.678  0.00  0.00    +0.070 C 
BRANCH   5   8
ATOM      8  C   LIG    1       -0.669   1.562   3.381  0.00  0.00    +0.280 C 
BRANCH   8   9
ATOM      9  N   LIG    1        0.165   0.658   2.577  0.00  0.00    -0.390 N 
ATOM     10  C   LIG    1        1.473   1.282   2.337  0.00  0.00    +0.310 C 
ATOM     11  H   LIG    1        0.293  -0.211   3.072  0.00  0.00    +0.430 HD
BRANCH   9  12
ATOM     12  C   LIG    1       -0.496   0.397   1.291  0.00  0.00    +0.250 C 
BRANCH  12  14
ATOM     13  C   LIG    1       -0.380  -0.911  -0.834  0.00  0.00    +0.060 C 
ATOM     14  C   LIG    1        0.309  -0.639   0.505  0.00  0.00    +0.030 C 
ENDBRANCH  12  14
ENDBRANCH   9  12
ENDBRANCH   8   9
ENDBRANCH   5   8
ENDBRANCH   1   5
BRANCH   3  15
ATOM     15  C   LIG    1        3.289   3.227   5.753  0.00  0.00    +0.290 C 
BRANCH  15  16
ATOM     16  C   LIG    1        4.233   2.454   4.868  0.00  0.00    +0.070 A 
ATOM     17  C   LIG    1        4.832   3.084   3.794  0.00  0.00    -0.010 A 
ATOM     18  C   LIG    1        5.699   2.364   2.986  0.00  0.00    +0.070 A 
ATOM     19  C   LIG    1        5.931   1.032   3.290  0.00  0.00    -0.020 A 
ATOM     20  C   LIG    1        5.296   0.469   4.381  0.00  0.00    +0.260 A 
ATOM     21  N   LIG    1        4.482   1.186   5.131  0.00  0.00    -0.470 NA
ENDBRANCH  15  16
BRANCH  15  22
ATOM     22  O   LIG    1        3.846   3.333   7.065  0.00  0.00    -0.520 OA
ATOM     23  H   LIG    1        4.006   2.481   7.494  0.00  0.00    +0.400 HD
ENDBRANCH  15  22
ENDBRANCH   3  15
TORSDOF 8
