REMARK  Name = ZINCqH0000000nQl.0
REMARK                            x       y       z     vdW  Elec       q    Type
REMARK                         _______ _______ _______ _____ _____    ______ ____
ROOT
ATOM      1  N   LIG    1        0.041  -1.870   1.653  0.00  0.00    -0.670 N 
ATOM      2  H   LIG    1       -0.078  -2.499   0.925  0.00  0.00    +0.410 HD
ATOM      3  C   LIG    1        0.083  -0.547   1.399  0.00  0.00    +0.510 C 
ATOM      4  O   LIG    1        0.147   0.245   2.316  0.00  0.00    -0.510 OA
ENDROOT
BRANCH   1   8
ATOM      5  C   LIG    1        0.418  -3.257   5.567  0.00  0.00    +0.130 A 
ATOM      6  C   LIG    1       -0.245  -2.063   5.314  0.00  0.00    -0.010 A 
ATOM      7  C   LIG    1       -0.370  -1.604   4.019  0.00  0.00    +0.040 A 
ATOM      8  C   LIG    1        0.168  -2.336   2.968  0.00  0.00    +0.120 A 
ATOM      9  C   LIG    1        0.826  -3.532   3.220  0.00  0.00    +0.010 A 
ATOM     10  C   LIG    1        0.956  -3.988   4.516  0.00  0.00    +0.040 A 
BRANCH   5  13
ATOM     11  C   LIG    1        1.526  -5.243   8.568  0.00  0.00    +0.100 C 
ATOM     12  C   LIG    1        1.310  -4.801   7.144  0.00  0.00    +0.510 C 
ATOM     13  N   LIG    1        0.545  -3.723   6.882  0.00  0.00    -0.560 N 
ATOM     14  C   LIG    1       -0.154  -3.038   7.972  0.00  0.00    +0.310 C 
ATOM     15  O   LIG    1        1.823  -5.416   6.234  0.00  0.00    -0.520 OA
ENDBRANCH   5  13
ENDBRANCH   1   8
BRANCH   3  16
ATOM     16  C   LIG    1        0.051  -0.051  -0.023  0.00  0.00    +0.120 C 
BRANCH  16  17
ATOM     17  C   LIG    1        0.110   1.455  -0.032  0.00  0.00    -0.090 A 
ATOM     18  C   LIG    1       -1.060   2.192   0.002  0.00  0.00    +0.070 A 
ATOM     19  C   LIG    1       -1.008   3.572   0.000  0.00  0.00    -0.060 A 
ATOM     20  C   LIG    1        0.218   4.219  -0.047  0.00  0.00    +0.110 A 
ATOM     21  C   LIG    1        1.390   3.478  -0.087  0.00  0.00    +0.020 A 
ATOM     22  C   LIG    1        1.333   2.098  -0.079  0.00  0.00    +0.070 A 
BRANCH  20  23
ATOM     23  O   LIG    1        0.271   5.577  -0.056  0.00  0.00    -0.310 OA
BRANCH  23  24
ATOM     24  C   LIG    1       -0.975   6.276  -0.013  0.00  0.00    +0.600 C 
ATOM     25  F   LIG    1       -1.746   5.922  -1.126  0.00  0.00    -0.160 F 
ATOM     26  F   LIG    1       -0.738   7.654  -0.029  0.00  0.00    -0.130 F 
ATOM     27  F   LIG    1       -1.662   5.933   1.157  0.00  0.00    -0.160 F 
ENDBRANCH  23  24
ENDBRANCH  20  23
ENDBRANCH  16  17
ENDBRANCH   3  16
TORSDOF 6
