REMARK  Name = ZINCrD00000mdGcV.0
REMARK                            x       y       z     vdW  Elec       q    Type
REMARK                         _______ _______ _______ _____ _____    ______ ____
ROOT
ATOM      1  O   LIG    1        4.713   1.572   0.069  0.00  0.00    -0.500 OA
ATOM      2  C   LIG    1        3.655   2.163  -0.021  0.00  0.00    +0.560 C 
ATOM      3  N   LIG    1        3.640   3.508  -0.116  0.00  0.00    -0.600 N 
ATOM      4  C   LIG    1        2.368   4.244  -0.107  0.00  0.00    +0.270 C 
ATOM      5  C   LIG    1        2.420   5.290   1.020  0.00  0.00    +0.300 C 
ATOM      6  N   LIG    1        3.675   6.045   0.901  0.00  0.00    -1.000 NA
ATOM      7  C   LIG    1        4.946   5.308   0.887  0.00  0.00    +0.300 C 
ATOM      8  C   LIG    1        4.895   4.263  -0.235  0.00  0.00    +0.290 C 
ENDROOT
BRANCH   2   9
ATOM      9  C   LIG    1        2.385   1.409  -0.028  0.00  0.00    -0.120 A 
ATOM     10  C   LIG    1        1.470   1.586  -1.067  0.00  0.00    +0.090 A 
ATOM     11  C   LIG    1        0.286   0.879  -1.069  0.00  0.00    +0.010 A 
ATOM     12  C   LIG    1        0.004  -0.007  -0.040  0.00  0.00    +0.130 A 
ATOM     13  C   LIG    1        0.908  -0.188   0.994  0.00  0.00    +0.020 A 
ATOM     14  F   LIG    1       -1.158  -0.697  -0.047  0.00  0.00    -0.120 F 
ATOM     15  C   LIG    1        2.096   0.514   1.006  0.00  0.00    -0.030 A 
ATOM     16 BR   LIG    1        3.329   0.267   2.419  0.00  0.00    -0.010 Br
ENDBRANCH   2   9
BRANCH   6  17
ATOM     17  S   LIG    1        3.656   7.697   0.783  0.00  0.00    +2.680 S 
ATOM     18  O   LIG    1        4.928   8.145   1.231  0.00  0.00    -0.950 OA
ATOM     19  O   LIG    1        2.433   8.127   1.364  0.00  0.00    -0.960 OA
BRANCH  17  20
ATOM     20  C   LIG    1        3.563   8.097  -0.930  0.00  0.00    -0.600 C 
ATOM     21  C   LIG    1        2.491   8.713  -1.409  0.00  0.00    +0.210 C 
BRANCH  21  22
ATOM     22  C   LIG    1        2.412   9.049  -2.846  0.00  0.00    -0.100 A 
ATOM     23  C   LIG    1        3.467   8.725  -3.700  0.00  0.00    +0.040 A 
ATOM     24  C   LIG    1        3.385   9.035  -5.042  0.00  0.00    +0.000 A 
ATOM     25  C   LIG    1        2.265   9.678  -5.539  0.00  0.00    +0.030 A 
ATOM     26  C   LIG    1        1.218  10.007  -4.696  0.00  0.00    +0.000 A 
ATOM     27  C   LIG    1        1.286   9.697  -3.354  0.00  0.00    +0.040 A 
ENDBRANCH  21  22
ENDBRANCH  17  20
ENDBRANCH   6  17
TORSDOF 4
