REMARK  Name = ZINCpk00000xZe7k.0
REMARK                            x       y       z     vdW  Elec       q    Type
REMARK                         _______ _______ _______ _____ _____    ______ ____
ROOT
ATOM      1  C   LIG    1        0.480   0.108   0.633  0.00  0.00    +0.520 C 
ATOM      2  N   LIG    1        0.438   1.411   0.979  0.00  0.00    -0.690 N 
ATOM      3  H   LIG    1       -0.230   1.724   1.608  0.00  0.00    +0.400 HD
ATOM      4  O   LIG    1        1.248  -0.266  -0.227  0.00  0.00    -0.500 OA
ENDROOT
BRANCH   1  12
ATOM      5  C   LIG    1       -4.745  -1.838  -0.012  0.00  0.00    +0.200 C 
ATOM      6  C   LIG    1       -3.732  -2.554   0.843  0.00  0.00    +0.190 A 
ATOM      7  N   LIG    1       -3.933  -3.640   1.545  0.00  0.00    -0.290 NA
ATOM      8  N   LIG    1       -2.846  -3.974   2.153  0.00  0.00    -0.280 NA
ATOM      9  C   LIG    1       -1.912  -3.122   1.868  0.00  0.00    +0.170 A 
ATOM     10  C   LIG    1       -0.477  -3.090   2.329  0.00  0.00    +0.330 C 
ATOM     11  N   LIG    1        0.265  -2.171   1.446  0.00  0.00    -0.520 NA
ATOM     12  C   LIG    1       -0.428  -0.882   1.316  0.00  0.00    +0.120 C 
ATOM     13  C   LIG    1       -1.705  -1.061   0.485  0.00  0.00    +0.330 C 
ATOM     14  C   LIG    1        1.643  -1.983   1.920  0.00  0.00    +0.210 C 
ATOM     15  N   LIG    1       -2.449  -2.196   1.030  0.00  0.00    -0.470 N 
ENDBRANCH   1  12
BRANCH   2  16
ATOM     16  C   LIG    1        1.398   2.353   0.399  0.00  0.00    +0.100 C 
ATOM     17  C   LIG    1        1.802   2.141  -1.061  0.00  0.00    +0.040 C 
ATOM     18  C   LIG    1        2.793   1.823   0.061  0.00  0.00    +0.040 C 
BRANCH  16  19
ATOM     19  C   LIG    1        1.292   3.795   0.900  0.00  0.00    +0.150 C 
BRANCH  19  20
ATOM     20  C   LIG    1       -0.091   4.324   0.621  0.00  0.00    -0.090 A 
ATOM     21  C   LIG    1       -0.385   4.871  -0.614  0.00  0.00    +0.050 A 
ATOM     22  C   LIG    1       -1.655   5.352  -0.872  0.00  0.00    -0.010 A 
ATOM     23  C   LIG    1       -2.630   5.295   0.109  0.00  0.00    +0.100 A 
ATOM     24  C   LIG    1       -2.333   4.751   1.347  0.00  0.00    -0.010 A 
ATOM     25  F   LIG    1       -3.870   5.769  -0.141  0.00  0.00    -0.140 F 
ATOM     26  C   LIG    1       -1.064   4.266   1.602  0.00  0.00    +0.030 A 
ENDBRANCH  19  20
ENDBRANCH  16  19
ENDBRANCH   2  16
TORSDOF 4
