REMARK  Name = ZINCrH00000No4zE.0
REMARK                            x       y       z     vdW  Elec       q    Type
REMARK                         _______ _______ _______ _____ _____    ______ ____
ROOT
ATOM      1  N   LIG    1       -3.548   1.667   0.071  0.00  0.00    -0.570 N 
ATOM      2  C   LIG    1       -4.115   2.027  -1.086  0.00  0.00    +0.520 C 
ATOM      3  S   LIG    1       -5.685   2.746  -0.689  0.00  0.00    +0.010 S 
ATOM      4  C   LIG    1       -5.504   2.526   1.063  0.00  0.00    -0.230 C 
ATOM      5  C   LIG    1       -6.377   2.868   2.042  0.00  0.00    +0.240 C 
ATOM      6  O   LIG    1       -3.643   1.887  -2.198  0.00  0.00    -0.420 OA
ATOM      7  C   LIG    1       -4.191   1.882   1.207  0.00  0.00    +0.560 C 
ATOM      8  O   LIG    1       -3.729   1.573   2.289  0.00  0.00    -0.460 OA
ENDROOT
BRANCH   5   9
ATOM      9  C   LIG    1       -7.571   3.662   1.717  0.00  0.00    -0.090 A 
ATOM     10  C   LIG    1       -7.626   4.394   0.526  0.00  0.00    +0.070 A 
ATOM     11  C   LIG    1       -8.749   5.137   0.229  0.00  0.00    +0.030 A 
ATOM     12  C   LIG    1       -9.820   5.160   1.105  0.00  0.00    +0.060 A 
ATOM     13  C   LIG    1       -9.775   4.439   2.286  0.00  0.00    +0.030 A 
ATOM     14  C   LIG    1       -8.661   3.686   2.596  0.00  0.00    -0.000 A 
ATOM     15 CL   LIG    1       -8.609   2.776   4.073  0.00  0.00    -0.050 Cl
ENDBRANCH   5   9
BRANCH   1  16
ATOM     16  C   LIG    1       -2.227   1.035   0.080  0.00  0.00    +0.310 C 
BRANCH  16  17
ATOM     17  C   LIG    1       -1.146   2.113   0.183  0.00  0.00    +0.270 C 
BRANCH  17  20
ATOM     18  O   LIG    1        1.191   3.448   0.340  0.00  0.00    -0.530 OA
ATOM     19  C   LIG    1        1.286   2.241   0.271  0.00  0.00    +0.520 C 
ATOM     20  N   LIG    1        0.176   1.481   0.192  0.00  0.00    -0.730 N 
ATOM     21  H   LIG    1        0.252   0.516   0.137  0.00  0.00    +0.400 HD
BRANCH  19  22
ATOM     22  C   LIG    1        2.645   1.591   0.274  0.00  0.00    +0.060 C 
BRANCH  22  23
ATOM     23  C   LIG    1        3.726   2.670   0.371  0.00  0.00    +0.170 C 
BRANCH  23  24
ATOM     24  C   LIG    1        5.086   2.019   0.374  0.00  0.00    -0.010 A 
ATOM     25  C   LIG    1        5.826   1.740  -0.713  0.00  0.00    -0.060 A 
ATOM     26  C   LIG    1        7.021   1.140  -0.252  0.00  0.00    -0.060 A 
ATOM     27  C   LIG    1        6.935   1.082   1.089  0.00  0.00    +0.160 A 
ATOM     28  O   LIG    1        5.761   1.615   1.463  0.00  0.00    -0.180 OA
ENDBRANCH  23  24
ENDBRANCH  22  23
ENDBRANCH  19  22
ENDBRANCH  17  20
ENDBRANCH  16  17
ENDBRANCH   1  16
TORSDOF 7
