REMARK  Name = ZINCqH0000050kpI.0
REMARK                            x       y       z     vdW  Elec       q    Type
REMARK                         _______ _______ _______ _____ _____    ______ ____
ROOT
ATOM      1  N   LIG    1        2.430   7.940   0.333  0.00  0.00    -0.600 N 
ATOM      2  C   LIG    1        3.100   8.268  -0.790  0.00  0.00    +0.530 C 
ATOM      3  O   LIG    1        2.567   8.143  -1.873  0.00  0.00    -0.530 OA
ATOM      4  C   LIG    1        3.074   8.091   1.640  0.00  0.00    +0.300 C 
ENDROOT
BRANCH   1   5
ATOM      5  C   LIG    1        1.059   7.433   0.246  0.00  0.00    +0.330 C 
BRANCH   5   8
ATOM      6  N   LIG    1       -0.069   5.242   0.030  0.00  0.00    -0.670 N 
ATOM      7  H   LIG    1       -0.914   5.715  -0.026  0.00  0.00    +0.410 HD
ATOM      8  C   LIG    1        1.085   5.931   0.124  0.00  0.00    +0.500 C 
ATOM      9  O   LIG    1        2.146   5.342   0.112  0.00  0.00    -0.510 OA
BRANCH   6  15
ATOM     10  C   LIG    1        2.146   1.057  -1.294  0.00  0.00    +0.090 C 
ATOM     11  C   LIG    1        1.012   1.788  -0.623  0.00  0.00    -0.070 A 
ATOM     12  C   LIG    1       -0.010   1.076  -0.024  0.00  0.00    -0.010 A 
ATOM     13  C   LIG    1       -1.055   1.744   0.589  0.00  0.00    +0.030 A 
ATOM     14  C   LIG    1       -1.075   3.124   0.613  0.00  0.00    -0.120 A 
ATOM     15  C   LIG    1       -0.049   3.842   0.012  0.00  0.00    +0.150 A 
ATOM     16  C   LIG    1       -2.211   3.851   1.285  0.00  0.00    +0.090 C 
ATOM     17  C   LIG    1        0.996   3.169  -0.607  0.00  0.00    +0.020 A 
ENDBRANCH   6  15
ENDBRANCH   5   8
ENDBRANCH   1   5
BRANCH   2  18
ATOM     18  C   LIG    1        4.511   8.790  -0.701  0.00  0.00    +0.100 C 
BRANCH  18  19
ATOM     19  C   LIG    1        5.036   9.084  -2.108  0.00  0.00    +0.100 C 
BRANCH  19  20
ATOM     20  S   LIG    1        6.734   9.712  -2.000  0.00  0.00    -0.240 S 
BRANCH  20  21
ATOM     21  C   LIG    1        7.175   9.996  -3.737  0.00  0.00    +0.190 C 
BRANCH  21  22
ATOM     22  C   LIG    1        8.582  10.529  -3.817  0.00  0.00    +0.080 A 
ATOM     23  C   LIG    1        8.864  11.835  -3.788  0.00  0.00    -0.060 A 
ATOM     24  S   LIG    1       10.613  12.015  -3.905  0.00  0.00    +0.130 S 
ATOM     25  C   LIG    1       10.790  10.317  -3.988  0.00  0.00    +0.050 A 
ATOM     26  C   LIG    1       12.106   9.593  -4.115  0.00  0.00    +0.180 C 
ATOM     27  N   LIG    1        9.636   9.745  -3.927  0.00  0.00    -0.460 NA
ENDBRANCH  21  22
ENDBRANCH  20  21
ENDBRANCH  19  20
ENDBRANCH  18  19
ENDBRANCH   2  18
TORSDOF 8
