REMARK  Name = ZINCbu0000001nnd.0
REMARK                            x       y       z     vdW  Elec       q    Type
REMARK                         _______ _______ _______ _____ _____    ______ ____
ROOT
ATOM      1  C   LIG    1        1.216  -0.681  -0.013  0.00  0.00    -0.060 A 
ATOM      2  C   LIG    1        0.002  -0.004   0.002  0.00  0.00    +0.020 A 
ATOM      3  C   LIG    1       -0.017   1.377   0.010  0.00  0.00    +0.070 A 
ATOM      4  C   LIG    1        1.170   2.086   0.002  0.00  0.00    +0.030 A 
ATOM      5  C   LIG    1        2.380   1.416  -0.013  0.00  0.00    +0.010 A 
ATOM      6  C   LIG    1        2.407   0.036  -0.021  0.00  0.00    -0.130 A 
ENDROOT
BRANCH   1   8
ATOM      7  C   LIG    1       -0.516  -2.879  -0.009  0.00  0.00    +0.150 C 
ATOM      8  S   LIG    1        1.244  -2.442  -0.024  0.00  0.00    -0.110 S 
ENDBRANCH   1   8
BRANCH   6   9
ATOM      9  C   LIG    1        3.725  -0.694  -0.038  0.00  0.00    +0.230 C 
ATOM     10  C   LIG    1        4.097  -1.042  -1.481  0.00  0.00    +0.100 C 
BRANCH   9  11
ATOM     11  N   LIG    1        4.767   0.165   0.542  0.00  0.00    -0.640 N 
ATOM     12  H   LIG    1        5.650  -0.324   0.531  0.00  0.00    +0.440 HD
ATOM     13  H   LIG    1        4.522   0.395   1.494  0.00  0.00    +0.440 HD
ATOM     14  H   LIG    1        4.845   1.012   0.001  0.00  0.00    +0.430 HD
ENDBRANCH   9  11
ENDBRANCH   6   9
TORSDOF 3
