REMARK  Name = ZINCvU0000000F1p.0
REMARK                            x       y       z     vdW  Elec       q    Type
REMARK                         _______ _______ _______ _____ _____    ______ ____
ROOT
ATOM      1  C   LIG    1       -0.018   1.472   0.010  0.00  0.00    -0.210 A 
ATOM      2  C   LIG    1        1.313   1.859  -0.001  0.00  0.00    +0.160 A 
ATOM      3  O   LIG    1        2.093   0.767  -0.014  0.00  0.00    -0.170 OA
ATOM      4  C   LIG    1        1.358  -0.365  -0.013  0.00  0.00    +0.050 A 
ATOM      5  C   LIG    1        1.703  -1.711  -0.024  0.00  0.00    +0.080 A 
ATOM      6  C   LIG    1        0.721  -2.678  -0.021  0.00  0.00    +0.050 A 
ATOM      7  C   LIG    1       -0.625  -2.320  -0.005  0.00  0.00    +0.140 A 
ATOM      8  C   LIG    1       -0.987  -0.983   0.006  0.00  0.00    +0.060 A 
ATOM      9  C   LIG    1        0.002  -0.004   0.002  0.00  0.00    -0.070 A 
ENDROOT
BRANCH   2  10
ATOM     10  C   LIG    1        1.796   3.253   0.003  0.00  0.00    -0.050 A 
ATOM     11  C   LIG    1        0.884   4.312   0.012  0.00  0.00    +0.030 A 
ATOM     12  C   LIG    1        1.343   5.612   0.021  0.00  0.00    +0.020 A 
ATOM     13  C   LIG    1        2.702   5.870   0.009  0.00  0.00    +0.040 A 
ATOM     14  C   LIG    1        3.611   4.827  -0.006  0.00  0.00    +0.020 A 
ATOM     15  C   LIG    1        3.167   3.521  -0.009  0.00  0.00    +0.060 A 
ENDBRANCH   2  10
BRANCH   1  16
ATOM     16  C   LIG    1       -1.196   2.343   0.021  0.00  0.00    +0.550 C 
ATOM     17  O   LIG    1       -1.680   2.699   1.078  0.00  0.00    -0.490 OA
BRANCH  16  18
ATOM     18  O   LIG    1       -1.744   2.750  -1.142  0.00  0.00    -0.350 OA
BRANCH  18  20
ATOM     19  C   LIG    1       -3.387   3.967  -2.466  0.00  0.00    +0.070 C 
ATOM     20  C   LIG    1       -2.910   3.612  -1.056  0.00  0.00    +0.200 C 
ENDBRANCH  18  20
ENDBRANCH  16  18
ENDBRANCH   1  16
BRANCH   7  21
ATOM     21  N   LIG    1       -1.612  -3.311  -0.002  0.00  0.00    -1.050 N 
ATOM     22  H   LIG    1       -2.381  -3.232  -0.588  0.00  0.00    +0.430 HD
BRANCH  21  23
ATOM     23  S   LIG    1       -1.468  -4.620   1.003  0.00  0.00    +2.690 S 
ATOM     24  O   LIG    1       -0.148  -5.115   0.829  0.00  0.00    -0.940 OA
ATOM     25  O   LIG    1       -2.629  -5.413   0.797  0.00  0.00    -0.940 OA
BRANCH  23  26
ATOM     26  C   LIG    1       -1.561  -4.020   2.657  0.00  0.00    -0.680 A 
ATOM     27  C   LIG    1       -0.408  -3.648   3.323  0.00  0.00    +0.150 A 
ATOM     28  C   LIG    1       -0.481  -3.172   4.619  0.00  0.00    +0.020 A 
ATOM     29  C   LIG    1       -1.707  -3.080   5.253  0.00  0.00    +0.020 A 
ATOM     30  C   LIG    1       -2.860  -3.458   4.588  0.00  0.00    +0.020 A 
ATOM     31 CL   LIG    1       -1.799  -2.491   6.884  0.00  0.00    -0.050 Cl
ATOM     32  C   LIG    1       -2.787  -3.928   3.290  0.00  0.00    +0.150 A 
ENDBRANCH  23  26
ENDBRANCH  21  23
ENDBRANCH   7  21
TORSDOF 7
