REMARK  Name = ZINCnE00000rhom2.0
REMARK                            x       y       z     vdW  Elec       q    Type
REMARK                         _______ _______ _______ _____ _____    ______ ____
ROOT
ATOM      1  N   LIG    1        5.460   4.296   0.233  0.00  0.00    -0.370 NA
ATOM      2  C   LIG    1        6.346   5.222  -0.031  0.00  0.00    +0.250 C 
ENDROOT
BRANCH   1  13
ATOM      3  C   LIG    1        4.867   1.778   0.496  0.00  0.00    +0.340 C 
ATOM      4  N   LIG    1        3.551   2.348   0.797  0.00  0.00    -0.530 N 
ATOM      5  C   LIG    1        2.476   1.534   1.102  0.00  0.00    +0.150 A 
ATOM      6  C   LIG    1        2.453   0.132   1.172  0.00  0.00    +0.000 A 
ATOM      7  C   LIG    1        1.294  -0.537   1.492  0.00  0.00    +0.050 A 
ATOM      8  C   LIG    1        0.124   0.155   1.751  0.00  0.00    +0.000 A 
ATOM      9  C   LIG    1        0.123   1.536   1.687  0.00  0.00    +0.090 A 
ATOM     10  C   LIG    1        1.287   2.213   1.367  0.00  0.00    -0.180 A 
ATOM     11  S   LIG    1        1.647   3.937   1.198  0.00  0.00    +0.120 S 
ATOM     12  C   LIG    1        3.352   3.694   0.785  0.00  0.00    +0.360 A 
ATOM     13  N   LIG    1        4.246   4.628   0.519  0.00  0.00    -0.390 NA
ENDBRANCH   1  13
BRANCH   2  14
ATOM     14  C   LIG    1        5.934   6.622  -0.131  0.00  0.00    -0.200 A 
ATOM     15  C   LIG    1        6.780   7.689  -0.241  0.00  0.00    +0.050 A 
ATOM     16  C   LIG    1        6.147   8.910  -0.320  0.00  0.00    +0.000 A 
ATOM     17  C   LIG    1        4.812   8.863  -0.277  0.00  0.00    -0.090 A 
ATOM     18  S   LIG    1        4.271   7.196  -0.135  0.00  0.00    +0.200 S 
ENDBRANCH   2  14
BRANCH   2  19
ATOM     19  C   LIG    1        7.792   4.846  -0.231  0.00  0.00    +0.140 C 
BRANCH  19  20
ATOM     20  C   LIG    1        8.202   5.149  -1.674  0.00  0.00    -0.060 C 
BRANCH  20  21
ATOM     21  C   LIG    1        9.648   4.773  -1.874  0.00  0.00    +0.490 C 
ATOM     22  O   LIG    1       10.175   4.935  -2.962  0.00  0.00    -0.700 OA
ATOM     23  O   LIG    1       10.290   4.305  -0.949  0.00  0.00    -0.700 OA
ENDBRANCH  20  21
ENDBRANCH  19  20
ENDBRANCH   2  19
TORSDOF 5
