REMARK  Name = ZINC9l0000002Kk5.0
REMARK                            x       y       z     vdW  Elec       q    Type
REMARK                         _______ _______ _______ _____ _____    ______ ____
ROOT
ATOM      1  C   LIG    1       -0.017   1.409   0.010  0.00  0.00    -0.260 A 
ATOM      2  C   LIG    1       -1.146   2.191   0.019  0.00  0.00    +0.090 A 
ATOM      3  C   LIG    1       -0.870   3.539   0.028  0.00  0.00    -0.030 A 
ATOM      4  C   LIG    1        0.431   3.853   0.018  0.00  0.00    -0.110 A 
ATOM      5  F   LIG    1       -2.399   1.688   0.022  0.00  0.00    -0.120 F 
ATOM      6  S   LIG    1        1.401   2.449   0.002  0.00  0.00    +0.240 S 
ENDROOT
BRANCH   1   8
ATOM      7  O   LIG    1        1.071  -0.602  -0.011  0.00  0.00    -0.690 OA
ATOM      8  C   LIG    1        0.002  -0.004   0.002  0.00  0.00    +0.540 C 
ATOM      9  O   LIG    1       -1.051  -0.631   0.008  0.00  0.00    -0.670 OA
ENDBRANCH   1   8
TORSDOF 1
