REMARK  Name = ZINCrD00000755Q3.0
REMARK                            x       y       z     vdW  Elec       q    Type
REMARK                         _______ _______ _______ _____ _____    ______ ____
ROOT
ATOM      1  N   LIG    1        0.038  -1.986   1.434  0.00  0.00    -0.750 N 
ATOM      2  H   LIG    1        0.033  -2.467   0.591  0.00  0.00    +0.390 HD
ATOM      3  C   LIG    1        0.063  -2.667   2.597  0.00  0.00    +0.710 C 
ATOM      4  N   LIG    1       -0.021  -4.012   2.593  0.00  0.00    -0.630 N 
ATOM      5  C   LIG    1       -0.030  -4.757   1.327  0.00  0.00    +0.260 C 
ATOM      6  C   LIG    1        1.078  -5.820   1.377  0.00  0.00    +0.020 C 
ATOM      7  C   LIG    1        0.885  -6.691   2.621  0.00  0.00    +0.000 C 
ATOM      8  C   LIG    1        0.994  -5.823   3.876  0.00  0.00    +0.020 C 
ATOM      9  C   LIG    1       -0.110  -4.760   3.854  0.00  0.00    +0.300 C 
ATOM     10  O   LIG    1        0.161  -2.067   3.650  0.00  0.00    -0.590 OA
ENDROOT
BRANCH   1  11
ATOM     11  C   LIG    1        0.019  -0.521   1.442  0.00  0.00    +0.270 C 
BRANCH  11  12
ATOM     12  C   LIG    1       -0.008  -0.003   0.003  0.00  0.00    +0.100 C 
BRANCH  12  20
ATOM     13  C   LIG    1       -2.596   1.825   0.034  0.00  0.00    +0.160 C 
ATOM     14  C   LIG    1       -1.170   2.311   0.025  0.00  0.00    +0.080 A 
ATOM     15  N   LIG    1       -0.785   3.562   0.034  0.00  0.00    -0.300 NA
ATOM     16  N   LIG    1        0.615   3.590   0.015  0.00  0.00    -0.370 N 
ATOM     17  C   LIG    1        1.056   2.314   0.002  0.00  0.00    +0.090 A 
ATOM     18  C   LIG    1        2.496   1.872  -0.021  0.00  0.00    +0.140 C 
ATOM     19  C   LIG    1        1.453   4.791   0.010  0.00  0.00    +0.360 C 
ATOM     20  C   LIG    1       -0.028   1.503   0.012  0.00  0.00    -0.240 A 
ENDBRANCH  12  20
ENDBRANCH  11  12
ENDBRANCH   1  11
BRANCH   7  21
ATOM     21  C   LIG    1        1.964  -7.775   2.656  0.00  0.00    +0.080 C 
BRANCH  21  22
ATOM     22  C   LIG    1        1.781  -8.705   1.484  0.00  0.00    -0.050 A 
ATOM     23  C   LIG    1        0.984  -9.827   1.610  0.00  0.00    +0.000 A 
ATOM     24  C   LIG    1        0.811 -10.678   0.534  0.00  0.00    +0.040 A 
ATOM     25  C   LIG    1        1.444 -10.413  -0.666  0.00  0.00    -0.030 A 
ATOM     26  C   LIG    1        2.247  -9.292  -0.792  0.00  0.00    +0.100 A 
ATOM     27  F   LIG    1        2.865  -9.031  -1.964  0.00  0.00    -0.140 F 
ATOM     28  C   LIG    1        2.415  -8.438   0.285  0.00  0.00    -0.020 A 
ENDBRANCH  21  22
ENDBRANCH   7  21
TORSDOF 5
