REMARK  Name = ZINCpk00000eb88G.0
REMARK                            x       y       z     vdW  Elec       q    Type
REMARK                         _______ _______ _______ _____ _____    ______ ____
ROOT
ATOM      1  N   LIG    1       -2.292   8.842   1.034  0.00  0.00    -0.660 N 
ATOM      2  H   LIG    1       -1.484   9.378   1.002  0.00  0.00    +0.420 HD
ATOM      3  C   LIG    1       -3.415   9.281   0.432  0.00  0.00    +0.510 C 
ATOM      4  O   LIG    1       -4.440   8.638   0.519  0.00  0.00    -0.470 OA
ENDROOT
BRANCH   1  11
ATOM      5  C   LIG    1       -1.701   2.539   5.602  0.00  0.00    +0.190 C 
ATOM      6  C   LIG    1       -1.690   3.871   4.897  0.00  0.00    +0.450 A 
ATOM      7  N   LIG    1       -1.096   4.874   5.482  0.00  0.00    -0.600 NA
ATOM      8  C   LIG    1       -1.044   6.095   4.916  0.00  0.00    +0.530 A 
ATOM      9  C   LIG    1       -1.681   6.277   3.600  0.00  0.00    -0.190 A 
ATOM     10  C   LIG    1       -1.676   7.503   2.940  0.00  0.00    +0.110 A 
ATOM     11  C   LIG    1       -2.291   7.613   1.705  0.00  0.00    +0.120 A 
ATOM     12  C   LIG    1       -2.911   6.507   1.127  0.00  0.00    +0.100 A 
ATOM     13  C   LIG    1       -2.920   5.290   1.773  0.00  0.00    +0.000 A 
ATOM     14  C   LIG    1       -2.308   5.162   3.013  0.00  0.00    +0.170 A 
ATOM     15  O   LIG    1       -0.485   7.022   5.476  0.00  0.00    -0.480 OA
ATOM     16  N   LIG    1       -2.286   3.962   3.696  0.00  0.00    -0.620 N 
ATOM     17  H   LIG    1       -2.709   3.179   3.309  0.00  0.00    +0.420 HD
ENDBRANCH   1  11
BRANCH   3  18
ATOM     18  C   LIG    1       -3.397  10.570  -0.349  0.00  0.00    +0.080 C 
BRANCH  18  19
ATOM     19  C   LIG    1       -3.623  11.746   0.603  0.00  0.00    +0.480 C 
ATOM     20  F   LIG    1       -4.884  11.628   1.199  0.00  0.00    -0.160 F 
ATOM     21  F   LIG    1       -3.556  12.945  -0.114  0.00  0.00    -0.160 F 
ATOM     22  F   LIG    1       -2.637  11.739   1.595  0.00  0.00    -0.170 F 
ENDBRANCH  18  19
BRANCH  18  23
ATOM     23  O   LIG    1       -2.132  10.717  -0.996  0.00  0.00    -0.530 OA
ATOM     24  H   LIG    1       -1.957  10.051  -1.675  0.00  0.00    +0.400 HD
ENDBRANCH  18  23
BRANCH  18  25
ATOM     25  C   LIG    1       -4.508  10.544  -1.401  0.00  0.00    +0.220 C 
BRANCH  25  26
ATOM     26  N   LIG    1       -4.409   9.308  -2.188  0.00  0.00    -0.540 NA
ATOM     27  C   LIG    1       -3.266   9.361  -3.110  0.00  0.00    +0.200 C 
ATOM     28  C   LIG    1       -5.658   9.044  -2.914  0.00  0.00    +0.220 C 
ENDBRANCH  25  26
ENDBRANCH  18  25
ENDBRANCH   3  18
TORSDOF 6
