REMARK  Name = ZINCpk00000j8yql.0
REMARK                            x       y       z     vdW  Elec       q    Type
REMARK                         _______ _______ _______ _____ _____    ______ ____
ROOT
ATOM      1  C   LIG    1        5.352   3.081  -3.652  0.00  0.00    +0.100 C 
ATOM      2  C   LIG    1        3.979   2.486  -3.831  0.00  0.00    +0.520 C 
ATOM      3  N   LIG    1        3.057   2.614  -2.856  0.00  0.00    -0.620 N 
ATOM      4  C   LIG    1        3.322   3.426  -1.658  0.00  0.00    +0.240 C 
ATOM      5  C   LIG    1        2.155   4.399  -1.456  0.00  0.00    +0.220 C 
ATOM      6  O   LIG    1        0.922   3.675  -1.481  0.00  0.00    -0.370 OA
ATOM      7  C   LIG    1        0.667   3.009  -2.717  0.00  0.00    +0.150 C 
ATOM      8  C   LIG    1       -0.719   2.374  -2.709  0.00  0.00    +0.060 C 
ATOM      9  C   LIG    1       -0.805   1.330  -1.592  0.00  0.00    +0.270 C 
ATOM     10  N   LIG    1        0.297   0.373  -1.764  0.00  0.00    -0.610 N 
ATOM     11  C   LIG    1        1.668   0.889  -1.844  0.00  0.00    +0.280 C 
ATOM     12  C   LIG    1        0.053  -0.950  -1.847  0.00  0.00    +0.600 C 
ATOM     13  O   LIG    1        0.961  -1.722  -2.088  0.00  0.00    -0.530 OA
ATOM     14  C   LIG    1        1.745   1.946  -2.952  0.00  0.00    +0.220 C 
ATOM     15  O   LIG    1        3.704   1.892  -4.852  0.00  0.00    -0.540 OA
ENDROOT
BRANCH  12  16
ATOM     16  C   LIG    1       -1.315  -1.462  -1.644  0.00  0.00    -0.290 A 
ATOM     17  C   LIG    1       -2.253  -0.966  -0.761  0.00  0.00    +0.280 A 
ATOM     18  N   LIG    1       -3.362  -1.711  -0.892  0.00  0.00    -0.340 N 
ATOM     19  N   LIG    1       -3.124  -2.694  -1.859  0.00  0.00    -0.290 NA
ATOM     20  C   LIG    1       -1.909  -2.555  -2.313  0.00  0.00    +0.130 A 
ATOM     21  C   LIG    1       -1.254  -3.411  -3.366  0.00  0.00    +0.160 C 
BRANCH  18  22
ATOM     22  C   LIG    1       -4.609  -1.530  -0.144  0.00  0.00    +0.180 C 
ATOM     23  C   LIG    1       -4.288  -1.305   1.335  0.00  0.00    +0.070 C 
ATOM     24  C   LIG    1       -5.479  -2.779  -0.293  0.00  0.00    +0.070 C 
ATOM     25  C   LIG    1       -5.361  -0.316  -0.693  0.00  0.00    +0.050 C 
ENDBRANCH  18  22
ENDBRANCH  12  16
TORSDOF 2
