REMARK  Name = ZINCrH000004mQN9.0
REMARK                            x       y       z     vdW  Elec       q    Type
REMARK                         _______ _______ _______ _____ _____    ______ ____
ROOT
ATOM      1  N   LIG    1        2.685  -0.457   3.688  0.00  0.00    -0.660 N 
ATOM      2  H   LIG    1        3.061  -0.810   2.867  0.00  0.00    +0.420 HD
ATOM      3  C   LIG    1        3.269  -0.733   4.871  0.00  0.00    +0.510 C 
ATOM      4  O   LIG    1        2.747  -0.373   5.904  0.00  0.00    -0.510 OA
ENDROOT
BRANCH   1   8
ATOM      5  C   LIG    1       -0.741   1.922   3.565  0.00  0.00    +0.110 A 
ATOM      6  C   LIG    1        0.231   2.155   4.523  0.00  0.00    -0.020 A 
ATOM      7  C   LIG    1        1.366   1.368   4.564  0.00  0.00    +0.040 A 
ATOM      8  C   LIG    1        1.534   0.341   3.645  0.00  0.00    +0.140 A 
ATOM      9  C   LIG    1        0.558   0.100   2.687  0.00  0.00    -0.030 A 
ATOM     10  C   LIG    1       -0.576   0.893   2.642  0.00  0.00    +0.100 A 
BRANCH   5  12
ATOM     11  C   LIG    1       -1.962   3.736   4.503  0.00  0.00    +0.240 C 
ATOM     12  O   LIG    1       -1.858   2.698   3.526  0.00  0.00    -0.310 OA
ENDBRANCH   5  12
BRANCH  10  13
ATOM     13  O   LIG    1       -1.531   0.663   1.701  0.00  0.00    -0.310 OA
BRANCH  13  14
ATOM     14  C   LIG    1       -1.295  -0.410   0.787  0.00  0.00    +0.590 C 
ATOM     15  F   LIG    1       -0.116  -0.165   0.074  0.00  0.00    -0.200 F 
ATOM     16  F   LIG    1       -1.170  -1.609   1.497  0.00  0.00    -0.200 F 
ENDBRANCH  13  14
ENDBRANCH  10  13
ENDBRANCH   1   8
BRANCH   3  17
ATOM     17  C   LIG    1        4.572  -1.490   4.909  0.00  0.00    +0.250 C 
ATOM     18  C   LIG    1        4.383  -2.863   4.260  0.00  0.00    +0.060 C 
BRANCH  17  19
ATOM     19  N   LIG    1        4.996  -1.662   6.301  0.00  0.00    -0.710 N 
ATOM     20  H   LIG    1        4.338  -1.651   7.013  0.00  0.00    +0.410 HD
ATOM     21  C   LIG    1        6.301  -1.835   6.591  0.00  0.00    +0.570 C 
ATOM     22  O   LIG    1        7.126  -1.848   5.698  0.00  0.00    -0.530 OA
BRANCH  21  23
ATOM     23  C   LIG    1        6.729  -2.009   7.995  0.00  0.00    -0.130 A 
ATOM     24  C   LIG    1        5.785  -1.988   9.023  0.00  0.00    +0.070 A 
ATOM     25  C   LIG    1        6.190  -2.155  10.330  0.00  0.00    +0.020 A 
ATOM     26  C   LIG    1        7.531  -2.333  10.626  0.00  0.00    -0.010 A 
ATOM     27  C   LIG    1        8.473  -2.349   9.610  0.00  0.00    +0.020 A 
ATOM     28 CL   LIG    1        8.034  -2.536  12.275  0.00  0.00    -0.060 Cl
ATOM     29  C   LIG    1        8.080  -2.188   8.298  0.00  0.00    +0.110 A 
ENDBRANCH  21  23
ENDBRANCH  17  19
ENDBRANCH   3  17
TORSDOF 7
