REMARK  Name = ZINCpk000000nSUW.0
REMARK                            x       y       z     vdW  Elec       q    Type
REMARK                         _______ _______ _______ _____ _____    ______ ____
ROOT
ATOM      1  C   LIG    1       -5.614   3.796   1.301  0.00  0.00    +0.190 C 
ATOM      2  C   LIG    1       -5.863   2.944   2.547  0.00  0.00    +0.030 C 
ENDROOT
BRANCH   1   3
ATOM      3  N   LIG    1       -6.518   4.954   1.312  0.00  0.00    -0.520 NA
ATOM      4  C   LIG    1       -6.316   5.769   2.517  0.00  0.00    +0.200 C 
ATOM      5  C   LIG    1       -7.217   7.005   2.452  0.00  0.00    +0.230 C 
ATOM      6  N   LIG    1       -8.619   6.579   2.336  0.00  0.00    -0.460 N 
ATOM      7  C   LIG    1       -8.822   5.764   1.131  0.00  0.00    +0.220 C 
ATOM      8  C   LIG    1       -7.920   4.529   1.196  0.00  0.00    +0.190 C 
BRANCH   6   9
ATOM      9  C   LIG    1       -9.471   7.670   2.346  0.00  0.00    +0.490 A 
ATOM     10  N   LIG    1      -10.309   7.845   1.335  0.00  0.00    -0.550 NA
ATOM     11  C   LIG    1      -11.140   8.874   1.316  0.00  0.00    +0.340 A 
ATOM     12  C   LIG    1      -11.119   9.780   2.365  0.00  0.00    -0.110 A 
ATOM     13  C   LIG    1      -10.226   9.569   3.404  0.00  0.00    +0.340 A 
ATOM     14  N   LIG    1       -9.425   8.517   3.364  0.00  0.00    -0.530 NA
ENDBRANCH   6   9
ENDBRANCH   1   3
BRANCH   1  17
ATOM     15  N   LIG    1       -3.176   3.382   1.288  0.00  0.00    -0.650 N 
ATOM     16  H   LIG    1       -3.369   2.432   1.284  0.00  0.00    +0.410 HD
ATOM     17  C   LIG    1       -4.185   4.275   1.297  0.00  0.00    +0.530 C 
ATOM     18  O   LIG    1       -3.944   5.463   1.303  0.00  0.00    -0.480 OA
BRANCH  15  23
ATOM     19  N   LIG    1       -0.749   3.044   1.275  0.00  0.00    -0.380 N 
ATOM     20  N   LIG    1        0.372   3.884   1.268  0.00  0.00    -0.280 NA
ATOM     21  C   LIG    1       -0.042   5.125   1.278  0.00  0.00    +0.250 A 
ATOM     22  C   LIG    1       -1.439   5.122   1.292  0.00  0.00    -0.110 A 
ATOM     23  C   LIG    1       -1.853   3.825   1.284  0.00  0.00    +0.300 A 
BRANCH  19  25
ATOM     24  C   LIG    1       -0.013   1.086   0.008  0.00  0.00    +0.050 C 
ATOM     25  C   LIG    1       -0.729   1.579   1.267  0.00  0.00    +0.250 C 
ATOM     26  C   LIG    1        0.011   1.072   2.506  0.00  0.00    +0.050 C 
ENDBRANCH  19  25
ENDBRANCH  15  23
ENDBRANCH   1  17
TORSDOF 5
