REMARK  Name = ZINCrH000004rjXN.0
REMARK                            x       y       z     vdW  Elec       q    Type
REMARK                         _______ _______ _______ _____ _____    ______ ____
ROOT
ATOM      1  C   LIG    1        4.743   4.054   1.080  0.00  0.00    -0.030 A 
ATOM      2  N   LIG    1        4.687   5.368   1.013  0.00  0.00    -0.170 NA
ATOM      3  N   LIG    1        5.640   6.112   1.439  0.00  0.00    -0.270 N 
ATOM      4  C   LIG    1        6.779   5.623   1.988  0.00  0.00    +0.270 A 
ATOM      5  C   LIG    1        6.968   4.288   2.119  0.00  0.00    -0.070 A 
ATOM      6  C   LIG    1        5.937   3.425   1.666  0.00  0.00    +0.380 A 
ATOM      7  O   LIG    1        6.038   2.211   1.756  0.00  0.00    -0.440 OA
ENDROOT
BRANCH   3   8
ATOM      8  C   LIG    1        5.498   7.500   1.330  0.00  0.00    +0.110 A 
ATOM      9  C   LIG    1        4.708   8.042   0.324  0.00  0.00    +0.070 A 
ATOM     10  C   LIG    1        4.566   9.411   0.222  0.00  0.00    +0.020 A 
ATOM     11  C   LIG    1        5.218  10.245   1.115  0.00  0.00    +0.110 A 
ATOM     12  C   LIG    1        6.011   9.707   2.116  0.00  0.00    +0.020 A 
ATOM     13  F   LIG    1        5.081  11.585   1.010  0.00  0.00    -0.130 F 
ATOM     14  C   LIG    1        6.152   8.338   2.225  0.00  0.00    +0.050 A 
ENDBRANCH   3   8
BRANCH   1  16
ATOM     15  N   LIG    1        2.642   3.793  -0.146  0.00  0.00    -0.550 N 
ATOM     16  C   LIG    1        3.627   3.228   0.580  0.00  0.00    +0.580 C 
ATOM     17  O   LIG    1        3.595   2.037   0.824  0.00  0.00    -0.480 OA
BRANCH  15  22
ATOM     18  C   LIG    1       -1.529   0.587  -2.268  0.00  0.00    +0.100 C 
ATOM     19  C   LIG    1       -0.421   1.437  -1.702  0.00  0.00    -0.090 A 
ATOM     20  C   LIG    1        0.898   1.058  -1.876  0.00  0.00    +0.030 A 
ATOM     21  C   LIG    1        1.916   1.838  -1.363  0.00  0.00    +0.010 A 
ATOM     22  C   LIG    1        1.614   3.001  -0.667  0.00  0.00    +0.140 A 
ATOM     23  C   LIG    1        0.288   3.376  -0.489  0.00  0.00    +0.000 A 
ATOM     24  C   LIG    1       -0.725   2.592  -1.004  0.00  0.00    +0.020 A 
ENDBRANCH  15  22
BRANCH  15  25
ATOM     25  C   LIG    1        2.649   5.238  -0.390  0.00  0.00    +0.240 C 
ATOM     26  C   LIG    1        1.773   5.936   0.652  0.00  0.00    +0.030 C 
ATOM     27  C   LIG    1        2.100   5.521  -1.790  0.00  0.00    +0.030 C 
ENDBRANCH  15  25
ENDBRANCH   1  16
TORSDOF 4
