REMARK  Name = ZINCrD00000F5Lmo.0
REMARK                            x       y       z     vdW  Elec       q    Type
REMARK                         _______ _______ _______ _____ _____    ______ ____
ROOT
ATOM      1  C   LIG    1       -0.013   1.086   0.008  0.00  0.00    +0.270 C 
ENDROOT
BRANCH   1   8
ATOM      2  C   LIG    1        0.204  -0.318  -2.529  0.00  0.00    +0.020 C 
ATOM      3  C   LIG    1        0.029   1.201  -2.489  0.00  0.00    -0.010 C 
ATOM      4  C   LIG    1       -0.749   1.659  -3.726  0.00  0.00    +0.050 C 
ATOM      5  C   LIG    1       -2.143   1.029  -3.709  0.00  0.00    +0.200 C 
ATOM      6  N   LIG    1       -2.850   1.434  -2.487  0.00  0.00    -0.470 N 
ATOM      7  C   LIG    1       -2.147   0.964  -1.287  0.00  0.00    +0.220 C 
ATOM      8  C   LIG    1       -0.753   1.593  -1.232  0.00  0.00    -0.010 C 
BRANCH   6   9
ATOM      9  C   LIG    1       -4.161   0.988  -2.502  0.00  0.00    +0.360 A 
ATOM     10  C   LIG    1       -5.012   1.320  -3.557  0.00  0.00    -0.090 A 
ATOM     11  C   LIG    1       -6.311   0.851  -3.525  0.00  0.00    +0.330 A 
ATOM     12  N   LIG    1       -6.704   0.106  -2.502  0.00  0.00    -0.540 NA
ATOM     13  C   LIG    1       -5.876  -0.191  -1.520  0.00  0.00    +0.520 A 
ATOM     14  N   LIG    1       -4.628   0.232  -1.512  0.00  0.00    -0.560 NA
ENDBRANCH   6   9
ENDBRANCH   1   8
BRANCH   1  15
ATOM     15  N   LIG    1       -0.698   1.558   1.213  0.00  0.00    -0.730 N 
ATOM     16  H   LIG    1       -1.495   2.106   1.135  0.00  0.00    +0.400 HD
ATOM     17  C   LIG    1       -0.222   1.232   2.431  0.00  0.00    +0.510 C 
ATOM     18  O   LIG    1        0.774   0.548   2.529  0.00  0.00    -0.530 OA
BRANCH  17  19
ATOM     19  C   LIG    1       -0.927   1.718   3.671  0.00  0.00    +0.070 C 
BRANCH  19  20
ATOM     20  C   LIG    1       -0.187   1.212   4.911  0.00  0.00    +0.050 C 
ATOM     21  C   LIG    1        1.206   1.840   4.965  0.00  0.00    +0.040 C 
BRANCH  20  22
ATOM     22  C   LIG    1       -0.959   1.593   6.147  0.00  0.00    -0.110 A 
ATOM     23  C   LIG    1       -1.199   2.924   6.429  0.00  0.00    +0.040 A 
ATOM     24  C   LIG    1       -1.913   3.274   7.561  0.00  0.00    +0.000 A 
ATOM     25  C   LIG    1       -2.376   2.294   8.418  0.00  0.00    +0.040 A 
ATOM     26  C   LIG    1       -2.132   0.962   8.141  0.00  0.00    -0.010 A 
ATOM     27  C   LIG    1       -1.423   0.610   7.005  0.00  0.00    +0.100 A 
ATOM     28  F   LIG    1       -1.184  -0.692   6.734  0.00  0.00    -0.140 F 
ENDBRANCH  20  22
ENDBRANCH  19  20
ENDBRANCH  17  19
ENDBRANCH   1  15
TORSDOF 6
