REMARK  Name = ZINCrm00000VuStp.2
REMARK                            x       y       z     vdW  Elec       q    Type
REMARK                         _______ _______ _______ _____ _____    ______ ____
ROOT
ATOM      1  C   LIG    1        4.199   1.876   2.385  0.00  0.00    +0.250 C 
ATOM      2  C   LIG    1        3.360   2.188   1.143  0.00  0.00    +0.260 C 
ATOM      3  N   LIG    1        2.059   1.506   1.231  0.00  0.00    -0.380 N 
ATOM      4  C   LIG    1        1.259   1.916   0.067  0.00  0.00    +0.250 C 
ATOM      5  C   LIG    1       -0.130   1.283   0.130  0.00  0.00    +0.060 C 
ATOM      6  C   LIG    1        0.022  -0.242   0.117  0.00  0.00    +0.040 C 
ATOM      7  C   LIG    1        0.890  -0.655   1.306  0.00  0.00    +0.070 C 
ATOM      8  C   LIG    1        2.248   0.052   1.231  0.00  0.00    +0.160 C 
ATOM      9  C   LIG    1        3.066  -0.369   2.459  0.00  0.00    +0.340 C 
ATOM     10  H   LIG    1        1.587   1.785   2.078  0.00  0.00    +0.420 HD
ATOM     11  N   LIG    1        4.308   0.413   2.503  0.00  0.00    -0.610 N 
ATOM     12  C   LIG    1        5.506  -0.188   2.647  0.00  0.00    +0.660 C 
ATOM     13  O   LIG    1        6.510   0.483   2.782  0.00  0.00    -0.540 OA
ENDROOT
BRANCH   1  14
ATOM     14  C   LIG    1        5.593   2.488   2.234  0.00  0.00    +0.340 C 
BRANCH  14  16
ATOM     15  C   LIG    1        6.571   4.678   1.805  0.00  0.00    +0.540 C 
ATOM     16  N   LIG    1        5.474   3.937   2.059  0.00  0.00    -0.730 N 
ATOM     17  H   LIG    1        4.606   4.364   2.126  0.00  0.00    +0.400 HD
ATOM     18  O   LIG    1        7.660   4.143   1.721  0.00  0.00    -0.510 OA
BRANCH  15  20
ATOM     19  C   LIG    1        7.534   6.864   1.379  0.00  0.00    +0.010 C 
ATOM     20  C   LIG    1        6.451   6.134   1.630  0.00  0.00    +0.000 C 
BRANCH  19  21
ATOM     21  C   LIG    1        7.411   8.355   1.199  0.00  0.00    +0.310 C 
BRANCH  21  23
ATOM     22  C   LIG    1        8.284  10.484   1.880  0.00  0.00    +0.330 C 
ATOM     23  N   LIG    1        8.314   9.038   2.136  0.00  0.00    -0.390 N 
ATOM     24  C   LIG    1        7.878   8.775   3.514  0.00  0.00    +0.320 C 
ATOM     25  H   LIG    1        9.254   8.693   2.009  0.00  0.00    +0.430 HD
ENDBRANCH  21  23
ENDBRANCH  19  21
ENDBRANCH  15  20
ENDBRANCH  14  16
ENDBRANCH   1  14
BRANCH  12  26
ATOM     26  O   LIG    1        5.590  -1.532   2.639  0.00  0.00    -0.360 OA
BRANCH  26  27
ATOM     27  C   LIG    1        6.912  -2.110   2.799  0.00  0.00    +0.140 C 
ATOM     28  C   LIG    1        7.817  -1.636   1.661  0.00  0.00    +0.030 C 
ATOM     29  C   LIG    1        6.808  -3.636   2.766  0.00  0.00    +0.080 C 
ATOM     30  C   LIG    1        7.504  -1.668   4.139  0.00  0.00    +0.030 C 
ENDBRANCH  26  27
ENDBRANCH  12  26
TORSDOF 7
