REMARK  Name = ZINCrm00000VuStp.1
REMARK                            x       y       z     vdW  Elec       q    Type
REMARK                         _______ _______ _______ _____ _____    ______ ____
ROOT
ATOM      1  C   LIG    1       -0.299   5.651   0.002  0.00  0.00    +0.250 C 
ATOM      2  C   LIG    1       -1.717   5.106   0.199  0.00  0.00    +0.260 C 
ATOM      3  N   LIG    1       -1.668   3.642   0.299  0.00  0.00    -0.380 N 
ATOM      4  C   LIG    1       -0.760   3.252   1.385  0.00  0.00    +0.240 C 
ATOM      5  C   LIG    1       -0.788   1.732   1.558  0.00  0.00    +0.070 C 
ATOM      6  C   LIG    1       -0.345   1.066   0.252  0.00  0.00    +0.040 C 
ATOM      7  C   LIG    1       -1.250   1.542  -0.888  0.00  0.00    +0.080 C 
ATOM      8  C   LIG    1       -1.198   3.070  -0.969  0.00  0.00    +0.160 C 
ATOM      9  C   LIG    1        0.247   3.513  -1.222  0.00  0.00    +0.330 C 
ATOM     10  H   LIG    1       -2.591   3.290   0.503  0.00  0.00    +0.430 HD
ATOM     11  N   LIG    1        0.301   4.982  -1.163  0.00  0.00    -0.610 N 
ATOM     12  C   LIG    1        0.883   5.694  -2.148  0.00  0.00    +0.660 C 
ATOM     13  O   LIG    1        0.836   6.908  -2.130  0.00  0.00    -0.530 OA
ENDROOT
BRANCH   1  14
ATOM     14  C   LIG    1       -0.358   7.160  -0.247  0.00  0.00    +0.340 C 
BRANCH  14  16
ATOM     15  C   LIG    1       -1.215   9.145   0.876  0.00  0.00    +0.540 C 
ATOM     16  N   LIG    1       -0.960   7.822   0.913  0.00  0.00    -0.740 N 
ATOM     17  H   LIG    1       -1.176   7.309   1.707  0.00  0.00    +0.400 HD
ATOM     18  O   LIG    1       -0.945   9.789  -0.120  0.00  0.00    -0.510 OA
BRANCH  15  20
ATOM     19  C   LIG    1       -2.072  11.116   2.003  0.00  0.00    +0.010 C 
ATOM     20  C   LIG    1       -1.820   9.811   2.040  0.00  0.00    +0.000 C 
BRANCH  19  21
ATOM     21  C   LIG    1       -2.691  11.798   3.196  0.00  0.00    +0.310 C 
BRANCH  21  23
ATOM     22  C   LIG    1       -1.823  13.939   2.551  0.00  0.00    +0.330 C 
ATOM     23  N   LIG    1       -1.844  12.923   3.612  0.00  0.00    -0.390 N 
ATOM     24  C   LIG    1       -2.383  13.513   4.845  0.00  0.00    +0.320 C 
ATOM     25  H   LIG    1       -0.905  12.593   3.780  0.00  0.00    +0.430 HD
ENDBRANCH  21  23
ENDBRANCH  19  21
ENDBRANCH  15  20
ENDBRANCH  14  16
ENDBRANCH   1  14
BRANCH  12  26
ATOM     26  O   LIG    1        1.518   5.060  -3.152  0.00  0.00    -0.360 OA
BRANCH  26  27
ATOM     27  C   LIG    1        2.122   5.890  -4.178  0.00  0.00    +0.140 C 
ATOM     28  C   LIG    1        1.041   6.742  -4.848  0.00  0.00    +0.030 C 
ATOM     29  C   LIG    1        2.791   5.000  -5.227  0.00  0.00    +0.080 C 
ATOM     30  C   LIG    1        3.170   6.805  -3.542  0.00  0.00    +0.030 C 
ENDBRANCH  26  27
ENDBRANCH  12  26
TORSDOF 7
