REMARK  Name = ZINC670000002wui.0
REMARK                            x       y       z     vdW  Elec       q    Type
REMARK                         _______ _______ _______ _____ _____    ______ ____
ROOT
ATOM      1  C   LIG    1       -1.442   3.904   2.486  0.00  0.00    +0.340 C 
ATOM      2  N   LIG    1       -0.754   3.430   1.277  0.00  0.00    -0.510 N 
ATOM      3  H   LIG    1       -1.242   3.764   0.460  0.00  0.00    +0.430 HD
ATOM      4  H   LIG    1        0.193   3.779   1.270  0.00  0.00    +0.430 HD
ENDROOT
BRANCH   2   5
ATOM      5  C   LIG    1       -0.734   1.961   1.269  0.00  0.00    +0.270 C 
BRANCH   5   6
ATOM      6  C   LIG    1       -0.018   1.468   0.010  0.00  0.00    +0.220 C 
BRANCH   6   7
ATOM      7  C   LIG    1        0.002  -0.004   0.002  0.00  0.00    +0.180 C 
ATOM      8  N   LIG    1        0.018  -1.140  -0.004  0.00  0.00    -0.370 NA
ENDBRANCH   6   7
ENDBRANCH   5   6
ENDBRANCH   2   5
TORSDOF 3
