REMARK  Name = ZINC670000002wui.1
REMARK                            x       y       z     vdW  Elec       q    Type
REMARK                         _______ _______ _______ _____ _____    ______ ____
ROOT
ATOM      1  C   LIG    1       -0.016   1.091   2.429  0.00  0.00    +0.180 C 
ENDROOT
BRANCH   1   3
ATOM      2  C   LIG    1       -0.013   1.086   0.008  0.00  0.00    +0.200 C 
ATOM      3  N   LIG    1       -0.700   1.560   1.217  0.00  0.00    -0.690 NA
ATOM      4  H   LIG    1       -1.669   1.277   1.216  0.00  0.00    +0.350 HD
ENDBRANCH   1   3
BRANCH   1   5
ATOM      5  C   LIG    1       -0.760   1.603   3.664  0.00  0.00    +0.210 C 
BRANCH   5   6
ATOM      6  C   LIG    1       -0.074   1.134   4.880  0.00  0.00    +0.200 C 
ATOM      7  N   LIG    1        0.455   0.772   5.817  0.00  0.00    -0.430 NA
ENDBRANCH   5   6
ENDBRANCH   1   5
TORSDOF 3
