REMARK  Name = ZINCpk00000xMgwq.0
REMARK                            x       y       z     vdW  Elec       q    Type
REMARK                         _______ _______ _______ _____ _____    ______ ____
ROOT
ATOM      1  C   LIG    1       -0.248   1.272  -2.403  0.00  0.00    +0.500 C 
ATOM      2  N   LIG    1       -0.689   1.594  -1.170  0.00  0.00    -0.710 N 
ATOM      3  H   LIG    1       -1.481   2.143  -1.067  0.00  0.00    +0.400 HD
ATOM      4  O   LIG    1        0.743   0.586  -2.533  0.00  0.00    -0.530 OA
ENDROOT
BRANCH   1  11
ATOM      5  C   LIG    1       -2.348   5.222  -6.643  0.00  0.00    +0.100 C 
ATOM      6  C   LIG    1       -1.812   4.751  -5.316  0.00  0.00    +0.520 C 
ATOM      7  N   LIG    1       -1.135   3.587  -5.237  0.00  0.00    -0.600 N 
ATOM      8  C   LIG    1       -1.018   2.709  -6.409  0.00  0.00    +0.270 C 
ATOM      9  C   LIG    1       -1.498   1.306  -6.024  0.00  0.00    +0.030 C 
ATOM     10  C   LIG    1       -0.721   0.824  -4.796  0.00  0.00    +0.080 C 
ATOM     11  C   LIG    1       -0.988   1.766  -3.620  0.00  0.00    +0.110 C 
ATOM     12  C   LIG    1       -0.502   3.174  -3.977  0.00  0.00    +0.270 C 
ATOM     13  O   LIG    1       -1.989   5.418  -4.318  0.00  0.00    -0.550 OA
BRANCH  11  14
ATOM     14  O   LIG    1       -2.390   1.800  -3.345  0.00  0.00    -0.530 OA
ATOM     15  H   LIG    1       -2.632   2.380  -2.609  0.00  0.00    +0.380 HD
ENDBRANCH  11  14
ENDBRANCH   1  11
BRANCH   2  16
ATOM     16  C   LIG    1        0.030   1.114   0.012  0.00  0.00    +0.330 C 
BRANCH  16  17
ATOM     17  C   LIG    1       -0.661   1.609   1.256  0.00  0.00    -0.150 A 
ATOM     18  C   LIG    1       -0.165   2.705   1.933  0.00  0.00    +0.070 A 
ATOM     19  C   LIG    1       -0.802   3.163   3.072  0.00  0.00    -0.030 A 
ATOM     20  C   LIG    1       -1.931   2.519   3.541  0.00  0.00    +0.060 A 
ATOM     21  C   LIG    1       -2.429   1.419   2.870  0.00  0.00    -0.080 A 
ATOM     22  C   LIG    1       -1.795   0.961   1.725  0.00  0.00    +0.150 A 
BRANCH  22  23
ATOM     23  O   LIG    1       -2.283  -0.122   1.064  0.00  0.00    -0.300 OA
BRANCH  23  24
ATOM     24  C   LIG    1       -3.453  -0.739   1.604  0.00  0.00    +0.220 C 
BRANCH  24  25
ATOM     25  C   LIG    1       -3.849  -1.932   0.731  0.00  0.00    -0.040 C 
ATOM     26  C   LIG    1       -5.197  -1.862   0.010  0.00  0.00    +0.030 C 
ATOM     27  C   LIG    1       -5.016  -2.799   1.207  0.00  0.00    +0.030 C 
ENDBRANCH  24  25
ENDBRANCH  23  24
ENDBRANCH  22  23
ENDBRANCH  16  17
ENDBRANCH   2  16
TORSDOF 7
