REMARK  Name = ZINCpk00000ebF3V.0
REMARK                            x       y       z     vdW  Elec       q    Type
REMARK                         _______ _______ _______ _____ _____    ______ ____
ROOT
ATOM      1  C   LIG    1        1.435   2.058  -0.236  0.00  0.00    +0.250 C 
ATOM      2  C   LIG    1        1.754   2.316   1.239  0.00  0.00    +0.030 C 
ATOM      3  C   LIG    1        3.015   3.185   1.342  0.00  0.00    +0.180 C 
ATOM      4  C   LIG    1        4.075   2.580   0.455  0.00  0.00    +0.190 A 
ATOM      5  N   LIG    1        5.354   2.809   0.450  0.00  0.00    -0.280 NA
ATOM      6  N   LIG    1        5.924   2.091  -0.457  0.00  0.00    -0.260 NA
ATOM      7  C   LIG    1        5.021   1.361  -1.080  0.00  0.00    +0.220 A 
ATOM      8  N   LIG    1        3.820   1.656  -0.515  0.00  0.00    -0.470 N 
ATOM      9  C   LIG    1        2.495   1.127  -0.837  0.00  0.00    +0.300 C 
ENDROOT
BRANCH   1  18
ATOM     10  O   LIG    1       -0.908   3.397  -0.216  0.00  0.00    -0.580 OA
ATOM     11  C   LIG    1       -0.994   2.195  -0.377  0.00  0.00    +0.710 C 
ATOM     12  N   LIG    1       -2.198   1.627  -0.586  0.00  0.00    -0.630 N 
ATOM     13  C   LIG    1       -3.410   2.450  -0.724  0.00  0.00    +0.280 C 
ATOM     14  C   LIG    1       -4.147   2.008  -1.998  0.00  0.00    +0.220 C 
ATOM     15  O   LIG    1       -4.342   0.593  -1.960  0.00  0.00    -0.380 OA
ATOM     16  C   LIG    1       -3.130  -0.166  -1.948  0.00  0.00    +0.220 C 
ATOM     17  C   LIG    1       -2.341   0.166  -0.676  0.00  0.00    +0.240 C 
ATOM     18  N   LIG    1        0.116   1.431  -0.347  0.00  0.00    -0.740 N 
ATOM     19  H   LIG    1        0.041   0.465  -0.404  0.00  0.00    +0.400 HD
ENDBRANCH   1  18
BRANCH   7  20
ATOM     20  C   LIG    1        5.266   0.405  -2.182  0.00  0.00    -0.060 A 
ATOM     21  C   LIG    1        4.697  -0.868  -2.146  0.00  0.00    +0.060 A 
ATOM     22  C   LIG    1        4.926  -1.753  -3.179  0.00  0.00    +0.010 A 
ATOM     23  C   LIG    1        5.727  -1.385  -4.246  0.00  0.00    +0.070 A 
ATOM     24  C   LIG    1        6.300  -0.127  -4.288  0.00  0.00    +0.000 A 
ATOM     25  C   LIG    1        6.074   0.772  -3.262  0.00  0.00    +0.140 A 
ATOM     26  F   LIG    1        6.633   2.001  -3.303  0.00  0.00    -0.120 F 
ENDBRANCH   7  20
TORSDOF 2
