REMARK  Name = ZINCpe000000XnlT.0
REMARK                            x       y       z     vdW  Elec       q    Type
REMARK                         _______ _______ _______ _____ _____    ______ ____
ROOT
ATOM      1  C   LIG    1        1.674   5.230  -0.641  0.00  0.00    -0.780 A 
ATOM      2  C   LIG    1        1.138   6.506  -0.694  0.00  0.00    +0.470 A 
ATOM      3  N   LIG    1        1.721   7.472  -1.377  0.00  0.00    -0.520 NA
ATOM      4  C   LIG    1        2.844   7.266  -2.044  0.00  0.00    +0.450 A 
ATOM      5  C   LIG    1        3.446   5.994  -2.035  0.00  0.00    -0.270 A 
ATOM      6  C   LIG    1        4.696   5.804  -2.789  0.00  0.00    +0.570 A 
ATOM      7  N   LIG    1        5.207   6.862  -3.455  0.00  0.00    -0.660 N 
ATOM      8  H   LIG    1        6.030   6.757  -3.958  0.00  0.00    +0.440 HD
ATOM      9  C   LIG    1        4.596   8.057  -3.433  0.00  0.00    +0.710 A 
ATOM     10  O   LIG    1        5.097   8.977  -4.049  0.00  0.00    -0.520 OA
ATOM     11  O   LIG    1        5.254   4.723  -2.811  0.00  0.00    -0.480 OA
ATOM     12  N   LIG    1        3.454   8.281  -2.760  0.00  0.00    -0.530 N 
ATOM     13  C   LIG    1        2.849   9.614  -2.786  0.00  0.00    +0.370 C 
ATOM     14  C   LIG    1        2.850   4.957  -1.320  0.00  0.00    +0.310 A 
ENDROOT
BRANCH   1  15
ATOM     15  S   LIG    1        0.867   3.965   0.283  0.00  0.00    +2.700 S 
ATOM     16  O   LIG    1        1.464   2.738  -0.111  0.00  0.00    -0.940 OA
ATOM     17  O   LIG    1       -0.527   4.220   0.180  0.00  0.00    -0.950 OA
BRANCH  15  18
ATOM     18  N   LIG    1        1.266   4.190   1.875  0.00  0.00    -1.100 NA
ATOM     19  H   LIG    1        0.597   4.503   2.503  0.00  0.00    +0.420 HD
BRANCH  18  26
ATOM     20  C   LIG    1        1.780   3.581   4.659  0.00  0.00    +0.030 C 
ATOM     21  C   LIG    1        2.776   4.353   3.792  0.00  0.00    +0.000 C 
ATOM     22  C   LIG    1        4.200   4.066   4.271  0.00  0.00    +0.020 C 
ATOM     23  C   LIG    1        5.196   4.838   3.403  0.00  0.00    +0.010 C 
ATOM     24  C   LIG    1        5.050   4.399   1.945  0.00  0.00    +0.020 C 
ATOM     25  C   LIG    1        3.626   4.686   1.466  0.00  0.00    -0.010 C 
ATOM     26  C   LIG    1        2.630   3.914   2.333  0.00  0.00    +0.190 C 
ATOM     27  C   LIG    1        2.913   2.414   2.222  0.00  0.00    +0.040 C 
ENDBRANCH  18  26
ENDBRANCH  15  18
ENDBRANCH   1  15
TORSDOF 3
