REMARK  Name = ZINCtV00000L6kpB.0
REMARK                            x       y       z     vdW  Elec       q    Type
REMARK                         _______ _______ _______ _____ _____    ______ ____
ROOT
ATOM      1  C   LIG    1        4.814   6.147  -1.441  0.00  0.00    +0.430 C 
ATOM      2  O   LIG    1        4.428   6.522  -2.529  0.00  0.00    -0.450 OA
ENDROOT
BRANCH   1   3
ATOM      3  C   LIG    1        3.996   5.223  -0.652  0.00  0.00    -0.260 A 
ATOM      4  C   LIG    1        2.770   4.689  -1.003  0.00  0.00    +0.130 A 
ATOM      5  N   LIG    1        2.359   3.889  -0.001  0.00  0.00    -0.390 N 
ATOM      6  C   LIG    1        3.279   3.881   1.010  0.00  0.00    +0.020 A 
ATOM      7  C   LIG    1        3.159   3.104   2.296  0.00  0.00    +0.140 C 
ATOM      8  C   LIG    1        2.022   4.957  -2.284  0.00  0.00    +0.150 C 
ATOM      9  C   LIG    1        4.311   4.674   0.673  0.00  0.00    +0.000 A 
BRANCH   5  10
ATOM     10  C   LIG    1        1.156   3.170   0.008  0.00  0.00    +0.110 A 
ATOM     11  C   LIG    1        1.175   1.782   0.000  0.00  0.00    +0.050 A 
ATOM     12  C   LIG    1       -0.013   1.076   0.008  0.00  0.00    +0.050 A 
ATOM     13  C   LIG    1       -1.220   1.750   0.017  0.00  0.00    +0.060 A 
ATOM     14  C   LIG    1       -1.242   3.134   0.030  0.00  0.00    -0.080 A 
ATOM     15 BR   LIG    1       -2.895   4.051   0.051  0.00  0.00    -0.030 Br
ATOM     16  C   LIG    1       -0.058   3.845   0.022  0.00  0.00    +0.060 A 
ENDBRANCH   5  10
ENDBRANCH   1   3
BRANCH   1  17
ATOM     17  C   LIG    1        6.135   6.632  -0.902  0.00  0.00    +0.250 C 
BRANCH  17  18
ATOM     18  O   LIG    1        6.749   7.531  -1.863  0.00  0.00    -0.340 OA
BRANCH  18  19
ATOM     19  C   LIG    1        7.946   8.057  -1.531  0.00  0.00    +0.540 C 
ATOM     20  O   LIG    1        8.461   7.773  -0.467  0.00  0.00    -0.500 OA
BRANCH  19  24
ATOM     21  C   LIG    1       10.237  10.380  -3.262  0.00  0.00    -0.130 A 
ATOM     22  C   LIG    1        9.388  10.450  -4.294  0.00  0.00    -0.190 A 
ATOM     23  S   LIG    1        8.012   9.480  -4.020  0.00  0.00    +0.260 S 
ATOM     24  C   LIG    1        8.624   8.972  -2.452  0.00  0.00    -0.270 A 
ATOM     25  C   LIG    1        9.618  11.276  -5.534  0.00  0.00    +0.140 C 
ATOM     26  C   LIG    1        9.832   9.572  -2.227  0.00  0.00    +0.120 A 
BRANCH  21  27
ATOM     27  C   LIG    1       11.539  11.138  -3.233  0.00  0.00    +0.080 C 
BRANCH  27  29
ATOM     28  C   LIG    1       12.615  13.327  -2.688  0.00  0.00    +0.020 C 
ATOM     29  C   LIG    1       11.293  12.557  -2.717  0.00  0.00    +0.000 C 
ENDBRANCH  27  29
ENDBRANCH  21  27
ENDBRANCH  19  24
ENDBRANCH  18  19
ENDBRANCH  17  18
ENDBRANCH   1  17
TORSDOF 8
