REMARK  Name = ZINCpe000000TAea.0
REMARK                            x       y       z     vdW  Elec       q    Type
REMARK                         _______ _______ _______ _____ _____    ______ ____
ROOT
ATOM      1  C   LIG    1        0.225   0.140   0.567  0.00  0.00    +0.440 A 
ATOM      2  N   LIG    1        1.378  -0.432   0.358  0.00  0.00    -0.560 NA
ATOM      3  C   LIG    1        1.552  -1.758   0.520  0.00  0.00    +0.530 A 
ATOM      4  C   LIG    1        0.392  -2.565   0.932  0.00  0.00    -0.210 A 
ATOM      5  C   LIG    1        0.481  -3.944   1.118  0.00  0.00    +0.070 A 
ATOM      6  C   LIG    1       -0.639  -4.650   1.506  0.00  0.00    +0.080 A 
ATOM      7  C   LIG    1       -1.854  -3.990   1.711  0.00  0.00    +0.170 A 
ATOM      8  C   LIG    1       -1.950  -2.621   1.529  0.00  0.00    -0.070 A 
ATOM      9  C   LIG    1       -0.832  -1.900   1.139  0.00  0.00    +0.190 A 
ATOM     10  O   LIG    1        2.639  -2.276   0.325  0.00  0.00    -0.480 OA
ATOM     11  N   LIG    1       -0.877  -0.532   0.945  0.00  0.00    -0.620 N 
ATOM     12  H   LIG    1       -1.709  -0.053   1.081  0.00  0.00    +0.420 HD
ENDROOT
BRANCH   7  13
ATOM     13  O   LIG    1       -2.949  -4.697   2.092  0.00  0.00    -0.290 OA
ATOM     14  C   LIG    1       -4.160  -3.963   2.284  0.00  0.00    +0.250 C 
ENDBRANCH   7  13
BRANCH   6  15
ATOM     15  O   LIG    1       -0.561  -5.996   1.690  0.00  0.00    -0.300 OA
ATOM     16  C   LIG    1        0.710  -6.609   1.463  0.00  0.00    +0.250 C 
ENDBRANCH   6  15
BRANCH   1  17
ATOM     17  C   LIG    1        0.120   1.630   0.368  0.00  0.00    +0.280 C 
BRANCH  17  18
ATOM     18  N   LIG    1        1.427   2.163  -0.040  0.00  0.00    -0.490 NA
BRANCH  18  19
ATOM     19  C   LIG    1        1.809   1.659  -1.366  0.00  0.00    +0.240 C 
ATOM     20  C   LIG    1        0.750   2.069  -2.392  0.00  0.00    -0.030 C 
ENDBRANCH  18  19
BRANCH  18  21
ATOM     21  C   LIG    1        1.428   3.631  -0.014  0.00  0.00    +0.210 C 
BRANCH  21  24
ATOM     22  N   LIG    1        3.093   5.455  -0.157  0.00  0.00    -0.740 N 
ATOM     23  H   LIG    1        2.355   6.083  -0.203  0.00  0.00    +0.400 HD
ATOM     24  C   LIG    1        2.848   4.133  -0.056  0.00  0.00    +0.510 C 
ATOM     25  O   LIG    1        3.771   3.348   0.002  0.00  0.00    -0.510 OA
BRANCH  22  27
ATOM     26  C   LIG    1        4.472   7.468  -0.313  0.00  0.00    +0.020 C 
ATOM     27  C   LIG    1        4.474   5.943  -0.197  0.00  0.00    +0.250 C 
ENDBRANCH  22  27
ENDBRANCH  21  24
ENDBRANCH  18  21
ENDBRANCH  17  18
ENDBRANCH   1  17
TORSDOF 8
