REMARK  Name = ZINCAx0000000d6M.0
REMARK                            x       y       z     vdW  Elec       q    Type
REMARK                         _______ _______ _______ _____ _____    ______ ____
ROOT
ATOM      1  C   LIG    1       -0.553   2.083   8.302  0.00  0.00    +0.240 C 
ENDROOT
BRANCH   1   2
ATOM      2  N   LIG    1        0.174   2.444   7.078  0.00  0.00    -0.510 NA
ATOM      3  C   LIG    1        0.630   3.839   7.128  0.00  0.00    +0.180 C 
ATOM      4  C   LIG    1        1.505   4.136   5.908  0.00  0.00    +0.050 C 
ATOM      5  C   LIG    1        0.695   3.890   4.633  0.00  0.00    +0.000 C 
ATOM      6  C   LIG    1        0.190   2.445   4.628  0.00  0.00    +0.220 C 
ATOM      7  C   LIG    1       -0.646   2.197   5.885  0.00  0.00    +0.200 C 
BRANCH   6   8
ATOM      8  O   LIG    1       -0.628   2.220   3.450  0.00  0.00    -0.360 OA
BRANCH   8   9
ATOM      9  C   LIG    1        0.002   1.786   2.342  0.00  0.00    +0.650 C 
ATOM     10  N   LIG    1       -0.698   1.558   1.213  0.00  0.00    -0.610 N 
ATOM     11  C   LIG    1       -2.146   1.783   1.192  0.00  0.00    +0.290 C 
ATOM     12  C   LIG    1       -0.013   1.086   0.008  0.00  0.00    +0.320 C 
ATOM     13  O   LIG    1        1.203   1.600   2.359  0.00  0.00    -0.570 OA
ENDBRANCH   8   9
ENDBRANCH   6   8
ENDBRANCH   1   2
BRANCH   1  14
ATOM     14  C   LIG    1        0.212   2.573   9.504  0.00  0.00    -0.230 A 
ATOM     15  C   LIG    1       -0.323   3.127  10.616  0.00  0.00    +0.270 A 
ATOM     16  N   LIG    1        0.699   3.431  11.457  0.00  0.00    -0.320 N 
ATOM     17  N   LIG    1        1.894   3.048  10.834  0.00  0.00    -0.280 NA
ATOM     18  C   LIG    1        1.601   2.530   9.669  0.00  0.00    +0.300 A 
BRANCH  16  19
ATOM     19  C   LIG    1        0.580   4.020  12.719  0.00  0.00    +0.370 A 
ATOM     20  C   LIG    1        1.721   4.272  13.471  0.00  0.00    -0.010 A 
ATOM     21  C   LIG    1        1.589   4.857  14.719  0.00  0.00    +0.100 A 
ATOM     22  C   LIG    1        0.316   5.168  15.173  0.00  0.00    -0.040 A 
ATOM     23  C   LIG    1       -0.775   4.889  14.372  0.00  0.00    +0.300 A 
ATOM     24  N   LIG    1       -0.617   4.336  13.185  0.00  0.00    -0.510 NA
ENDBRANCH  16  19
ENDBRANCH   1  14
BRANCH   1  27
ATOM     25  N   LIG    1       -1.338   0.021   9.420  0.00  0.00    -0.720 N 
ATOM     26  H   LIG    1       -1.703   0.579  10.124  0.00  0.00    +0.400 HD
ATOM     27  C   LIG    1       -0.699   0.585   8.376  0.00  0.00    +0.520 C 
ATOM     28  O   LIG    1       -0.242  -0.113   7.495  0.00  0.00    -0.510 OA
BRANCH  25  29
ATOM     29  C   LIG    1       -1.480  -1.436   9.492  0.00  0.00    +0.340 C 
BRANCH  29  35
ATOM     30  C   LIG    1       -3.609  -1.704  10.789  0.00  0.00    +0.140 A 
ATOM     31  C   LIG    1       -4.293  -2.046  11.947  0.00  0.00    -0.080 A 
ATOM     32  C   LIG    1       -3.596  -2.487  13.055  0.00  0.00    +0.060 A 
ATOM     33  C   LIG    1       -2.218  -2.587  13.011  0.00  0.00    -0.030 A 
ATOM     34  C   LIG    1       -1.534  -2.253  11.857  0.00  0.00    +0.070 A 
ATOM     35  C   LIG    1       -2.226  -1.806  10.748  0.00  0.00    -0.140 A 
BRANCH  30  37
ATOM     36  C   LIG    1       -5.715  -1.190   9.812  0.00  0.00    +0.250 C 
ATOM     37  O   LIG    1       -4.292  -1.270   9.698  0.00  0.00    -0.310 OA
ENDBRANCH  30  37
ENDBRANCH  29  35
ENDBRANCH  25  29
ENDBRANCH   1  27
TORSDOF 9
