REMARK  Name = ZINCkj00000dDzW2.1
REMARK                            x       y       z     vdW  Elec       q    Type
REMARK                         _______ _______ _______ _____ _____    ______ ____
ROOT
ATOM      1  C   LIG    1        3.716  -0.679  -0.006  0.00  0.00    +0.240 C 
ENDROOT
BRANCH   1   7
ATOM      2  C   LIG    1        2.946   1.708   0.007  0.00  0.00    +0.160 A 
ATOM      3  C   LIG    1        1.939   2.661  -0.029  0.00  0.00    -0.050 A 
ATOM      4  C   LIG    1        0.618   2.265  -0.117  0.00  0.00    +0.090 A 
ATOM      5  C   LIG    1        0.300   0.921  -0.169  0.00  0.00    +0.000 A 
ATOM      6  C   LIG    1        1.302  -0.031  -0.133  0.00  0.00    +0.030 A 
ATOM      7  C   LIG    1        2.624   0.359  -0.045  0.00  0.00    -0.180 A 
BRANCH   2   9
ATOM      8  C   LIG    1        4.503   3.499   0.143  0.00  0.00    +0.260 C 
ATOM      9  O   LIG    1        4.246   2.094   0.093  0.00  0.00    -0.320 OA
ENDBRANCH   2   9
ENDBRANCH   1   7
BRANCH   1  10
ATOM     10  N   LIG    1        3.191  -1.921   0.577  0.00  0.00    -0.390 N 
ATOM     11  C   LIG    1        4.291  -2.897   0.781  0.00  0.00    +0.270 C 
ATOM     12  C   LIG    1        3.724  -3.850   1.863  0.00  0.00    +0.070 C 
ATOM     13  C   LIG    1        2.936  -2.893   2.787  0.00  0.00    +0.070 C 
ATOM     14  C   LIG    1        2.632  -1.657   1.920  0.00  0.00    +0.250 C 
ATOM     15  H   LIG    1        2.482  -2.315  -0.024  0.00  0.00    +0.430 HD
ENDBRANCH   1  10
BRANCH   1  16
ATOM     16  C   LIG    1        4.212  -0.952  -1.427  0.00  0.00    +0.320 C 
BRANCH  16  17
ATOM     17  N   LIG    1        5.319  -1.910  -1.383  0.00  0.00    -1.140 NA
ATOM     18  H   LIG    1        5.801  -2.057  -0.553  0.00  0.00    +0.420 HD
BRANCH  17  19
ATOM     19  S   LIG    1        5.750  -2.741  -2.749  0.00  0.00    +2.610 S 
ATOM     20  O   LIG    1        4.530  -3.296  -3.220  0.00  0.00    -0.950 OA
ATOM     21  O   LIG    1        6.820  -3.576  -2.328  0.00  0.00    -0.940 OA
ATOM     22  C   LIG    1        6.350  -1.463  -3.887  0.00  0.00    -0.260 C 
ENDBRANCH  17  19
ENDBRANCH  16  17
ENDBRANCH   1  16
TORSDOF 6
