REMARK  Name = ZINCvU0000000Bzu.1
REMARK                            x       y       z     vdW  Elec       q    Type
REMARK                         _______ _______ _______ _____ _____    ______ ____
ROOT
ATOM      1  N   LIG    1        4.200   2.244  -1.391  0.00  0.00    -0.660 NA
ATOM      2  H   LIG    1        4.316   1.316  -1.769  0.00  0.00    +0.350 HD
ENDROOT
BRANCH   1   3
ATOM      3  C   LIG    1        5.463   2.993  -1.438  0.00  0.00    +0.220 C 
BRANCH   3   4
ATOM      4  C   LIG    1        6.607   2.071  -1.099  0.00  0.00    -0.120 A 
ATOM      5  C   LIG    1        6.616   0.775  -1.580  0.00  0.00    +0.020 A 
ATOM      6  C   LIG    1        7.667  -0.068  -1.273  0.00  0.00    +0.010 A 
ATOM      7  C   LIG    1        8.704   0.381  -0.478  0.00  0.00    +0.000 A 
ATOM      8  C   LIG    1        8.693   1.675   0.007  0.00  0.00    +0.000 A 
ATOM      9  C   LIG    1        7.644   2.521  -0.303  0.00  0.00    +0.010 A 
ENDBRANCH   3   4
BRANCH   3  10
ATOM     10  C   LIG    1        5.666   3.562  -2.844  0.00  0.00    +0.160 C 
BRANCH  10  16
ATOM     11  C   LIG    1        5.794   6.603  -2.261  0.00  0.00    +0.310 C 
ATOM     12  N   LIG    1        4.664   5.899  -2.874  0.00  0.00    -0.460 N 
ATOM     13  C   LIG    1        3.486   6.460  -3.289  0.00  0.00    +0.100 A 
ATOM     14  C   LIG    1        2.734   5.461  -3.789  0.00  0.00    +0.140 A 
ATOM     15  N   LIG    1        3.435   4.323  -3.687  0.00  0.00    -0.460 NA
ATOM     16  C   LIG    1        4.590   4.576  -3.135  0.00  0.00    +0.220 A 
ENDBRANCH  10  16
ENDBRANCH   3  10
ENDBRANCH   1   3
BRANCH   1  17
ATOM     17  C   LIG    1        3.670   2.192  -0.022  0.00  0.00    +0.220 C 
BRANCH  17  18
ATOM     18  C   LIG    1        2.377   1.417  -0.013  0.00  0.00    -0.110 A 
ATOM     19  C   LIG    1        1.170   2.088   0.002  0.00  0.00    +0.070 A 
ATOM     20  C   LIG    1       -0.017   1.378   0.010  0.00  0.00    -0.040 A 
ATOM     21  C   LIG    1        0.002  -0.004   0.002  0.00  0.00    +0.040 A 
ATOM     22  C   LIG    1        1.207  -0.680  -0.013  0.00  0.00    -0.080 A 
ATOM     23  C   LIG    1        2.399   0.030  -0.020  0.00  0.00    +0.130 A 
BRANCH  23  24
ATOM     24  O   LIG    1        3.586  -0.632  -0.035  0.00  0.00    -0.310 OA
BRANCH  24  25
ATOM     25  C   LIG    1        3.531  -2.060  -0.042  0.00  0.00    +0.240 C 
BRANCH  25  26
ATOM     26  C   LIG    1        4.932  -2.616  -0.059  0.00  0.00    -0.100 A 
ATOM     27  C   LIG    1        5.561  -2.869  -1.264  0.00  0.00    +0.080 A 
ATOM     28  C   LIG    1        6.847  -3.373  -1.280  0.00  0.00    -0.020 A 
ATOM     29  C   LIG    1        7.503  -3.636  -0.089  0.00  0.00    +0.110 A 
ATOM     30  C   LIG    1        6.870  -3.387   1.117  0.00  0.00    -0.020 A 
ATOM     31  F   LIG    1        8.758  -4.135  -0.104  0.00  0.00    -0.140 F 
ATOM     32  C   LIG    1        5.586  -2.877   1.131  0.00  0.00    +0.070 A 
ENDBRANCH  25  26
ENDBRANCH  24  25
ENDBRANCH  23  24
ENDBRANCH  17  18
ENDBRANCH   1  17
TORSDOF 9
