REMARK  Name = ZINCvU0000000BZU.0
REMARK                            x       y       z     vdW  Elec       q    Type
REMARK                         _______ _______ _______ _____ _____    ______ ____
ROOT
ATOM      1  C   LIG    1       -1.845   7.275   0.590  0.00  0.00    +0.370 C 
ATOM      2  C   LIG    1       -1.400   5.880   0.296  0.00  0.00    -0.250 A 
ATOM      3  C   LIG    1       -2.510   5.084   0.279  0.00  0.00    +0.100 A 
ATOM      4  C   LIG    1       -3.686   5.924   0.564  0.00  0.00    +0.570 C 
ATOM      5  O   LIG    1       -4.830   5.522   0.625  0.00  0.00    -0.430 OA
ATOM      6  O   LIG    1       -2.451   3.760   0.035  0.00  0.00    -0.180 OA
ATOM      7  C   LIG    1       -1.253   3.133   0.030  0.00  0.00    +0.130 A 
ATOM      8  C   LIG    1       -1.219   1.739   0.017  0.00  0.00    +0.020 A 
ATOM      9  C   LIG    1       -0.013   1.076   0.008  0.00  0.00    +0.090 A 
ATOM     10  C   LIG    1        1.185   1.777   0.000  0.00  0.00    -0.110 A 
ATOM     11  C   LIG    1        1.178   3.155   0.010  0.00  0.00    +0.120 A 
ATOM     12  C   LIG    1        2.494   1.031  -0.019  0.00  0.00    +0.100 C 
ATOM     13  C   LIG    1       -0.038   3.838   0.028  0.00  0.00    -0.210 A 
ATOM     14  C   LIG    1       -0.066   5.322   0.053  0.00  0.00    +0.460 A 
ATOM     15  O   LIG    1        0.925   6.011  -0.113  0.00  0.00    -0.430 OA
ATOM     16  N   LIG    1       -3.307   7.206   0.746  0.00  0.00    -0.530 N 
ENDROOT
BRANCH  16  17
ATOM     17  C   LIG    1       -4.151   8.276   1.032  0.00  0.00    +0.390 A 
ATOM     18  C   LIG    1       -3.633   9.565   1.092  0.00  0.00    -0.060 A 
ATOM     19  C   LIG    1       -4.483  10.619   1.377  0.00  0.00    +0.100 A 
ATOM     20  C   LIG    1       -5.827  10.346   1.593  0.00  0.00    -0.050 A 
ATOM     21  C   LIG    1       -6.273   9.041   1.517  0.00  0.00    +0.170 A 
ATOM     22  C   LIG    1       -7.731   8.739   1.751  0.00  0.00    +0.130 C 
ATOM     23  N   LIG    1       -5.440   8.057   1.238  0.00  0.00    -0.490 NA
ENDBRANCH  16  17
BRANCH   1  27
ATOM     24  C   LIG    1       -0.041   8.668   4.206  0.00  0.00    -0.070 A 
ATOM     25  C   LIG    1        0.483   9.046   2.976  0.00  0.00    +0.040 A 
ATOM     26  C   LIG    1       -0.102   8.594   1.810  0.00  0.00    +0.070 A 
ATOM     27  C   LIG    1       -1.209   7.766   1.865  0.00  0.00    -0.110 A 
ATOM     28  C   LIG    1       -1.736   7.392   3.087  0.00  0.00    +0.050 A 
ATOM     29  C   LIG    1       -1.153   7.836   4.258  0.00  0.00    +0.000 A 
BRANCH  24  31
ATOM     30  C   LIG    1       -0.328   8.486   6.984  0.00  0.00    +0.140 C 
ATOM     31  S   LIG    1        0.702   9.243   5.697  0.00  0.00    -0.110 S 
ENDBRANCH  24  31
ENDBRANCH   1  27
TORSDOF 3
