REMARK  Name = ZINCtV000002yZFS.0
REMARK                            x       y       z     vdW  Elec       q    Type
REMARK                         _______ _______ _______ _____ _____    ______ ____
ROOT
ATOM      1  C   LIG    1       -0.841   1.626   1.246  0.00  0.00    +0.290 C 
ENDROOT
BRANCH   1   2
ATOM      2  C   LIG    1       -0.221   1.416   2.604  0.00  0.00    -0.080 A 
ATOM      3  C   LIG    1       -0.542   0.292   3.342  0.00  0.00    +0.030 A 
ATOM      4  C   LIG    1        0.028   0.095   4.585  0.00  0.00    +0.000 A 
ATOM      5  C   LIG    1        0.914   1.032   5.097  0.00  0.00    +0.090 A 
ATOM      6  C   LIG    1        1.230   2.162   4.356  0.00  0.00    +0.010 A 
ATOM      7  C   LIG    1        0.662   2.351   3.111  0.00  0.00    +0.040 A 
BRANCH   5   8
ATOM      8  O   LIG    1        1.472   0.844   6.322  0.00  0.00    -0.260 OA
BRANCH   8   9
ATOM      9  C   LIG    1        2.434  -0.108   6.444  0.00  0.00    +0.120 A 
ATOM     10  C   LIG    1        2.903  -0.772   5.320  0.00  0.00    -0.060 A 
ATOM     11  C   LIG    1        3.884  -1.736   5.447  0.00  0.00    +0.050 A 
ATOM     12  C   LIG    1        4.392  -2.047   6.695  0.00  0.00    -0.020 A 
ATOM     13  C   LIG    1        3.923  -1.390   7.818  0.00  0.00    +0.050 A 
ATOM     14  C   LIG    1        2.945  -0.422   7.696  0.00  0.00    -0.020 A 
ENDBRANCH   8   9
ENDBRANCH   5   8
ENDBRANCH   1   2
BRANCH   1  15
ATOM     15  N   LIG    1       -2.247   1.219   1.282  0.00  0.00    -0.740 N 
ATOM     16  H   LIG    1       -2.551   0.584   1.950  0.00  0.00    +0.400 HD
BRANCH  15  22
ATOM     17  C   LIG    1       -4.540   1.516   0.320  0.00  0.00    +0.040 A 
ATOM     18  N   LIG    1       -5.049   2.178  -0.688  0.00  0.00    -0.270 NA
ATOM     19  N   LIG    1       -4.010   2.850  -1.344  0.00  0.00    -0.380 N 
ATOM     20  C   LIG    1       -2.853   2.571  -0.687  0.00  0.00    +0.140 A 
ATOM     21  C   LIG    1       -4.146   3.702  -2.528  0.00  0.00    +0.350 C 
ATOM     22  C   LIG    1       -3.158   1.749   0.348  0.00  0.00    +0.070 A 
BRANCH  17  24
ATOM     23  C   LIG    1       -5.780   1.505   2.467  0.00  0.00    +0.030 C 
ATOM     24  C   LIG    1       -5.310   0.653   1.287  0.00  0.00    +0.120 C 
ENDBRANCH  17  24
ENDBRANCH  15  22
ENDBRANCH   1  15
BRANCH   1  25
ATOM     25  C   LIG    1       -0.093   0.784   0.209  0.00  0.00    +0.020 C 
BRANCH  25  26
ATOM     26  C   LIG    1        1.339   1.303   0.068  0.00  0.00    -0.020 C 
ATOM     27  C   LIG    1        1.333   2.707  -0.570  0.00  0.00    +0.000 C 
ATOM     28  C   LIG    1        2.581   2.713  -1.487  0.00  0.00    +0.000 C 
ATOM     29  C   LIG    1        2.590   1.275  -2.062  0.00  0.00    -0.010 C 
ATOM     30  C   LIG    1        2.139   0.392  -0.880  0.00  0.00    +0.000 C 
ENDBRANCH  25  26
ENDBRANCH   1  25
TORSDOF 8
