REMARK  Name = ZINCrH000004nOIU.0
REMARK                            x       y       z     vdW  Elec       q    Type
REMARK                         _______ _______ _______ _____ _____    ______ ____
ROOT
ATOM      1  C   LIG    1        0.913   4.101  -0.087  0.00  0.00    +0.560 C 
ATOM      2  N   LIG    1        1.783   3.075   0.001  0.00  0.00    -0.640 N 
ATOM      3  H   LIG    1        2.735   3.251   0.065  0.00  0.00    +0.420 HD
ATOM      4  O   LIG    1       -0.283   3.886  -0.076  0.00  0.00    -0.500 OA
ENDROOT
BRANCH   2   5
ATOM      5  C   LIG    1        1.314   1.761  -0.000  0.00  0.00    +0.210 A 
ATOM      6  C   LIG    1        1.543   0.823  -0.961  0.00  0.00    +0.100 A 
ATOM      7  N   LIG    1        0.915  -0.319  -0.586  0.00  0.00    -0.430 NA
ATOM      8  C   LIG    1        0.314  -0.116   0.561  0.00  0.00    +0.180 A 
ATOM      9  S   LIG    1       -0.689  -0.869   1.810  0.00  0.00    +0.170 S 
ATOM     10  C   LIG    1       -0.763   0.585   2.820  0.00  0.00    +0.020 A 
ATOM     11  C   LIG    1       -0.055   1.499   2.182  0.00  0.00    +0.220 A 
ATOM     12  N   LIG    1        0.527   1.166   0.978  0.00  0.00    -0.410 N 
BRANCH   6  13
ATOM     13  C   LIG    1        2.337   1.015  -2.196  0.00  0.00    -0.010 A 
ATOM     14  C   LIG    1        2.318   2.244  -2.856  0.00  0.00    +0.020 A 
ATOM     15  C   LIG    1        3.065   2.419  -4.003  0.00  0.00    +0.010 A 
ATOM     16  C   LIG    1        3.822   1.376  -4.506  0.00  0.00    +0.020 A 
ATOM     17  C   LIG    1        3.840   0.153  -3.859  0.00  0.00    +0.010 A 
ATOM     18  C   LIG    1        3.102  -0.033  -2.708  0.00  0.00    +0.050 A 
ENDBRANCH   6  13
ENDBRANCH   2   5
BRANCH   1  23
ATOM     19  C   LIG    1        0.990   7.844  -0.389  0.00  0.00    -0.670 A 
ATOM     20  C   LIG    1        2.353   8.085  -0.400  0.00  0.00    +0.160 A 
ATOM     21  C   LIG    1        3.248   7.034  -0.310  0.00  0.00    +0.010 A 
ATOM     22  C   LIG    1        2.788   5.738  -0.202  0.00  0.00    +0.110 A 
ATOM     23  C   LIG    1        1.414   5.487  -0.196  0.00  0.00    -0.160 A 
ATOM     24  C   LIG    1        0.516   6.552  -0.287  0.00  0.00    +0.200 A 
BRANCH  19  26
ATOM     25  C   LIG    1       -0.443   9.676   1.217  0.00  0.00    -0.250 C 
ATOM     26  S   LIG    1       -0.141   9.189  -0.504  0.00  0.00    +2.500 S 
ATOM     27  O   LIG    1       -1.311   8.615  -1.072  0.00  0.00    -0.930 OA
ATOM     28  O   LIG    1        0.585  10.200  -1.189  0.00  0.00    -0.930 OA
ENDBRANCH  19  26
ENDBRANCH   1  23
TORSDOF 4
