REMARK  Name = ZINCrH00000No4GY.0
REMARK                            x       y       z     vdW  Elec       q    Type
REMARK                         _______ _______ _______ _____ _____    ______ ____
ROOT
ATOM      1  N   LIG    1        1.083  -6.349  -1.155  0.00  0.00    -0.640 N 
ATOM      2  H   LIG    1        1.053  -6.484  -0.195  0.00  0.00    +0.410 HD
ATOM      3  C   LIG    1        1.105  -5.099  -1.660  0.00  0.00    +0.720 C 
ATOM      4  N   LIG    1        1.086  -4.037  -0.830  0.00  0.00    -0.630 N 
ATOM      5  C   LIG    1        1.043  -4.097   0.638  0.00  0.00    +0.240 C 
ATOM      6  C   LIG    1        1.063  -2.644   1.157  0.00  0.00    +0.070 C 
ATOM      7  C   LIG    1        1.688  -1.861  -0.028  0.00  0.00    +0.090 C 
ATOM      8  C   LIG    1        1.107  -2.622  -1.245  0.00  0.00    +0.320 C 
ATOM      9  O   LIG    1        1.142  -4.930  -2.863  0.00  0.00    -0.560 OA
ENDROOT
BRANCH   7  10
ATOM     10  C   LIG    1        1.235  -0.423  -0.024  0.00  0.00    +0.160 A 
ATOM     11  N   LIG    1        0.002  -0.004   0.002  0.00  0.00    -0.270 NA
ATOM     12  N   LIG    1       -0.015   1.280   0.009  0.00  0.00    -0.290 NA
ATOM     13  C   LIG    1        1.212   1.735  -0.000  0.00  0.00    +0.200 A 
ATOM     14  C   LIG    1        1.583   3.195   0.065  0.00  0.00    +0.150 C 
ATOM     15  C   LIG    1        1.943   3.706  -1.330  0.00  0.00    +0.030 C 
ATOM     16  C   LIG    1        2.665   2.615  -2.119  0.00  0.00    +0.000 C 
ATOM     17  C   LIG    1        4.086   2.526  -1.594  0.00  0.00    +0.010 C 
ATOM     18  C   LIG    1        4.134   1.982  -0.172  0.00  0.00    +0.030 C 
ATOM     19  C   LIG    1        3.502   0.592  -0.133  0.00  0.00    +0.280 C 
ATOM     20  N   LIG    1        2.041   0.676  -0.048  0.00  0.00    -0.460 N 
ENDBRANCH   7  10
BRANCH   1  24
ATOM     21  C   LIG    1        1.149  -9.100  -3.844  0.00  0.00    -0.010 A 
ATOM     22  N   LIG    1        1.110  -9.595  -2.654  0.00  0.00    -0.450 NA
ATOM     23  C   LIG    1        1.089  -8.743  -1.647  0.00  0.00    +0.010 A 
ATOM     24  C   LIG    1        1.102  -7.451  -2.016  0.00  0.00    +0.010 A 
ATOM     25  C   LIG    1        1.049  -9.181  -0.206  0.00  0.00    +0.140 C 
ATOM     26  S   LIG    1        1.156  -7.392  -3.776  0.00  0.00    +0.240 S 
BRANCH  21  28
ATOM     27  C   LIG    1       -0.247 -10.178  -5.586  0.00  0.00    +0.040 C 
ATOM     28  C   LIG    1        1.183  -9.912  -5.113  0.00  0.00    +0.130 C 
ENDBRANCH  21  28
ENDBRANCH   1  24
TORSDOF 3
