REMARK  Name = ZINCpe000000WdPt.0
REMARK                            x       y       z     vdW  Elec       q    Type
REMARK                         _______ _______ _______ _____ _____    ______ ____
ROOT
ATOM      1  N   LIG    1        2.323   0.998  -0.015  0.00  0.00    -0.720 N 
ATOM      2  H   LIG    1        2.336   0.028  -0.020  0.00  0.00    +0.410 HD
ATOM      3  C   LIG    1        1.147   1.655   0.000  0.00  0.00    +0.710 C 
ATOM      4  N   LIG    1       -0.011   0.966   0.007  0.00  0.00    -0.660 N 
ATOM      5  H   LIG    1        0.002  -0.004   0.002  0.00  0.00    +0.410 HD
ATOM      6  O   LIG    1        1.130   2.871   0.007  0.00  0.00    -0.580 OA
ENDROOT
BRANCH   1  13
ATOM      7  C   LIG    1        4.681   0.875   0.571  0.00  0.00    +0.190 C 
ATOM      8  C   LIG    1        5.839   0.638  -0.419  0.00  0.00    -0.330 C 
ATOM      9  S   LIG    1        5.732   2.098  -1.531  0.00  0.00    +2.390 S 
ATOM     10  C   LIG    1        3.896   2.181  -1.469  0.00  0.00    -0.290 C 
ATOM     11  O   LIG    1        6.154   1.739  -2.839  0.00  0.00    -0.920 OA
ATOM     12  O   LIG    1        6.287   3.236  -0.886  0.00  0.00    -0.920 OA
ATOM     13  C   LIG    1        3.582   1.747  -0.023  0.00  0.00    +0.290 C 
BRANCH   7  15
ATOM     14  C   LIG    1        4.772  -1.009   2.050  0.00  0.00    +0.220 C 
ATOM     15  O   LIG    1        4.121  -0.388   0.940  0.00  0.00    -0.370 OA
ENDBRANCH   7  15
ENDBRANCH   1  13
BRANCH   4  16
ATOM     16  C   LIG    1       -1.240   1.653   0.017  0.00  0.00    +0.020 A 
ATOM     17  C   LIG    1       -2.473   1.086   0.014  0.00  0.00    +0.190 A 
ATOM     18  N   LIG    1       -3.387   2.091   0.029  0.00  0.00    -0.370 N 
ATOM     19  N   LIG    1       -2.690   3.306   0.032  0.00  0.00    -0.270 NA
ATOM     20  C   LIG    1       -1.408   3.046   0.025  0.00  0.00    +0.260 A 
BRANCH  18  21
ATOM     21  C   LIG    1       -4.843   1.933   0.035  0.00  0.00    +0.370 C 
BRANCH  21  22
ATOM     22  C   LIG    1       -5.426   2.682   1.206  0.00  0.00    -0.110 A 
ATOM     23  C   LIG    1       -5.588   2.046   2.422  0.00  0.00    +0.020 A 
ATOM     24  C   LIG    1       -6.119   2.734   3.497  0.00  0.00    +0.000 A 
ATOM     25  C   LIG    1       -6.494   4.057   3.353  0.00  0.00    +0.010 A 
ATOM     26  C   LIG    1       -6.335   4.692   2.136  0.00  0.00    +0.010 A 
ATOM     27  C   LIG    1       -5.802   4.005   1.062  0.00  0.00    +0.040 A 
ENDBRANCH  21  22
ENDBRANCH  18  21
ENDBRANCH   4  16
TORSDOF 5
