REMARK  Name = ZINCpk00000e8WBi.0
REMARK                            x       y       z     vdW  Elec       q    Type
REMARK                         _______ _______ _______ _____ _____    ______ ____
ROOT
ATOM      1  N   LIG    1       -0.721   1.571  -1.179  0.00  0.00    -0.710 N 
ATOM      2  H   LIG    1       -1.516   2.118  -1.079  0.00  0.00    +0.410 HD
ENDROOT
BRANCH   1   3
ATOM      3  C   LIG    1       -0.255   1.250  -2.443  0.00  0.00    +0.450 A 
ATOM      4  C   LIG    1        0.889   0.463  -2.599  0.00  0.00    -0.150 A 
ATOM      5  C   LIG    1        1.317   0.167  -3.879  0.00  0.00    +0.210 A 
ATOM      6  N   LIG    1        0.635   0.634  -4.914  0.00  0.00    -0.550 NA
ATOM      7  C   LIG    1       -0.448   1.378  -4.737  0.00  0.00    +0.400 A 
ATOM      8  C   LIG    1        2.546  -0.677  -4.096  0.00  0.00    +0.140 C 
ATOM      9  N   LIG    1       -0.893   1.680  -3.526  0.00  0.00    -0.570 NA
BRANCH   7  10
ATOM     10  C   LIG    1       -1.182   1.880  -5.925  0.00  0.00    -0.000 A 
ATOM     11  C   LIG    1       -2.331   2.662  -5.780  0.00  0.00    +0.020 A 
ATOM     12  C   LIG    1       -2.982   3.112  -6.912  0.00  0.00    +0.250 A 
ATOM     13  N   LIG    1       -2.538   2.805  -8.115  0.00  0.00    -0.470 NA
ATOM     14  C   LIG    1       -1.461   2.065  -8.295  0.00  0.00    +0.250 A 
ATOM     15  C   LIG    1       -0.747   1.578  -7.218  0.00  0.00    +0.030 A 
ENDBRANCH   7  10
ENDBRANCH   1   3
BRANCH   1  16
ATOM     16  C   LIG    1       -0.013   1.086   0.008  0.00  0.00    +0.280 C 
BRANCH  16  17
ATOM     17  C   LIG    1       -0.729   1.579   1.267  0.00  0.00    +0.190 C 
BRANCH  17  23
ATOM     18  C   LIG    1        0.253  -2.294   6.101  0.00  0.00    +0.100 C 
ATOM     19  C   LIG    1        0.166  -0.790   6.065  0.00  0.00    +0.510 C 
ATOM     20  N   LIG    1        0.430  -0.127   4.922  0.00  0.00    -0.620 N 
ATOM     21  C   LIG    1        0.351   1.341   4.865  0.00  0.00    +0.300 C 
ATOM     22  C   LIG    1       -0.530   1.735   3.675  0.00  0.00    +0.170 C 
ATOM     23  N   LIG    1       -0.018   1.093   2.457  0.00  0.00    -0.530 NA
ATOM     24  C   LIG    1       -0.095  -0.371   2.554  0.00  0.00    +0.160 C 
ATOM     25  C   LIG    1        0.804  -0.852   3.698  0.00  0.00    +0.280 C 
ATOM     26  O   LIG    1       -0.141  -0.177   7.065  0.00  0.00    -0.540 OA
ENDBRANCH  17  23
ENDBRANCH  16  17
ENDBRANCH   1  16
TORSDOF 5
