REMARK  Name = ZINCrH000004jIA6.0
REMARK                            x       y       z     vdW  Elec       q    Type
REMARK                         _______ _______ _______ _____ _____    ______ ____
ROOT
ATOM      1  N   LIG    1       -2.066   2.213   0.419  0.00  0.00    -0.710 N 
ATOM      2  H   LIG    1       -2.449   1.376   0.115  0.00  0.00    +0.410 HD
ATOM      3  C   LIG    1       -2.872   3.237   0.763  0.00  0.00    +0.570 C 
ATOM      4  O   LIG    1       -2.393   4.287   1.145  0.00  0.00    -0.540 OA
ENDROOT
BRANCH   3   5
ATOM      5  C   LIG    1       -4.338   3.084   0.675  0.00  0.00    -0.220 A 
ATOM      6  C   LIG    1       -5.187   4.143   1.030  0.00  0.00    +0.180 A 
ATOM      7  C   LIG    1       -6.550   3.952   0.931  0.00  0.00    -0.040 A 
ATOM      8  C   LIG    1       -7.034   2.726   0.487  0.00  0.00    +0.340 A 
ATOM      9  N   LIG    1       -6.207   1.745   0.159  0.00  0.00    -0.540 NA
ATOM     10  C   LIG    1       -4.900   1.886   0.233  0.00  0.00    +0.350 A 
BRANCH   8  11
ATOM     11  O   LIG    1       -8.371   2.532   0.388  0.00  0.00    -0.290 OA
BRANCH  11  12
ATOM     12  C   LIG    1       -8.809   1.253  -0.074  0.00  0.00    +0.270 C 
BRANCH  12  13
ATOM     13  C   LIG    1      -10.338   1.223  -0.119  0.00  0.00    +0.460 C 
ATOM     14  F   LIG    1      -10.847   1.454   1.163  0.00  0.00    -0.170 F 
ATOM     15  F   LIG    1      -10.767  -0.030  -0.572  0.00  0.00    -0.170 F 
ATOM     16  F   LIG    1      -10.799   2.216  -0.991  0.00  0.00    -0.170 F 
ENDBRANCH  12  13
ENDBRANCH  11  12
ENDBRANCH   8  11
ENDBRANCH   3   5
BRANCH   1  17
ATOM     17  C   LIG    1       -0.612   2.365   0.506  0.00  0.00    +0.290 C 
BRANCH  17  18
ATOM     18  C   LIG    1        0.064   1.066   0.062  0.00  0.00    +0.210 C 
BRANCH  18  19
ATOM     19  C   LIG    1        1.558   1.262   0.034  0.00  0.00    -0.110 A 
ATOM     20  C   LIG    1        2.087   2.523  -0.164  0.00  0.00    +0.040 A 
ATOM     21  C   LIG    1        3.457   2.703  -0.190  0.00  0.00    +0.020 A 
ATOM     22  C   LIG    1        4.300   1.620  -0.019  0.00  0.00    +0.030 A 
ATOM     23  C   LIG    1        3.772   0.358   0.179  0.00  0.00    +0.030 A 
ATOM     24  C   LIG    1        2.401   0.179   0.212  0.00  0.00    -0.030 A 
ATOM     25 CL   LIG    1        1.738  -1.405   0.468  0.00  0.00    -0.060 Cl
ENDBRANCH  18  19
BRANCH  18  27
ATOM     26  C   LIG    1       -0.014   1.715  -2.269  0.00  0.00    +0.180 C 
ATOM     27  N   LIG    1       -0.408   0.703  -1.280  0.00  0.00    -0.530 NA
ATOM     28  C   LIG    1        0.079  -0.628  -1.667  0.00  0.00    +0.190 C 
ENDBRANCH  18  27
ENDBRANCH  17  18
ENDBRANCH   1  17
TORSDOF 8
