REMARK  Name = ZINCkj00000vqKA1.1
REMARK                            x       y       z     vdW  Elec       q    Type
REMARK                         _______ _______ _______ _____ _____    ______ ____
ROOT
ATOM      1  N   LIG    1       -4.206   1.137   2.429  0.00  0.00    -1.120 NA
ATOM      2  H   LIG    1       -4.569   0.704   1.641  0.00  0.00    +0.430 HD
ENDROOT
BRANCH   1   3
ATOM      3  S   LIG    1       -5.140   1.304   3.787  0.00  0.00    +2.630 S 
ATOM      4  O   LIG    1       -4.330   0.788   4.835  0.00  0.00    -0.940 OA
ATOM      5  O   LIG    1       -6.372   0.686   3.443  0.00  0.00    -0.930 OA
BRANCH   3  11
ATOM      6  C   LIG    1       -6.440   2.122   6.020  0.00  0.00    +0.050 C 
ATOM      7  C   LIG    1       -6.068   3.419   5.299  0.00  0.00    +0.210 C 
ATOM      8  O   LIG    1       -5.152   4.182   6.101  0.00  0.00    -0.360 OA
ATOM      9  C   LIG    1       -4.258   4.859   5.191  0.00  0.00    +0.230 C 
ATOM     10  C   LIG    1       -3.981   3.797   4.094  0.00  0.00    +0.050 C 
ATOM     11  C   LIG    1       -5.356   3.095   3.971  0.00  0.00    -0.480 C 
ENDBRANCH   3  11
ENDBRANCH   1   3
BRANCH   1  12
ATOM     12  C   LIG    1       -2.832   1.645   2.419  0.00  0.00    +0.270 C 
BRANCH  12  13
ATOM     13  C   LIG    1       -2.078   1.051   1.227  0.00  0.00    +0.260 C 
BRANCH  13  14
ATOM     14  N   LIG    1       -0.700   1.560   1.217  0.00  0.00    -0.380 N 
ATOM     15  C   LIG    1        0.010   1.073   2.407  0.00  0.00    +0.330 C 
ATOM     16  H   LIG    1       -0.714   2.568   1.222  0.00  0.00    +0.420 HD
BRANCH  14  17
ATOM     17  C   LIG    1       -0.013   1.086   0.008  0.00  0.00    +0.160 C 
ATOM     18  C   LIG    1       -0.753   1.593  -1.232  0.00  0.00    +0.040 C 
ATOM     19  C   LIG    1       -0.037   1.099  -2.490  0.00  0.00    +0.040 C 
ATOM     20  C   LIG    1        1.399   1.629  -2.501  0.00  0.00    +0.020 C 
ATOM     21  C   LIG    1        2.139   1.122  -1.262  0.00  0.00    +0.040 C 
ATOM     22  C   LIG    1        1.423   1.615  -0.003  0.00  0.00    +0.040 C 
ENDBRANCH  14  17
ENDBRANCH  13  14
ENDBRANCH  12  13
ENDBRANCH   1  12
TORSDOF 6
