REMARK  Name = ZINCkj00000vqKA1.0
REMARK                            x       y       z     vdW  Elec       q    Type
REMARK                         _______ _______ _______ _____ _____    ______ ____
ROOT
ATOM      1  N   LIG    1        1.335  -2.502   2.436  0.00  0.00    -1.120 NA
ATOM      2  H   LIG    1        1.940  -1.914   2.914  0.00  0.00    +0.430 HD
ENDROOT
BRANCH   1   3
ATOM      3  S   LIG    1        1.101  -4.055   2.962  0.00  0.00    +2.630 S 
ATOM      4  O   LIG    1       -0.311  -4.190   3.042  0.00  0.00    -0.940 OA
ATOM      5  O   LIG    1        1.913  -4.157   4.124  0.00  0.00    -0.930 OA
BRANCH   3  11
ATOM      6  C   LIG    1        0.761  -6.728   3.248  0.00  0.00    +0.050 C 
ATOM      7  C   LIG    1        1.465  -6.577   1.898  0.00  0.00    +0.210 C 
ATOM      8  O   LIG    1        0.607  -7.038   0.841  0.00  0.00    -0.360 OA
ATOM      9  C   LIG    1        0.873  -6.208  -0.310  0.00  0.00    +0.230 C 
ATOM     10  C   LIG    1        1.039  -4.788   0.295  0.00  0.00    +0.050 C 
ATOM     11  C   LIG    1        1.766  -5.090   1.628  0.00  0.00    -0.480 C 
ENDBRANCH   3  11
ENDBRANCH   1   3
BRANCH   1  12
ATOM     12  C   LIG    1        0.626  -2.017   1.249  0.00  0.00    +0.280 C 
BRANCH  12  13
ATOM     13  C   LIG    1        0.713  -0.491   1.192  0.00  0.00    +0.260 C 
BRANCH  13  14
ATOM     14  N   LIG    1        0.002  -0.004   0.002  0.00  0.00    -0.380 N 
ATOM     15  C   LIG    1        0.690  -0.478  -1.207  0.00  0.00    +0.320 C 
ATOM     16  H   LIG    1       -0.945  -0.353   0.009  0.00  0.00    +0.430 HD
BRANCH  14  17
ATOM     17  C   LIG    1       -0.018   1.465   0.010  0.00  0.00    +0.170 C 
ATOM     18  C   LIG    1       -0.734   1.958   1.269  0.00  0.00    +0.040 C 
ATOM     19  C   LIG    1       -0.755   3.488   1.277  0.00  0.00    +0.040 C 
ATOM     20  C   LIG    1       -1.495   3.995   0.038  0.00  0.00    +0.020 C 
ATOM     21  C   LIG    1       -0.779   3.501  -1.221  0.00  0.00    +0.040 C 
ATOM     22  C   LIG    1       -0.758   1.972  -1.229  0.00  0.00    +0.040 C 
ENDBRANCH  14  17
ENDBRANCH  13  14
ENDBRANCH  12  13
ENDBRANCH   1  12
TORSDOF 6
