REMARK  Name = ZINCbu0000000GDl.0
REMARK                            x       y       z     vdW  Elec       q    Type
REMARK                         _______ _______ _______ _____ _____    ______ ____
ROOT
ATOM      1  C   LIG    1        1.423   1.615  -0.003  0.00  0.00    +0.060 C 
ATOM      2  C   LIG    1       -0.013   1.086   0.008  0.00  0.00    +0.030 C 
ENDROOT
BRANCH   2   3
ATOM      3  C   LIG    1       -0.742   1.585  -1.213  0.00  0.00    -0.100 A 
ATOM      4  C   LIG    1       -0.893   2.943  -1.420  0.00  0.00    +0.030 A 
ATOM      5  C   LIG    1       -1.557   3.402  -2.542  0.00  0.00    +0.040 A 
ATOM      6  C   LIG    1       -2.079   2.501  -3.453  0.00  0.00    -0.020 A 
ATOM      7  C   LIG    1       -1.932   1.141  -3.243  0.00  0.00    +0.040 A 
ATOM      8 CL   LIG    1       -2.918   3.076  -4.860  0.00  0.00    -0.050 Cl
ATOM      9  C   LIG    1       -1.263   0.684  -2.123  0.00  0.00    +0.050 A 
ENDBRANCH   2   3
BRANCH   2  10
ATOM     10  C   LIG    1       -0.729   1.579   1.267  0.00  0.00    +0.270 C 
BRANCH  10  11
ATOM     11  N   LIG    1       -0.090   0.996   2.454  0.00  0.00    -0.640 N 
ATOM     12  H   LIG    1       -0.563   1.321   3.284  0.00  0.00    +0.440 HD
ATOM     13  H   LIG    1        0.879   1.276   2.487  0.00  0.00    +0.430 HD
ATOM     14  H   LIG    1       -0.148  -0.011   2.407  0.00  0.00    +0.440 HD
ENDBRANCH  10  11
ENDBRANCH   2  10
TORSDOF 3
