REMARK  Name = ZINCpk00000xT12i.0
REMARK                            x       y       z     vdW  Elec       q    Type
REMARK                         _______ _______ _______ _____ _____    ______ ____
ROOT
ATOM      1  C   LIG    1        5.041   2.015  -0.317  0.00  0.00    +0.280 C 
ATOM      2  C   LIG    1        5.598   1.843  -1.734  0.00  0.00    +0.290 C 
ATOM      3  N   LIG    1        7.058   1.687  -1.644  0.00  0.00    -0.610 N 
ATOM      4  C   LIG    1        7.811   2.677  -0.857  0.00  0.00    +0.260 C 
ATOM      5  C   LIG    1        7.147   2.809   0.518  0.00  0.00    +0.230 C 
ATOM      6  C   LIG    1        7.687   0.669  -2.263  0.00  0.00    +0.610 C 
ATOM      7  O   LIG    1        7.040  -0.192  -2.829  0.00  0.00    -0.530 OA
ATOM      8  O   LIG    1        5.751   3.066   0.344  0.00  0.00    -0.360 OA
ENDROOT
BRANCH   6   9
ATOM      9  C   LIG    1        9.152   0.599  -2.256  0.00  0.00    -0.270 A 
ATOM     10  C   LIG    1        9.936  -0.564  -2.135  0.00  0.00    +0.110 A 
ATOM     11  C   LIG    1        9.626  -1.923  -2.008  0.00  0.00    +0.130 A 
ATOM     12  C   LIG    1       10.643  -2.831  -1.919  0.00  0.00    +0.010 A 
ATOM     13  C   LIG    1       11.970  -2.398  -1.961  0.00  0.00    +0.330 A 
ATOM     14  N   LIG    1       12.261  -1.128  -2.086  0.00  0.00    -0.210 NA
ATOM     15  N   LIG    1       11.245  -0.169  -2.180  0.00  0.00    -0.170 N 
ATOM     16  N   LIG    1       11.268   1.223  -2.317  0.00  0.00    -0.250 NA
ATOM     17  C   LIG    1       10.041   1.680  -2.362  0.00  0.00    +0.300 A 
ENDBRANCH   6   9
BRANCH   1  21
ATOM     18  C   LIG    1        1.430   2.264  -0.312  0.00  0.00    +0.180 A 
ATOM     19  N   LIG    1        1.793   3.458  -0.684  0.00  0.00    -0.280 NA
ATOM     20  N   LIG    1        3.077   3.521  -0.725  0.00  0.00    -0.250 NA
ATOM     21  C   LIG    1        3.577   2.366  -0.390  0.00  0.00    +0.160 A 
ATOM     22  O   LIG    1        2.548   1.544  -0.121  0.00  0.00    -0.220 OA
BRANCH  18  24
ATOM     23  C   LIG    1       -0.738   1.903  -1.461  0.00  0.00    +0.060 C 
ATOM     24  C   LIG    1        0.015   1.776  -0.135  0.00  0.00    +0.100 C 
ATOM     25  C   LIG    1       -0.686   2.620   0.932  0.00  0.00    +0.060 C 
ENDBRANCH  18  24
ENDBRANCH   1  21
TORSDOF 3
