REMARK  Name = ZINCqH0000038qAT.0
REMARK                            x       y       z     vdW  Elec       q    Type
REMARK                         _______ _______ _______ _____ _____    ______ ____
ROOT
ATOM      1  C   LIG    1       -2.938   1.460   4.346  0.00  0.00    +0.170 A 
ATOM      2  C   LIG    1       -3.864   1.656   3.333  0.00  0.00    +0.100 A 
ATOM      3  C   LIG    1       -5.152   2.050   3.641  0.00  0.00    -0.160 A 
ATOM      4  C   LIG    1       -5.518   2.261   4.958  0.00  0.00    +0.090 A 
ATOM      5  C   LIG    1       -4.600   2.074   5.974  0.00  0.00    +0.040 A 
ATOM      6  C   LIG    1       -3.307   1.672   5.674  0.00  0.00    +0.140 A 
ENDROOT
BRANCH   6   7
ATOM      7  N   LIG    1       -2.373   1.480   6.703  0.00  0.00    -0.330 N 
ATOM      8  C   LIG    1       -2.604   1.560   8.028  0.00  0.00    +0.500 A 
ATOM      9  N   LIG    1       -1.480   1.313   8.650  0.00  0.00    -0.530 NA
ATOM     10  C   LIG    1       -0.513   1.082   7.763  0.00  0.00    +0.460 A 
ATOM     11  N   LIG    1       -1.011   1.173   6.557  0.00  0.00    -0.340 NA
ENDBRANCH   6   7
BRANCH   1  13
ATOM     12  C   LIG    1       -1.391   0.382   2.894  0.00  0.00    +0.510 C 
ATOM     13  N   LIG    1       -1.634   1.055   4.036  0.00  0.00    -0.660 N 
ATOM     14  H   LIG    1       -0.905   1.259   4.643  0.00  0.00    +0.430 HD
ATOM     15  O   LIG    1       -2.312   0.040   2.184  0.00  0.00    -0.500 OA
BRANCH  12  16
ATOM     16  C   LIG    1        0.027   0.054   2.500  0.00  0.00    +0.120 C 
BRANCH  16  23
ATOM     17  C   LIG    1       -0.041   1.505   0.001  0.00  0.00    +0.080 C 
ATOM     18  C   LIG    1       -0.008  -0.002  -0.003  0.00  0.00    -0.070 A 
ATOM     19  C   LIG    1       -0.016  -0.690  -1.201  0.00  0.00    +0.000 A 
ATOM     20  C   LIG    1        0.018  -2.072  -1.205  0.00  0.00    +0.010 A 
ATOM     21  C   LIG    1        0.050  -2.766  -0.010  0.00  0.00    +0.000 A 
ATOM     22  C   LIG    1        0.053  -2.078   1.189  0.00  0.00    +0.020 A 
ATOM     23  C   LIG    1        0.024  -0.696   1.193  0.00  0.00    -0.070 A 
ENDBRANCH  16  23
ENDBRANCH  12  16
ENDBRANCH   1  13
BRANCH   3  24
ATOM     24  C   LIG    1       -6.159   2.257   2.539  0.00  0.00    +0.510 C 
ATOM     25  F   LIG    1       -6.335   1.060   1.838  0.00  0.00    -0.170 F 
ATOM     26  F   LIG    1       -5.697   3.246   1.665  0.00  0.00    -0.170 F 
ATOM     27  F   LIG    1       -7.380   2.657   3.092  0.00  0.00    -0.170 F 
ENDBRANCH   3  24
TORSDOF 5
