REMARK  Name = ZINCpk000000oT8b.0
REMARK                            x       y       z     vdW  Elec       q    Type
REMARK                         _______ _______ _______ _____ _____    ______ ____
ROOT
ATOM      1  N   LIG    1       -2.446   1.616   0.023  0.00  0.00    -0.710 N 
ATOM      2  H   LIG    1       -2.530   0.650   0.019  0.00  0.00    +0.410 HD
ATOM      3  C   LIG    1       -1.225   2.186   0.020  0.00  0.00    +0.610 C 
ATOM      4  O   LIG    1       -1.119   3.397   0.026  0.00  0.00    -0.540 OA
ENDROOT
BRANCH   1   8
ATOM      5  C   LIG    1       -5.411   0.804   1.690  0.00  0.00    +0.030 C 
ATOM      6  C   LIG    1       -5.072   0.416   0.249  0.00  0.00    +0.040 C 
ATOM      7  C   LIG    1       -4.817   1.681  -0.574  0.00  0.00    +0.040 C 
ATOM      8  C   LIG    1       -3.646   2.456   0.034  0.00  0.00    +0.240 C 
ATOM      9  C   LIG    1       -3.985   2.844   1.475  0.00  0.00    +0.030 C 
ATOM     10  C   LIG    1       -4.240   1.580   2.297  0.00  0.00    +0.040 C 
BRANCH   5  11
ATOM     11  C   LIG    1       -5.662  -0.442   2.499  0.00  0.00    +0.460 C 
ATOM     12  O   LIG    1       -5.580  -1.528   1.978  0.00  0.00    -0.510 OA
BRANCH  11  13
ATOM     13  O   LIG    1       -5.978  -0.344   3.800  0.00  0.00    -0.360 OA
BRANCH  13  15
ATOM     14  C   LIG    1       -6.553  -1.275   5.976  0.00  0.00    +0.070 C 
ATOM     15  C   LIG    1       -6.207  -1.585   4.518  0.00  0.00    +0.200 C 
ENDBRANCH  13  15
ENDBRANCH  11  13
ENDBRANCH   5  11
ENDBRANCH   1   8
BRANCH   3  16
ATOM     16  C   LIG    1       -0.016   1.340   0.009  0.00  0.00    -0.110 A 
ATOM     17  C   LIG    1        1.274   1.790  -0.001  0.00  0.00    +0.300 A 
ATOM     18  N   LIG    1        2.067   0.700  -0.014  0.00  0.00    -0.350 N 
ATOM     19  N   LIG    1        1.221  -0.418  -0.012  0.00  0.00    -0.060 NA
ATOM     20  N   LIG    1        0.002  -0.004   0.002  0.00  0.00    -0.210 NA
BRANCH  18  21
ATOM     21  C   LIG    1        3.532   0.687  -0.028  0.00  0.00    +0.270 C 
ATOM     22  C   LIG    1        4.063   1.864   0.797  0.00  0.00    +0.010 C 
ATOM     23  C   LIG    1        5.591   1.889   0.711  0.00  0.00    +0.240 C 
ATOM     24  O   LIG    1        5.990   1.982  -0.658  0.00  0.00    -0.380 OA
ATOM     25  C   LIG    1        5.562   0.884  -1.467  0.00  0.00    +0.230 C 
ATOM     26  C   LIG    1        4.032   0.820  -1.469  0.00  0.00    -0.000 C 
ENDBRANCH  18  21
ENDBRANCH   3  16
TORSDOF 6
