REMARK  Name = ZINCpe00000gN4Jn.0
REMARK                            x       y       z     vdW  Elec       q    Type
REMARK                         _______ _______ _______ _____ _____    ______ ____
ROOT
ATOM      1  N   LIG    1       -0.157   5.204   0.181  0.00  0.00    -0.490 N 
ATOM      2  C   LIG    1       -0.741   5.776   1.401  0.00  0.00    +0.200 C 
ATOM      3  C   LIG    1       -0.765   7.302   1.290  0.00  0.00    +0.060 C 
ATOM      4  C   LIG    1        0.664   7.817   1.097  0.00  0.00    -0.020 C 
ATOM      5  C   LIG    1        1.267   7.169  -0.153  0.00  0.00    +0.070 C 
ATOM      6  C   LIG    1        1.231   5.647  -0.000  0.00  0.00    +0.210 C 
ENDROOT
BRANCH   4   7
ATOM      7  C   LIG    1        0.641   9.314   0.927  0.00  0.00    +0.520 C 
ATOM      8  N   LIG    1        0.605  10.115   2.011  0.00  0.00    -0.610 N 
ATOM      9  C   LIG    1        0.689   9.548   3.363  0.00  0.00    +0.260 C 
ATOM     10  C   LIG    1       -0.496  10.047   4.187  0.00  0.00    +0.020 C 
ATOM     11  C   LIG    1       -0.533  11.577   4.147  0.00  0.00    +0.030 C 
ATOM     12  C   LIG    1       -0.715  12.047   2.702  0.00  0.00    -0.020 C 
ATOM     13  C   LIG    1        0.474  11.570   1.862  0.00  0.00    +0.310 C 
ATOM     14  O   LIG    1        0.656   9.799  -0.185  0.00  0.00    -0.530 OA
BRANCH  12  15
ATOM     15  C   LIG    1       -0.783  13.552   2.668  0.00  0.00    +0.520 C 
ATOM     16  O   LIG    1        0.036  14.182   2.034  0.00  0.00    -0.540 OA
ATOM     17  N   LIG    1       -1.756  14.198   3.342  0.00  0.00    -0.850 N 
ATOM     18  H   LIG    1       -1.800  15.167   3.320  0.00  0.00    +0.400 HD
ATOM     19  H   LIG    1       -2.412  13.694   3.849  0.00  0.00    +0.400 HD
ENDBRANCH  12  15
ENDBRANCH   4   7
BRANCH   1  25
ATOM     20  C   LIG    1       -1.343   3.183  -0.399  0.00  0.00    -0.060 A 
ATOM     21  C   LIG    1       -1.402   1.785  -0.381  0.00  0.00    +0.130 A 
ATOM     22  C   LIG    1       -0.372   1.092   0.232  0.00  0.00    -0.030 A 
ATOM     23  C   LIG    1        0.681   1.792   0.792  0.00  0.00    +0.310 A 
ATOM     24  N   LIG    1        0.721   3.110   0.760  0.00  0.00    -0.510 NA
ATOM     25  C   LIG    1       -0.239   3.822   0.192  0.00  0.00    +0.350 A 
BRANCH  20  27
ATOM     26  N   LIG    1       -3.212   4.556  -1.503  0.00  0.00    -0.400 NA
ATOM     27  C   LIG    1       -2.385   3.949  -1.015  0.00  0.00    +0.260 C 
ENDBRANCH  20  27
ENDBRANCH   1  25
TORSDOF 4
