REMARK  Name = ZINCpk000000mRig.0
REMARK                            x       y       z     vdW  Elec       q    Type
REMARK                         _______ _______ _______ _____ _____    ______ ____
ROOT
ATOM      1  C   LIG    1       -2.855   6.855  -1.073  0.00  0.00    +0.280 C 
ATOM      2  C   LIG    1       -1.596   7.459  -1.700  0.00  0.00    +0.040 C 
ENDROOT
BRANCH   1   3
ATOM      3  C   LIG    1       -4.062   7.268  -1.874  0.00  0.00    -0.080 A 
ATOM      4  C   LIG    1       -4.368   6.610  -3.051  0.00  0.00    +0.010 A 
ATOM      5  C   LIG    1       -5.479   6.982  -3.787  0.00  0.00    +0.040 A 
ATOM      6  C   LIG    1       -6.280   8.020  -3.353  0.00  0.00    +0.010 A 
ATOM      7  C   LIG    1       -5.973   8.687  -2.173  0.00  0.00    +0.140 A 
ATOM      8  C   LIG    1       -4.860   8.307  -1.434  0.00  0.00    +0.010 A 
BRANCH   7   9
ATOM      9  N   LIG    1       -6.781   9.737  -1.732  0.00  0.00    -1.060 N 
ATOM     10  H   LIG    1       -7.059   9.778  -0.803  0.00  0.00    +0.430 HD
BRANCH   9  11
ATOM     11  S   LIG    1       -7.265  10.912  -2.793  0.00  0.00    +2.610 S 
ATOM     12  O   LIG    1       -8.002  11.826  -1.992  0.00  0.00    -0.950 OA
ATOM     13  O   LIG    1       -7.890  10.194  -3.849  0.00  0.00    -0.950 OA
ATOM     14  C   LIG    1       -5.719  11.669  -3.366  0.00  0.00    -0.280 C 
ENDBRANCH   9  11
ENDBRANCH   7   9
ENDBRANCH   1   3
BRANCH   1  16
ATOM     15  C   LIG    1       -2.102   4.768  -0.067  0.00  0.00    +0.520 C 
ATOM     16  N   LIG    1       -2.746   5.394  -1.071  0.00  0.00    -0.730 N 
ATOM     17  H   LIG    1       -3.138   4.878  -1.792  0.00  0.00    +0.400 HD
ATOM     18  O   LIG    1       -1.612   5.414   0.836  0.00  0.00    -0.530 OA
BRANCH  15  25
ATOM     19  C   LIG    1       -1.205  -0.942  -2.145  0.00  0.00    +0.090 C 
ATOM     20  C   LIG    1       -1.432   0.544  -2.243  0.00  0.00    +0.510 C 
ATOM     21  N   LIG    1       -1.033   1.354  -1.242  0.00  0.00    -0.610 N 
ATOM     22  C   LIG    1       -0.376   0.802  -0.050  0.00  0.00    +0.260 C 
ATOM     23  C   LIG    1       -1.125   1.284   1.197  0.00  0.00    +0.010 C 
ATOM     24  C   LIG    1       -1.214   2.812   1.175  0.00  0.00    +0.050 C 
ATOM     25  C   LIG    1       -1.990   3.265  -0.064  0.00  0.00    -0.020 C 
ATOM     26  C   LIG    1       -1.248   2.805  -1.323  0.00  0.00    +0.290 C 
ATOM     27  O   LIG    1       -1.973   1.012  -3.223  0.00  0.00    -0.540 OA
ENDBRANCH  15  25
ENDBRANCH   1  16
TORSDOF 5
