REMARK  Name = ZINCrg00000KfqVZ.0
REMARK                            x       y       z     vdW  Elec       q    Type
REMARK                         _______ _______ _______ _____ _____    ______ ____
ROOT
ATOM      1  O   LIG    1       -5.635   1.379  -4.465  0.00  0.00    -0.520 OA
ATOM      2  C   LIG    1       -4.467   1.529  -4.174  0.00  0.00    +0.550 C 
ATOM      3  N   LIG    1       -3.978   0.980  -3.044  0.00  0.00    -0.640 N 
ATOM      4  C   LIG    1       -4.554   0.161  -1.959  0.00  0.00    +0.350 C 
ATOM      5  C   LIG    1       -3.120  -0.349  -1.727  0.00  0.00    -0.480 C 
ATOM      6  C   LIG    1       -2.653   0.957  -2.395  0.00  0.00    +0.350 C 
ENDROOT
BRANCH   2   7
ATOM      7  C   LIG    1       -3.563   2.329  -5.075  0.00  0.00    +0.000 C 
ATOM      8  C   LIG    1       -4.360   2.837  -6.280  0.00  0.00    +0.060 C 
ATOM      9  C   LIG    1       -3.519   3.847  -7.068  0.00  0.00    +0.290 C 
ATOM     10  N   LIG    1       -2.207   3.257  -7.338  0.00  0.00    -0.460 N 
ATOM     11  C   LIG    1       -1.289   3.637  -8.243  0.00  0.00    +0.400 A 
ATOM     12  N   LIG    1       -0.259   2.836  -8.154  0.00  0.00    -0.490 NA
ATOM     13  C   LIG    1       -0.486   1.925  -7.192  0.00  0.00    +0.150 A 
ATOM     14  C   LIG    1       -1.695   2.171  -6.672  0.00  0.00    -0.030 A 
ATOM     15  C   LIG    1       -2.412   1.439  -5.567  0.00  0.00    +0.140 C 
ENDBRANCH   2   7
BRANCH   5  16
ATOM     16  S   LIG    1       -2.665  -0.476   0.025  0.00  0.00    +2.620 S 
ATOM     17  O   LIG    1       -2.679   0.805   0.638  0.00  0.00    -0.930 OA
ATOM     18  O   LIG    1       -3.317  -1.585   0.630  0.00  0.00    -0.930 OA
BRANCH  16  19
ATOM     19  N   LIG    1       -1.065  -0.903   0.007  0.00  0.00    -0.940 N 
ATOM     20  C   LIG    1       -0.564  -2.280  -0.006  0.00  0.00    +0.280 C 
ATOM     21  C   LIG    1        0.968  -2.151  -0.020  0.00  0.00    +0.100 C 
ATOM     22  C   LIG    1        1.223  -0.660  -0.013  0.00  0.00    -0.130 A 
ATOM     23  C   LIG    1        2.404   0.057  -0.020  0.00  0.00    +0.050 A 
ATOM     24  C   LIG    1        2.377   1.439  -0.012  0.00  0.00    -0.010 A 
ATOM     25  C   LIG    1        1.164   2.103   0.002  0.00  0.00    +0.040 A 
ATOM     26  C   LIG    1       -0.017   1.392   0.010  0.00  0.00    -0.010 A 
ATOM     27  C   LIG    1        0.002  -0.004   0.002  0.00  0.00    +0.150 A 
ENDBRANCH  16  19
ENDBRANCH   5  16
TORSDOF 3
