REMARK  Name = ZINCvU0000000JqT.0
REMARK                            x       y       z     vdW  Elec       q    Type
REMARK                         _______ _______ _______ _____ _____    ______ ____
ROOT
ATOM      1  N   LIG    1       -3.809   1.195  -1.042  0.00  0.00    -0.410 N 
ATOM      2  C   LIG    1       -4.680   0.170  -0.799  0.00  0.00    +0.150 A 
ATOM      3  N   LIG    1       -3.987  -0.811  -0.263  0.00  0.00    -0.290 NA
ATOM      4  N   LIG    1       -2.751  -0.475  -0.160  0.00  0.00    -0.250 NA
ATOM      5  C   LIG    1       -2.577   0.742  -0.624  0.00  0.00    +0.230 A 
ENDROOT
BRANCH   1   9
ATOM      6  C   LIG    1       -4.694   4.912  -2.708  0.00  0.00    -0.060 A 
ATOM      7  C   LIG    1       -4.806   3.768  -3.476  0.00  0.00    +0.040 A 
ATOM      8  C   LIG    1       -4.513   2.535  -2.927  0.00  0.00    +0.040 A 
ATOM      9  C   LIG    1       -4.107   2.445  -1.602  0.00  0.00    +0.090 A 
ATOM     10  C   LIG    1       -4.001   3.595  -0.832  0.00  0.00    +0.040 A 
ATOM     11  C   LIG    1       -4.290   4.826  -1.388  0.00  0.00    +0.040 A 
BRANCH   6  13
ATOM     12  C   LIG    1       -6.497   6.569  -3.102  0.00  0.00    +0.030 C 
ATOM     13  C   LIG    1       -5.014   6.256  -3.310  0.00  0.00    +0.070 C 
ENDBRANCH   6  13
ENDBRANCH   1   9
BRANCH   5  14
ATOM     14  C   LIG    1       -1.302   1.486  -0.680  0.00  0.00    +0.030 A 
ATOM     15  C   LIG    1       -1.173   2.634  -1.471  0.00  0.00    -0.020 A 
ATOM     16  C   LIG    1        0.034   3.301  -1.489  0.00  0.00    +0.270 A 
ATOM     17  N   LIG    1        1.059   2.868  -0.780  0.00  0.00    -0.470 NA
ATOM     18  C   LIG    1        0.982   1.787  -0.026  0.00  0.00    +0.280 A 
ATOM     19  C   LIG    1       -0.186   1.059   0.052  0.00  0.00    +0.020 A 
ENDBRANCH   5  14
BRANCH   2  20
ATOM     20  S   LIG    1       -6.410   0.166  -1.133  0.00  0.00    +0.110 S 
BRANCH  20  21
ATOM     21  C   LIG    1       -6.841  -1.489  -0.541  0.00  0.00    +0.110 C 
BRANCH  21  22
ATOM     22  C   LIG    1       -8.318  -1.722  -0.733  0.00  0.00    +0.540 C 
ATOM     23  N   LIG    1       -8.869  -2.895  -0.361  0.00  0.00    -0.660 N 
ATOM     24  H   LIG    1       -8.332  -3.557   0.102  0.00  0.00    +0.420 HD
ATOM     25  O   LIG    1       -9.011  -0.855  -1.222  0.00  0.00    -0.500 OA
BRANCH  23  26
ATOM     26  C   LIG    1      -10.215  -3.156  -0.643  0.00  0.00    +0.160 A 
ATOM     27  C   LIG    1      -10.871  -2.435  -1.631  0.00  0.00    +0.030 A 
ATOM     28  C   LIG    1      -12.200  -2.696  -1.907  0.00  0.00    +0.040 A 
ATOM     29  C   LIG    1      -12.875  -3.674  -1.202  0.00  0.00    +0.010 A 
ATOM     30  C   LIG    1      -12.225  -4.395  -0.217  0.00  0.00    +0.050 A 
ATOM     31  C   LIG    1      -10.895  -4.143   0.061  0.00  0.00    -0.070 A 
ATOM     32 CL   LIG    1      -10.076  -5.053   1.292  0.00  0.00    -0.060 Cl
ENDBRANCH  23  26
ENDBRANCH  21  22
ENDBRANCH  20  21
ENDBRANCH   2  20
TORSDOF 7
