REMARK  Name = ZINCrD00000e2EdT.0
REMARK                            x       y       z     vdW  Elec       q    Type
REMARK                         _______ _______ _______ _____ _____    ______ ____
ROOT
ATOM      1  C   LIG    1       -1.887   1.438   0.341  0.00  0.00    +0.170 A 
ATOM      2  C   LIG    1       -2.795   0.484  -0.103  0.00  0.00    -0.030 A 
ATOM      3  C   LIG    1       -3.986   0.879  -0.684  0.00  0.00    +0.050 A 
ATOM      4  C   LIG    1       -4.277   2.222  -0.825  0.00  0.00    +0.010 A 
ATOM      5  C   LIG    1       -3.373   3.181  -0.383  0.00  0.00    +0.160 A 
ATOM      6  C   LIG    1       -2.179   2.788   0.206  0.00  0.00    +0.000 A 
ENDROOT
BRANCH   1   8
ATOM      7  C   LIG    1        0.432   1.774   0.751  0.00  0.00    +0.510 C 
ATOM      8  N   LIG    1       -0.683   1.037   0.928  0.00  0.00    -0.680 N 
ATOM      9  H   LIG    1       -0.650   0.231   1.467  0.00  0.00    +0.410 HD
ATOM     10  O   LIG    1        0.416   2.725  -0.002  0.00  0.00    -0.490 OA
BRANCH   7  11
ATOM     11  C   LIG    1        1.697   1.417   1.488  0.00  0.00    +0.090 C 
BRANCH  11  12
ATOM     12  C   LIG    1        2.750   2.501   1.248  0.00  0.00    +0.130 C 
ATOM     13  C   LIG    1        4.061   2.097   1.926  0.00  0.00    +0.020 C 
ATOM     14  C   LIG    1        2.260   3.827   1.832  0.00  0.00    +0.010 C 
BRANCH  12  16
ATOM     15  C   LIG    1        3.939   3.643  -0.492  0.00  0.00    +0.190 C 
ATOM     16  O   LIG    1        2.967   2.650  -0.157  0.00  0.00    -0.360 OA
ENDBRANCH  12  16
ENDBRANCH  11  12
ENDBRANCH   7  11
ENDBRANCH   1   8
BRANCH   5  17
ATOM     17  N   LIG    1       -3.668   4.540  -0.526  0.00  0.00    -0.660 N 
ATOM     18  H   LIG    1       -2.954   5.178  -0.678  0.00  0.00    +0.410 HD
ATOM     19  C   LIG    1       -4.946   4.963  -0.453  0.00  0.00    +0.570 C 
ATOM     20  O   LIG    1       -5.829   4.183  -0.146  0.00  0.00    -0.510 OA
BRANCH  19  21
ATOM     21  C   LIG    1       -5.272   6.363  -0.743  0.00  0.00    +0.010 A 
ATOM     22  C   LIG    1       -4.285   7.229  -1.153  0.00  0.00    +0.090 A 
ATOM     23  C   LIG    1       -4.589   8.566  -1.432  0.00  0.00    -0.010 A 
ATOM     24  C   LIG    1       -5.868   9.017  -1.298  0.00  0.00    +0.130 A 
ATOM     25  C   LIG    1       -6.878   8.133  -0.879  0.00  0.00    -0.030 A 
ATOM     26  C   LIG    1       -8.234   8.274  -0.651  0.00  0.00    +0.200 A 
ATOM     27  N   LIG    1       -8.700   7.084  -0.275  0.00  0.00    -0.460 NA
ATOM     28  C   LIG    1       -7.722   6.213  -0.241  0.00  0.00    +0.390 A 
ATOM     29  N   LIG    1       -6.575   6.812  -0.609  0.00  0.00    -0.350 N 
ENDBRANCH  19  21
ENDBRANCH   5  17
TORSDOF 6
