REMARK  Name = ZINCrH000004rIrb.0
REMARK                            x       y       z     vdW  Elec       q    Type
REMARK                         _______ _______ _______ _____ _____    ______ ____
ROOT
ATOM      1  N   LIG    1        5.514   6.294  -0.076  0.00  0.00    -0.720 N 
ATOM      2  H   LIG    1        4.864   6.457   0.625  0.00  0.00    +0.400 HD
ATOM      3  C   LIG    1        5.879   5.032  -0.377  0.00  0.00    +0.520 C 
ATOM      4  O   LIG    1        6.692   4.829  -1.253  0.00  0.00    -0.510 OA
ENDROOT
BRANCH   3   5
ATOM      5  C   LIG    1        5.276   3.874   0.375  0.00  0.00    +0.150 C 
ATOM      6  C   LIG    1        3.792   3.673  -0.020  0.00  0.00    +0.100 C 
ATOM      7  C   LIG    1        3.654   2.162  -0.021  0.00  0.00    +0.110 C 
ATOM      8  N   LIG    1        4.839   1.648  -0.034  0.00  0.00    -0.240 NA
ATOM      9  O   LIG    1        5.861   2.625  -0.046  0.00  0.00    -0.160 OA
BRANCH   7  10
ATOM     10  C   LIG    1        2.385   1.409  -0.013  0.00  0.00    -0.030 A 
ATOM     11  C   LIG    1        1.166   2.090   0.002  0.00  0.00    +0.090 A 
ATOM     12  C   LIG    1       -0.017   1.381   0.010  0.00  0.00    +0.040 A 
ATOM     13  C   LIG    1        0.002  -0.004   0.002  0.00  0.00    -0.010 A 
ATOM     14  C   LIG    1        1.207  -0.686  -0.013  0.00  0.00    +0.040 A 
ATOM     15 CL   LIG    1       -1.492  -0.889   0.011  0.00  0.00    -0.050 Cl
ATOM     16  C   LIG    1        2.398   0.012  -0.020  0.00  0.00    +0.000 A 
ATOM     17 CL   LIG    1        3.908  -0.845  -0.038  0.00  0.00    -0.020 Cl
ENDBRANCH   7  10
ENDBRANCH   3   5
BRANCH   1  18
ATOM     18  C   LIG    1        6.100   7.420  -0.807  0.00  0.00    +0.390 C 
BRANCH  18  24
ATOM     19  C   LIG    1        4.432  13.776   2.576  0.00  0.00    +0.130 C 
ATOM     20  C   LIG    1        4.344  12.582   1.661  0.00  0.00    -0.100 A 
ATOM     21  C   LIG    1        5.322  11.652   1.675  0.00  0.00    +0.210 A 
ATOM     22  N   LIG    1        5.258  10.564   0.853  0.00  0.00    -0.360 N 
ATOM     23  C   LIG    1        6.088   9.492   0.670  0.00  0.00    +0.120 A 
ATOM     24  C   LIG    1        5.529   8.712  -0.282  0.00  0.00    +0.030 A 
ATOM     25  N   LIG    1        4.384   9.274  -0.675  0.00  0.00    -0.480 NA
ATOM     26  C   LIG    1        4.197  10.400  -0.000  0.00  0.00    +0.220 A 
ATOM     27  C   LIG    1        3.168  11.363  -0.026  0.00  0.00    +0.070 A 
ATOM     28  C   LIG    1        3.245  12.442   0.798  0.00  0.00    +0.050 A 
ENDBRANCH  18  24
ENDBRANCH   1  18
TORSDOF 4
