REMARK  Name = ZINCrD000000AEl8.0
REMARK                            x       y       z     vdW  Elec       q    Type
REMARK                         _______ _______ _______ _____ _____    ______ ____
ROOT
ATOM      1  O   LIG    1       -1.171   2.823  -0.439  0.00  0.00    -0.520 OA
ATOM      2  C   LIG    1       -1.160   1.613  -0.362  0.00  0.00    +0.500 C 
ATOM      3  N   LIG    1       -0.001   0.962  -0.142  0.00  0.00    -0.720 N 
ATOM      4  H   LIG    1        0.008  -0.006  -0.081  0.00  0.00    +0.400 HD
ENDROOT
BRANCH   3   5
ATOM      5  C   LIG    1        1.248   1.716  -0.001  0.00  0.00    +0.270 C 
BRANCH   5   6
ATOM      6  C   LIG    1        2.422   0.741   0.109  0.00  0.00    +0.030 C 
ATOM      7  C   LIG    1        2.524  -0.072  -1.180  0.00  0.00    +0.020 C 
ATOM      8  C   LIG    1        3.826  -0.881  -1.141  0.00  0.00    +0.020 C 
ATOM      9  C   LIG    1        4.999   0.088  -1.279  0.00  0.00    +0.080 C 
ATOM     10  C   LIG    1        4.876   1.213  -0.285  0.00  0.00    -0.070 A 
ATOM     11  C   LIG    1        6.012   1.964  -0.015  0.00  0.00    +0.000 A 
ATOM     12  C   LIG    1        5.962   3.015   0.878  0.00  0.00    +0.000 A 
ATOM     13  C   LIG    1        4.772   3.324   1.508  0.00  0.00    +0.000 A 
ATOM     14  C   LIG    1        3.642   2.577   1.243  0.00  0.00    +0.000 A 
ATOM     15  C   LIG    1        3.691   1.518   0.347  0.00  0.00    -0.070 A 
ENDBRANCH   5   6
ENDBRANCH   3   5
BRANCH   2  16
ATOM     16  C   LIG    1       -2.443   0.837  -0.514  0.00  0.00    +0.330 C 
BRANCH  16  17
ATOM     17  N   LIG    1       -3.552   1.767  -0.744  0.00  0.00    -0.530 N 
ATOM     18  C   LIG    1       -3.880   2.122  -2.013  0.00  0.00    +0.590 A 
ATOM     19  N   LIG    1       -4.848   2.939  -2.299  0.00  0.00    -0.520 NA
ATOM     20  C   LIG    1       -5.610   3.504  -1.329  0.00  0.00    +0.170 A 
ATOM     21  C   LIG    1       -6.651   4.383  -1.636  0.00  0.00    +0.050 A 
ATOM     22  C   LIG    1       -7.400   4.934  -0.620  0.00  0.00    +0.100 A 
ATOM     23  C   LIG    1       -7.134   4.626   0.708  0.00  0.00    -0.110 A 
ATOM     24  C   LIG    1       -6.112   3.760   1.035  0.00  0.00    +0.140 A 
ATOM     25 BR   LIG    1       -8.182   5.400   2.079  0.00  0.00    -0.030 Br
ATOM     26  C   LIG    1       -5.342   3.193   0.022  0.00  0.00    -0.190 A 
ATOM     27  C   LIG    1       -4.243   2.260   0.311  0.00  0.00    +0.560 A 
ATOM     28  O   LIG    1       -3.962   1.946   1.453  0.00  0.00    -0.500 OA
ENDBRANCH  16  17
ENDBRANCH   2  16
TORSDOF 4
