REMARK  Name = ZINCb80000002mwW.0
REMARK                            x       y       z     vdW  Elec       q    Type
REMARK                         _______ _______ _______ _____ _____    ______ ____
ROOT
ATOM      1  C   LIG    1        1.158   1.862   0.001  0.00  0.00    +0.230 C 
ATOM      2  N   LIG    1       -0.011   0.966   0.007  0.00  0.00    -0.720 N 
ATOM      3  H   LIG    1        0.002  -0.004   0.002  0.00  0.00    +0.440 HD
ATOM      4  C   LIG    1       -1.101   1.755   0.016  0.00  0.00    +0.700 C 
ATOM      5  N   LIG    1       -0.789   3.056   0.025  0.00  0.00    -0.680 N 
ATOM      6  H   LIG    1       -1.443   3.773   0.034  0.00  0.00    +0.430 HD
ATOM      7  O   LIG    1       -2.240   1.333   0.019  0.00  0.00    -0.540 OA
ATOM      8  C   LIG    1        0.545   3.248   0.013  0.00  0.00    +0.530 C 
ATOM      9  O   LIG    1        1.132   4.309   0.013  0.00  0.00    -0.460 OA
ENDROOT
BRANCH   1  11
ATOM     10  C   LIG    1        1.130   1.951  -2.496  0.00  0.00    +0.030 C 
ATOM     11  C   LIG    1        1.990   1.653  -1.266  0.00  0.00    -0.060 C 
ATOM     12  C   LIG    1        2.476   0.203  -1.323  0.00  0.00    +0.050 C 
ATOM     13  C   LIG    1        3.195   2.595  -1.246  0.00  0.00    +0.050 C 
ENDBRANCH   1  11
TORSDOF 1
