REMARK  Name = ZINCqH0000001YxB.0
REMARK                            x       y       z     vdW  Elec       q    Type
REMARK                         _______ _______ _______ _____ _____    ______ ____
ROOT
ATOM      1  C   LIG    1       -6.329  -5.586   4.179  0.00  0.00    +0.060 C 
ATOM      2  C   LIG    1       -6.806  -4.455   5.093  0.00  0.00    -0.090 C 
ATOM      3  C   LIG    1       -5.788  -3.321   5.276  0.00  0.00    +0.270 C 
ATOM      4  N   LIG    1       -6.350  -2.692   4.071  0.00  0.00    -0.660 N 
ATOM      5  C   LIG    1       -5.900  -1.861   3.111  0.00  0.00    +0.730 C 
ATOM      6  N   LIG    1       -4.628  -1.418   3.144  0.00  0.00    -0.680 N 
ATOM      7  H   LIG    1       -4.014  -1.757   3.814  0.00  0.00    +0.410 HD
ATOM      8  O   LIG    1       -6.643  -1.511   2.213  0.00  0.00    -0.560 OA
ATOM      9  C   LIG    1       -7.433  -4.952   6.397  0.00  0.00    +0.060 C 
ATOM     10  C   LIG    1       -7.621  -3.364   4.380  0.00  0.00    +0.320 C 
ENDROOT
BRANCH   6  11
ATOM     11  C   LIG    1       -4.192  -0.469   2.212  0.00  0.00    +0.160 A 
ATOM     12  C   LIG    1       -5.070   0.499   1.743  0.00  0.00    +0.090 A 
ATOM     13  C   LIG    1       -4.638   1.434   0.822  0.00  0.00    +0.050 A 
ATOM     14  C   LIG    1       -3.331   1.407   0.368  0.00  0.00    +0.030 A 
ATOM     15  C   LIG    1       -2.454   0.443   0.835  0.00  0.00    -0.630 A 
ATOM     16 CL   LIG    1       -2.791   2.583  -0.788  0.00  0.00    -0.040 Cl
ATOM     17  C   LIG    1       -2.883  -0.498   1.750  0.00  0.00    +0.120 A 
BRANCH  15  18
ATOM     18  S   LIG    1       -0.790   0.412   0.254  0.00  0.00    +2.500 S 
ATOM     19  O   LIG    1       -0.331   1.744   0.437  0.00  0.00    -0.920 OA
ATOM     20  O   LIG    1       -0.195  -0.671   0.955  0.00  0.00    -0.930 OA
ATOM     21  C   LIG    1       -0.934   0.025  -1.512  0.00  0.00    -0.240 C 
ENDBRANCH  15  18
ENDBRANCH   6  11
BRANCH  10  22
ATOM     22  C   LIG    1       -8.351  -3.859   3.158  0.00  0.00    -0.150 A 
ATOM     23  C   LIG    1       -9.710  -4.127   3.213  0.00  0.00    +0.070 A 
ATOM     24  C   LIG    1      -10.342  -4.574   2.062  0.00  0.00    -0.040 A 
ATOM     25  C   LIG    1       -9.598  -4.749   0.911  0.00  0.00    +0.260 A 
ATOM     26  N   LIG    1       -8.305  -4.490   0.897  0.00  0.00    -0.490 NA
ATOM     27  C   LIG    1       -7.673  -4.057   1.970  0.00  0.00    +0.290 A 
ENDBRANCH  10  22
TORSDOF 3
