REMARK  Name = ZINCb70000002izh.0
REMARK                            x       y       z     vdW  Elec       q    Type
REMARK                         _______ _______ _______ _____ _____    ______ ____
ROOT
ATOM      1  N   LIG    1        3.401   2.254  -0.018  0.00  0.00    -0.720 N 
ATOM      2  H   LIG    1        3.317   3.220  -0.012  0.00  0.00    +0.420 HD
ENDROOT
BRANCH   1   7
ATOM      3  C   LIG    1       -1.293  -0.775   0.010  0.00  0.00    +0.160 C 
ATOM      4  C   LIG    1        0.002  -0.004   0.002  0.00  0.00    +0.040 A 
ATOM      5  C   LIG    1        1.213  -0.682  -0.013  0.00  0.00    +0.090 A 
ATOM      6  C   LIG    1        2.379   0.067  -0.020  0.00  0.00    -0.040 A 
ATOM      7  C   LIG    1        2.262   1.457  -0.012  0.00  0.00    +0.320 A 
ATOM      8  N   LIG    1        1.060   2.014   0.003  0.00  0.00    -0.290 NA
ATOM      9  N   LIG    1       -0.016   1.314   0.009  0.00  0.00    -0.200 NA
ENDBRANCH   1   7
BRANCH   1  10
ATOM     10  C   LIG    1        4.729   1.634  -0.033  0.00  0.00    +0.280 C 
BRANCH  10  11
ATOM     11  C   LIG    1        5.801   2.725  -0.037  0.00  0.00    +0.260 C 
BRANCH  11  12
ATOM     12  N   LIG    1        7.132   2.104  -0.052  0.00  0.00    -0.630 N 
ATOM     13  H   LIG    1        7.839   2.824  -0.055  0.00  0.00    +0.450 HD
ATOM     14  H   LIG    1        7.228   1.535  -0.880  0.00  0.00    +0.440 HD
ATOM     15  H   LIG    1        7.243   1.526   0.768  0.00  0.00    +0.440 HD
ENDBRANCH  11  12
ENDBRANCH  10  11
ENDBRANCH   1  10
TORSDOF 4
