REMARK  Name = ZINCqH00000518qj.0
REMARK                            x       y       z     vdW  Elec       q    Type
REMARK                         _______ _______ _______ _____ _____    ______ ____
ROOT
ATOM      1  O   LIG    1       -3.712  10.410   0.096  0.00  0.00    -0.490 OA
ATOM      2  C   LIG    1       -2.533  10.677   0.087  0.00  0.00    +0.480 C 
ENDROOT
BRANCH   2   3
ATOM      3  O   LIG    1       -1.622   9.691   0.072  0.00  0.00    -0.350 OA
BRANCH   3   4
ATOM      4  C   LIG    1       -2.125   8.329   0.069  0.00  0.00    +0.350 C 
BRANCH   4   5
ATOM      5  C   LIG    1       -0.966   7.366   0.052  0.00  0.00    +0.060 A 
ATOM      6  C   LIG    1        0.304   7.783   0.042  0.00  0.00    -0.030 A 
ATOM      7  S   LIG    1        1.351   6.365   0.032  0.00  0.00    +0.110 S 
ATOM      8  C   LIG    1       -0.070   5.323   0.032  0.00  0.00    +0.120 A 
ATOM      9  N   LIG    1       -1.141   6.064   0.046  0.00  0.00    -0.460 NA
BRANCH   8  10
ATOM     10  C   LIG    1       -0.050   3.845   0.024  0.00  0.00    -0.030 A 
ATOM     11  C   LIG    1        1.166   3.160   0.008  0.00  0.00    +0.030 A 
ATOM     12  C   LIG    1        1.178   1.781   0.000  0.00  0.00    +0.010 A 
ATOM     13  C   LIG    1       -0.013   1.076   0.008  0.00  0.00    +0.030 A 
ATOM     14  C   LIG    1       -1.222   1.748   0.017  0.00  0.00    +0.010 A 
ATOM     15  C   LIG    1       -1.247   3.128   0.031  0.00  0.00    +0.070 A 
ENDBRANCH   8  10
ENDBRANCH   4   5
ENDBRANCH   3   4
ENDBRANCH   2   3
BRANCH   2  16
ATOM     16  C   LIG    1       -2.086  12.116   0.091  0.00  0.00    +0.150 C 
BRANCH  16  17
ATOM     17  C   LIG    1       -3.312  13.031   0.108  0.00  0.00    -0.310 C 
BRANCH  17  18
ATOM     18  S   LIG    1       -2.774  14.763   0.114  0.00  0.00    +2.500 S 
ATOM     19  O   LIG    1       -2.170  15.101  -1.127  0.00  0.00    -0.930 OA
ATOM     20  O   LIG    1       -2.146  15.086   1.347  0.00  0.00    -0.930 OA
BRANCH  18  21
ATOM     21  C   LIG    1       -4.273  15.689   0.133  0.00  0.00    -0.660 A 
ATOM     22  C   LIG    1       -4.869  16.064  -1.056  0.00  0.00    +0.120 A 
ATOM     23  C   LIG    1       -6.048  16.787  -1.040  0.00  0.00    +0.000 A 
ATOM     24  C   LIG    1       -6.625  17.143   0.164  0.00  0.00    +0.070 A 
ATOM     25  C   LIG    1       -6.026  16.772   1.354  0.00  0.00    -0.010 A 
ATOM     26  C   LIG    1       -4.850  16.045   1.338  0.00  0.00    +0.120 A 
ENDBRANCH  18  21
ENDBRANCH  17  18
ENDBRANCH  16  17
ENDBRANCH   2  16
TORSDOF 8
