REMARK  Name = ZINCvU0000000EQR.0
REMARK                            x       y       z     vdW  Elec       q    Type
REMARK                         _______ _______ _______ _____ _____    ______ ____
ROOT
ATOM      1  C   LIG    1        3.586   6.214   1.063  0.00  0.00    -0.110 A 
ATOM      2  C   LIG    1        3.412   6.565   2.401  0.00  0.00    +0.090 A 
ATOM      3  C   LIG    1        4.497   6.951   3.170  0.00  0.00    +0.120 A 
ATOM      4  C   LIG    1        5.763   6.989   2.607  0.00  0.00    -0.110 A 
ATOM      5  C   LIG    1        7.107   7.342   3.117  0.00  0.00    +0.570 C 
ATOM      6  N   LIG    1        7.996   7.198   2.118  0.00  0.00    -0.520 N 
ATOM      7  C   LIG    1        7.393   6.785   0.989  0.00  0.00    +0.580 C 
ATOM      8  O   LIG    1        7.944   6.571  -0.072  0.00  0.00    -0.440 OA
ATOM      9  O   LIG    1        7.364   7.702   4.248  0.00  0.00    -0.440 OA
ATOM     10  C   LIG    1        5.946   6.635   1.254  0.00  0.00    -0.140 A 
ATOM     11  C   LIG    1        4.861   6.245   0.489  0.00  0.00    +0.180 A 
ENDROOT
BRANCH   6  12
ATOM     12  C   LIG    1        9.370   7.445   2.237  0.00  0.00    +0.130 A 
ATOM     13  C   LIG    1       10.208   7.261   1.145  0.00  0.00    +0.040 A 
ATOM     14  C   LIG    1       11.561   7.510   1.264  0.00  0.00    +0.050 A 
ATOM     15  C   LIG    1       12.084   7.934   2.473  0.00  0.00    -0.040 A 
ATOM     16  C   LIG    1       11.252   8.113   3.565  0.00  0.00    +0.050 A 
ATOM     17 CL   LIG    1       13.787   8.239   2.622  0.00  0.00    -0.060 Cl
ATOM     18  C   LIG    1        9.898   7.870   3.449  0.00  0.00    +0.030 A 
ENDBRANCH   6  12
BRANCH   1  20
ATOM     19  O   LIG    1        2.570   5.497  -0.917  0.00  0.00    -0.510 OA
ATOM     20  C   LIG    1        2.420   5.803   0.250  0.00  0.00    +0.560 C 
ATOM     21  N   LIG    1        1.191   5.768   0.803  0.00  0.00    -0.720 N 
ATOM     22  H   LIG    1        1.071   6.012   1.734  0.00  0.00    +0.400 HD
BRANCH  21  23
ATOM     23  C   LIG    1        0.037   5.361  -0.003  0.00  0.00    +0.300 C 
ATOM     24  C   LIG    1       -1.200   6.054   0.541  0.00  0.00    +0.060 C 
ATOM     25  C   LIG    1       -2.410   5.663  -0.319  0.00  0.00    +0.120 C 
ATOM     26  S   LIG    1       -2.818   3.938   0.076  0.00  0.00    -0.120 S 
ATOM     27  C   LIG    1       -1.240   3.149   0.033  0.00  0.00    -0.070 A 
ATOM     28  C   LIG    1       -1.212   1.754   0.017  0.00  0.00    +0.030 A 
ATOM     29  C   LIG    1       -0.013   1.076   0.008  0.00  0.00    +0.030 A 
ATOM     30  C   LIG    1        1.173   1.789   0.001  0.00  0.00    +0.010 A 
ATOM     31  C   LIG    1        1.148   3.167   0.001  0.00  0.00    +0.040 A 
ATOM     32  C   LIG    1       -0.057   3.864   0.016  0.00  0.00    -0.110 A 
ENDBRANCH  21  23
ENDBRANCH   1  20
TORSDOF 3
