REMARK  Name = ZINCrD000000ABlQ.0
REMARK                            x       y       z     vdW  Elec       q    Type
REMARK                         _______ _______ _______ _____ _____    ______ ____
ROOT
ATOM      1  O   LIG    1       -1.736   2.268  -1.088  0.00  0.00    -0.530 OA
ATOM      2  C   LIG    1       -0.742   1.585  -1.213  0.00  0.00    +0.520 C 
ATOM      3  N   LIG    1       -0.288   1.272  -2.443  0.00  0.00    -0.620 N 
ATOM      4  C   LIG    1        0.919   0.450  -2.616  0.00  0.00    +0.280 C 
ATOM      5  C   LIG    1        0.584  -0.702  -3.577  0.00  0.00    +0.170 C 
ATOM      6  N   LIG    1        0.025  -0.150  -4.819  0.00  0.00    -0.540 NA
ATOM      7  C   LIG    1       -1.242   0.551  -4.568  0.00  0.00    +0.190 C 
ATOM      8  C   LIG    1       -0.985   1.749  -3.648  0.00  0.00    +0.300 C 
ENDROOT
BRANCH   6   9
ATOM      9  C   LIG    1       -0.147  -1.201  -5.831  0.00  0.00    +0.350 C 
BRANCH   9  10
ATOM     10  C   LIG    1        1.204  -1.729  -6.241  0.00  0.00    +0.200 A 
ATOM     11  N   LIG    1        1.851  -2.724  -5.687  0.00  0.00    -0.470 NA
ATOM     12  C   LIG    1        3.005  -2.838  -6.382  0.00  0.00    +0.210 A 
ATOM     13  N   LIG    1        2.995  -1.910  -7.303  0.00  0.00    -0.370 NA
ATOM     14  O   LIG    1        1.970  -1.266  -7.234  0.00  0.00    +0.100 OA
BRANCH  12  15
ATOM     15  C   LIG    1        4.084  -3.829  -6.141  0.00  0.00    -0.020 A 
ATOM     16  C   LIG    1        3.960  -4.762  -5.114  0.00  0.00    +0.090 A 
ATOM     17  C   LIG    1        4.963  -5.684  -4.898  0.00  0.00    +0.030 A 
ATOM     18  C   LIG    1        6.096  -5.676  -5.692  0.00  0.00    -0.020 A 
ATOM     19  C   LIG    1        6.227  -4.748  -6.711  0.00  0.00    +0.030 A 
ATOM     20 CL   LIG    1        7.358  -6.835  -5.411  0.00  0.00    -0.060 Cl
ATOM     21  C   LIG    1        5.227  -3.825  -6.939  0.00  0.00    +0.070 A 
ENDBRANCH  12  15
ENDBRANCH   9  10
ENDBRANCH   6   9
BRANCH   2  22
ATOM     22  C   LIG    1       -0.013   1.086   0.008  0.00  0.00    +0.120 C 
BRANCH  22  23
ATOM     23  C   LIG    1       -0.718   1.572   1.248  0.00  0.00    -0.090 A 
ATOM     24  C   LIG    1       -0.413   2.727   1.840  0.00  0.00    -0.040 A 
ATOM     25  S   LIG    1       -1.442   2.958   3.248  0.00  0.00    +0.100 S 
ATOM     26  C   LIG    1       -2.246   1.422   2.950  0.00  0.00    -0.050 A 
ATOM     27  C   LIG    1       -1.727   0.850   1.862  0.00  0.00    +0.020 A 
ENDBRANCH  22  23
ENDBRANCH   2  22
TORSDOF 5
