REMARK  Name = ZINCtV00000L6kgL.0
REMARK                            x       y       z     vdW  Elec       q    Type
REMARK                         _______ _______ _______ _____ _____    ______ ____
ROOT
ATOM      1  C   LIG    1        3.572   7.796   0.744  0.00  0.00    +0.150 A 
ATOM      2  N   LIG    1        2.466   8.372   0.334  0.00  0.00    -0.290 NA
ATOM      3  N   LIG    1        2.547   9.643   0.503  0.00  0.00    -0.270 NA
ATOM      4  C   LIG    1        3.703   9.953   1.018  0.00  0.00    +0.190 A 
ATOM      5  N   LIG    1        4.398   8.788   1.191  0.00  0.00    -0.450 N 
ENDROOT
BRANCH   5   6
ATOM      6  C   LIG    1        5.747   8.635   1.740  0.00  0.00    +0.230 C 
ATOM      7  C   LIG    1        6.654   7.985   0.693  0.00  0.00    +0.020 C 
ATOM      8  C   LIG    1        8.063   7.826   1.267  0.00  0.00    +0.040 C 
ATOM      9  C   LIG    1        8.009   6.941   2.515  0.00  0.00    +0.010 C 
ATOM     10  C   LIG    1        7.102   7.591   3.562  0.00  0.00    +0.030 C 
ATOM     11  C   LIG    1        5.693   7.751   2.988  0.00  0.00    +0.010 C 
ENDBRANCH   5   6
BRANCH   1  12
ATOM     12  S   LIG    1        3.928   6.070   0.716  0.00  0.00    +0.060 S 
BRANCH  12  14
ATOM     13  C   LIG    1        2.236   5.958  -1.426  0.00  0.00    +0.090 C 
ATOM     14  C   LIG    1        2.385   5.443   0.007  0.00  0.00    -0.010 C 
BRANCH  14  15
ATOM     15  C   LIG    1        2.412   3.936  -0.001  0.00  0.00    +0.420 C 
ATOM     16  O   LIG    1        3.473   3.349  -0.014  0.00  0.00    -0.430 OA
BRANCH  15  17
ATOM     17  C   LIG    1        1.151   3.178   0.008  0.00  0.00    -0.150 A 
ATOM     18  C   LIG    1        1.173   1.780   0.000  0.00  0.00    +0.100 A 
ATOM     19  C   LIG    1       -0.013   1.076   0.008  0.00  0.00    +0.040 A 
ATOM     20  C   LIG    1       -1.222   1.750   0.017  0.00  0.00    -0.060 A 
ATOM     21  C   LIG    1       -1.251   3.135   0.030  0.00  0.00    +0.040 A 
ATOM     22 BR   LIG    1       -2.843   0.776   0.020  0.00  0.00    -0.040 Br
ATOM     23  C   LIG    1       -0.074   3.852   0.022  0.00  0.00    +0.080 A 
ENDBRANCH  15  17
ENDBRANCH  14  15
ENDBRANCH  12  14
ENDBRANCH   1  12
BRANCH   4  24
ATOM     24  C   LIG    1        4.185  11.339   1.361  0.00  0.00    +0.250 C 
BRANCH  24  25
ATOM     25  C   LIG    1        4.893  11.934   0.171  0.00  0.00    -0.190 A 
ATOM     26  C   LIG    1        4.309  12.649  -0.792  0.00  0.00    +0.040 A 
ATOM     27  C   LIG    1        5.163  13.095  -1.786  0.00  0.00    +0.010 A 
ATOM     28  C   LIG    1        6.438  12.736  -1.635  0.00  0.00    -0.030 A 
ATOM     29  S   LIG    1        6.613  11.785  -0.165  0.00  0.00    +0.090 S 
ENDBRANCH  24  25
ENDBRANCH   4  24
TORSDOF 7
