REMARK  Name = ZINCrH000004sOKH.0
REMARK                            x       y       z     vdW  Elec       q    Type
REMARK                         _______ _______ _______ _____ _____    ______ ____
ROOT
ATOM      1  N   LIG    1       -1.203   1.632  -0.219  0.00  0.00    -0.740 N 
ATOM      2  H   LIG    1       -1.138   2.586  -0.055  0.00  0.00    +0.400 HD
ATOM      3  C   LIG    1       -0.089   0.911  -0.455  0.00  0.00    +0.710 C 
ATOM      4  N   LIG    1        1.115   1.516  -0.469  0.00  0.00    -0.630 N 
ATOM      5  C   LIG    1        1.213   2.957  -0.222  0.00  0.00    +0.270 C 
ATOM      6  O   LIG    1       -0.171  -0.284  -0.660  0.00  0.00    -0.580 OA
ENDROOT
BRANCH   4   7
ATOM      7  C   LIG    1        2.325   0.734  -0.732  0.00  0.00    +0.270 C 
ATOM      8  C   LIG    1        3.274   0.843   0.465  0.00  0.00    +0.000 C 
ATOM      9  C   LIG    1        4.561   0.072   0.158  0.00  0.00    +0.040 C 
ATOM     10  C   LIG    1        5.194   0.633  -1.117  0.00  0.00    +0.190 C 
ATOM     11  N   LIG    1        4.247   0.505  -2.233  0.00  0.00    -0.480 N 
ATOM     12  C   LIG    1        3.023   1.276  -1.981  0.00  0.00    +0.190 C 
BRANCH  11  13
ATOM     13  C   LIG    1        4.840   0.887  -3.438  0.00  0.00    +0.110 A 
ATOM     14  C   LIG    1        4.254   1.875  -4.220  0.00  0.00    -0.050 A 
ATOM     15  C   LIG    1        4.845   2.253  -5.410  0.00  0.00    +0.030 A 
ATOM     16  C   LIG    1        6.013   1.642  -5.828  0.00  0.00    -0.030 A 
ATOM     17  C   LIG    1        6.596   0.655  -5.055  0.00  0.00    +0.030 A 
ATOM     18  C   LIG    1        6.013   0.275  -3.862  0.00  0.00    -0.010 A 
ENDBRANCH  11  13
ENDBRANCH   4   7
BRANCH   1  19
ATOM     19  C   LIG    1       -2.513   0.975  -0.209  0.00  0.00    +0.280 C 
BRANCH  19  20
ATOM     20  C   LIG    1       -3.601   2.011   0.081  0.00  0.00    +0.070 C 
ATOM     21  C   LIG    1       -3.663   3.021  -1.067  0.00  0.00    +0.030 C 
BRANCH  20  28
ATOM     22  C   LIG    1       -5.011   0.007  -2.046  0.00  0.00    +0.160 C 
ATOM     23  C   LIG    1       -5.553   0.443  -0.709  0.00  0.00    +0.030 A 
ATOM     24  N   LIG    1       -6.686   0.089  -0.174  0.00  0.00    -0.360 NA
ATOM     25  O   LIG    1       -6.847   0.603   0.908  0.00  0.00    +0.100 OA
ATOM     26  C   LIG    1       -5.809   1.383   1.243  0.00  0.00    -0.020 A 
ATOM     27  C   LIG    1       -5.649   2.177   2.513  0.00  0.00    +0.190 C 
ATOM     28  C   LIG    1       -4.932   1.317   0.212  0.00  0.00    -0.200 A 
ENDBRANCH  20  28
ENDBRANCH  19  20
ENDBRANCH   1  19
TORSDOF 5
