REMARK  Name = ZINCrg00000fSEmF.1
REMARK                            x       y       z     vdW  Elec       q    Type
REMARK                         _______ _______ _______ _____ _____    ______ ____
ROOT
ATOM      1  O   LIG    1        0.044  -2.610   0.693  0.00  0.00    -0.510 OA
ATOM      2  C   LIG    1        0.042  -1.826   1.619  0.00  0.00    +0.510 C 
ATOM      3  N   LIG    1        0.022  -0.500   1.381  0.00  0.00    -0.700 N 
ATOM      4  H   LIG    1        0.020   0.127   2.121  0.00  0.00    +0.410 HD
ENDROOT
BRANCH   2   5
ATOM      5  C   LIG    1        0.062  -2.332   3.026  0.00  0.00    +0.520 C 
ATOM      6  N   LIG    1        0.083  -3.658   3.265  0.00  0.00    -0.590 N 
ATOM      7  C   LIG    1        0.088  -4.713   2.241  0.00  0.00    +0.270 C 
ATOM      8  C   LIG    1        0.087  -6.068   2.979  0.00  0.00    +0.040 C 
ATOM      9  C   LIG    1       -0.490  -5.704   4.373  0.00  0.00    +0.000 C 
ATOM     10  C   LIG    1        0.110  -4.291   4.596  0.00  0.00    +0.290 C 
ATOM     11  O   LIG    1        0.060  -1.548   3.952  0.00  0.00    -0.520 OA
BRANCH   9  12
ATOM     12  C   LIG    1        0.002  -6.681   5.443  0.00  0.00    +0.120 C 
BRANCH  12  13
ATOM     13  C   LIG    1       -0.673  -6.372   6.754  0.00  0.00    +0.130 A 
ATOM     14  C   LIG    1       -1.369  -7.365   7.415  0.00  0.00    -0.040 A 
ATOM     15  C   LIG    1       -1.982  -7.072   8.623  0.00  0.00    +0.060 A 
ATOM     16  C   LIG    1       -1.880  -5.781   9.118  0.00  0.00    -0.050 A 
ATOM     17  C   LIG    1       -1.171  -4.838   8.399  0.00  0.00    +0.260 A 
ATOM     18  N   LIG    1       -0.597  -5.154   7.255  0.00  0.00    -0.480 NA
ENDBRANCH  12  13
ENDBRANCH   9  12
ENDBRANCH   2   5
BRANCH   3  19
ATOM     19  C   LIG    1        0.002  -0.004   0.002  0.00  0.00    +0.340 C 
BRANCH  19  20
ATOM     20  C   LIG    1       -0.018   1.503   0.010  0.00  0.00    -0.130 A 
ATOM     21  C   LIG    1        1.179   2.206   0.003  0.00  0.00    +0.090 A 
ATOM     22  C   LIG    1        1.180   3.582   0.009  0.00  0.00    +0.020 A 
ATOM     23  C   LIG    1       -0.027   4.272   0.024  0.00  0.00    +0.100 A 
ATOM     24  N   LIG    1       -0.366   5.604   0.033  0.00  0.00    -0.500 N 
ATOM     25  H   LIG    1        0.244   6.358   0.031  0.00  0.00    +0.450 HD
ATOM     26  N   LIG    1       -1.767   5.659   0.047  0.00  0.00    +0.000 NA
ATOM     27  N   LIG    1       -2.242   4.463   0.046  0.00  0.00    -0.210 NA
ATOM     28  C   LIG    1       -1.240   3.561   0.032  0.00  0.00    -0.020 A 
ATOM     29  C   LIG    1       -1.213   2.161   0.020  0.00  0.00    +0.130 A 
ENDBRANCH  19  20
ENDBRANCH   3  19
TORSDOF 5
