REMARK  Name = ZINCrg00000fSEmF.0
REMARK                            x       y       z     vdW  Elec       q    Type
REMARK                         _______ _______ _______ _____ _____    ______ ____
ROOT
ATOM      1  O   LIG    1       -1.335   3.152   0.025  0.00  0.00    -0.510 OA
ATOM      2  C   LIG    1       -1.319   1.939   0.019  0.00  0.00    +0.510 C 
ATOM      3  N   LIG    1       -2.477   1.249   0.021  0.00  0.00    -0.700 N 
ATOM      4  H   LIG    1       -2.463   0.279   0.015  0.00  0.00    +0.420 HD
ENDROOT
BRANCH   2   5
ATOM      5  C   LIG    1       -0.014   1.209   0.009  0.00  0.00    +0.520 C 
ATOM      6  N   LIG    1        1.143   1.899   0.001  0.00  0.00    -0.590 N 
ATOM      7  C   LIG    1        1.268   3.364   0.009  0.00  0.00    +0.270 C 
ATOM      8  C   LIG    1        2.775   3.696  -0.031  0.00  0.00    +0.040 C 
ATOM      9  C   LIG    1        3.399   2.407  -0.629  0.00  0.00    +0.000 C 
ATOM     10  C   LIG    1        2.495   1.309  -0.009  0.00  0.00    +0.290 C 
ATOM     11  O   LIG    1        0.002  -0.004   0.002  0.00  0.00    -0.520 OA
BRANCH   9  12
ATOM     12  C   LIG    1        4.851   2.239  -0.175  0.00  0.00    +0.120 C 
BRANCH  12  13
ATOM     13  C   LIG    1        5.460   1.049  -0.870  0.00  0.00    +0.130 A 
ATOM     14  C   LIG    1        6.625   1.204  -1.596  0.00  0.00    -0.040 A 
ATOM     15  C   LIG    1        7.180   0.102  -2.228  0.00  0.00    +0.060 A 
ATOM     16  C   LIG    1        6.533  -1.119  -2.114  0.00  0.00    -0.050 A 
ATOM     17  C   LIG    1        5.368  -1.197  -1.374  0.00  0.00    +0.260 A 
ATOM     18  N   LIG    1        4.871  -0.129  -0.782  0.00  0.00    -0.480 NA
ENDBRANCH  12  13
ENDBRANCH   9  12
ENDBRANCH   2   5
BRANCH   3  19
ATOM     19  C   LIG    1       -3.755   1.964   0.030  0.00  0.00    +0.340 C 
BRANCH  19  20
ATOM     20  C   LIG    1       -4.887   0.970   0.030  0.00  0.00    -0.090 A 
ATOM     21  C   LIG    1       -5.393   0.544  -1.156  0.00  0.00    +0.110 A 
ATOM     22  C   LIG    1       -6.446  -0.389  -1.165  0.00  0.00    +0.020 A 
ATOM     23  N   LIG    1       -7.167  -1.013  -2.082  0.00  0.00    -0.260 NA
ATOM     24  N   LIG    1       -8.023  -1.772  -1.493  0.00  0.00    -0.190 N 
ATOM     25  H   LIG    1       -8.662  -2.329  -1.965  0.00  0.00    +0.470 HD
ATOM     26  N   LIG    1       -7.941  -1.713  -0.209  0.00  0.00    -0.270 NA
ATOM     27  C   LIG    1       -6.977  -0.869   0.119  0.00  0.00    +0.030 A 
ATOM     28  C   LIG    1       -6.411  -0.382   1.311  0.00  0.00    +0.080 A 
ATOM     29  C   LIG    1       -5.392   0.514   1.249  0.00  0.00    +0.050 A 
ENDBRANCH  19  20
ENDBRANCH   3  19
TORSDOF 5
