REMARK  Name = ZINCkj00000GePMP.0
REMARK                            x       y       z     vdW  Elec       q    Type
REMARK                         _______ _______ _______ _____ _____    ______ ____
ROOT
ATOM      1  N   LIG    1       -0.128   3.129  -2.563  0.00  0.00    -0.620 N 
ATOM      2  C   LIG    1       -0.547   4.042  -3.461  0.00  0.00    +0.720 C 
ATOM      3  N   LIG    1       -1.838   4.062  -3.849  0.00  0.00    -0.630 N 
ATOM      4  C   LIG    1       -2.364   4.737  -5.050  0.00  0.00    +0.290 C 
ATOM      5  C   LIG    1       -3.677   3.985  -5.384  0.00  0.00    +0.050 C 
ATOM      6  C   LIG    1       -4.232   3.683  -3.967  0.00  0.00    +0.030 C 
ATOM      7  C   LIG    1       -2.954   3.414  -3.145  0.00  0.00    +0.200 C 
ATOM      8  O   LIG    1        0.238   4.847  -3.922  0.00  0.00    -0.550 OA
ENDROOT
BRANCH   1  10
ATOM      9  C   LIG    1       -1.261   1.023  -3.075  0.00  0.00    +0.030 C 
ATOM     10  C   LIG    1       -1.065   2.132  -2.039  0.00  0.00    +0.230 C 
ENDBRANCH   1  10
BRANCH   1  11
ATOM     11  C   LIG    1        1.265   3.135  -2.109  0.00  0.00    +0.290 C 
ATOM     12  C   LIG    1        1.397   4.032  -0.877  0.00  0.00    +0.020 C 
ENDBRANCH   1  11
BRANCH   7  13
ATOM     13  C   LIG    1       -3.102   4.012  -1.744  0.00  0.00    +0.250 C 
BRANCH  13  14
ATOM     14  N   LIG    1       -4.054   3.208  -0.967  0.00  0.00    -0.380 N 
ATOM     15  C   LIG    1       -5.409   3.346  -1.542  0.00  0.00    +0.260 C 
ATOM     16  C   LIG    1       -6.362   3.330  -0.321  0.00  0.00    +0.080 C 
ATOM     17  C   LIG    1       -5.537   4.117   0.731  0.00  0.00    +0.090 C 
ATOM     18  C   LIG    1       -4.086   3.687   0.428  0.00  0.00    +0.180 C 
ATOM     19  H   LIG    1       -3.775   2.238  -0.985  0.00  0.00    +0.420 HD
BRANCH  18  20
ATOM     20  C   LIG    1       -3.140   4.878   0.590  0.00  0.00    +0.220 C 
BRANCH  20  21
ATOM     21  O   LIG    1       -3.629   5.982  -0.176  0.00  0.00    -0.570 OA
ATOM     22  H   LIG    1       -3.077   6.774  -0.120  0.00  0.00    +0.410 HD
ENDBRANCH  20  21
ENDBRANCH  18  20
ENDBRANCH  13  14
ENDBRANCH   7  13
TORSDOF 6
