REMARK  Name = ZINCkj00000GePMP.1
REMARK                            x       y       z     vdW  Elec       q    Type
REMARK                         _______ _______ _______ _____ _____    ______ ____
ROOT
ATOM      1  N   LIG    1       -2.968   3.131   0.829  0.00  0.00    -0.620 N 
ATOM      2  C   LIG    1       -4.066   2.497   1.285  0.00  0.00    +0.720 C 
ATOM      3  N   LIG    1       -4.933   1.941   0.416  0.00  0.00    -0.630 N 
ATOM      4  C   LIG    1       -6.330   1.573   0.712  0.00  0.00    +0.290 C 
ATOM      5  C   LIG    1       -7.042   1.581  -0.663  0.00  0.00    +0.060 C 
ATOM      6  C   LIG    1       -5.934   1.016  -1.594  0.00  0.00    +0.030 C 
ATOM      7  C   LIG    1       -4.643   1.599  -0.984  0.00  0.00    +0.210 C 
ATOM      8  O   LIG    1       -4.274   2.426   2.481  0.00  0.00    -0.550 OA
ENDROOT
BRANCH   1  10
ATOM      9  C   LIG    1       -0.933   2.610   2.082  0.00  0.00    +0.020 C 
ATOM     10  C   LIG    1       -1.989   3.674   1.774  0.00  0.00    +0.290 C 
ENDBRANCH   1  10
BRANCH   1  11
ATOM     11  C   LIG    1       -2.753   3.278  -0.613  0.00  0.00    +0.230 C 
ATOM     12  C   LIG    1       -3.624   4.418  -1.145  0.00  0.00    +0.020 C 
ENDBRANCH   1  11
BRANCH   7  13
ATOM     13  C   LIG    1       -3.522   0.559  -1.045  0.00  0.00    +0.240 C 
BRANCH  13  14
ATOM     14  N   LIG    1       -3.328   0.129  -2.436  0.00  0.00    -0.380 N 
ATOM     15  C   LIG    1       -2.780   1.250  -3.229  0.00  0.00    +0.250 C 
ATOM     16  C   LIG    1       -1.799   0.585  -4.233  0.00  0.00    +0.100 C 
ATOM     17  C   LIG    1       -1.185  -0.542  -3.363  0.00  0.00    +0.090 C 
ATOM     18  C   LIG    1       -2.369  -0.990  -2.480  0.00  0.00    +0.170 C 
ATOM     19  H   LIG    1       -4.210  -0.164  -2.828  0.00  0.00    +0.430 HD
BRANCH  18  20
ATOM     20  C   LIG    1       -3.034  -2.226  -3.088  0.00  0.00    +0.220 C 
BRANCH  20  21
ATOM     21  O   LIG    1       -3.379  -1.960  -4.449  0.00  0.00    -0.570 OA
ATOM     22  H   LIG    1       -3.806  -2.702  -4.899  0.00  0.00    +0.410 HD
ENDBRANCH  20  21
ENDBRANCH  18  20
ENDBRANCH  13  14
ENDBRANCH   7  13
TORSDOF 6
