REMARK  Name = ZINCpe00000MJIUe.0
REMARK                            x       y       z     vdW  Elec       q    Type
REMARK                         _______ _______ _______ _____ _____    ______ ____
ROOT
ATOM      1  N   LIG    1        2.151   1.453   1.124  0.00  0.00    -0.580 N 
ATOM      2  C   LIG    1        1.618   2.023  -0.121  0.00  0.00    +0.290 C 
ATOM      3  C   LIG    1        0.131   1.672  -0.227  0.00  0.00    +0.020 C 
ATOM      4  C   LIG    1       -0.040   0.156  -0.107  0.00  0.00    +0.030 C 
ATOM      5  C   LIG    1        0.470  -0.310   1.259  0.00  0.00    +0.070 C 
ATOM      6  C   LIG    1        1.961   0.019   1.382  0.00  0.00    +0.300 C 
ENDROOT
BRANCH   1  13
ATOM      7  C   LIG    1        3.777   5.703   2.822  0.00  0.00    +0.210 A 
ATOM      8  N   LIG    1        4.475   5.934   3.907  0.00  0.00    -0.260 NA
ATOM      9  N   LIG    1        4.707   4.831   4.529  0.00  0.00    -0.250 NA
ATOM     10  C   LIG    1        4.158   3.829   3.859  0.00  0.00    +0.110 A 
ATOM     11  C   LIG    1        4.095   2.438   4.066  0.00  0.00    +0.190 A 
ATOM     12  C   LIG    1        3.434   1.664   3.164  0.00  0.00    -0.030 A 
ATOM     13  C   LIG    1        2.824   2.254   2.040  0.00  0.00    +0.420 A 
ATOM     14  N   LIG    1        2.887   3.550   1.843  0.00  0.00    -0.340 NA
ATOM     15  N   LIG    1        3.553   4.374   2.754  0.00  0.00    -0.270 N 
BRANCH   7  17
ATOM     16  C   LIG    1        4.369   6.921   0.745  0.00  0.00    +0.030 C 
ATOM     17  C   LIG    1        3.307   6.736   1.831  0.00  0.00    +0.160 C 
ENDBRANCH   7  17
ENDBRANCH   1  13
BRANCH   5  18
ATOM     18  C   LIG    1        0.270  -1.798   1.389  0.00  0.00    +0.030 A 
ATOM     19  N   LIG    1       -0.035  -2.441   2.487  0.00  0.00    -0.260 NA
ATOM     20  N   LIG    1       -0.135  -3.703   2.268  0.00  0.00    -0.380 N 
ATOM     21  H   LIG    1       -0.353  -4.371   2.936  0.00  0.00    +0.450 HD
ATOM     22  C   LIG    1        0.113  -3.960   0.949  0.00  0.00    -0.040 A 
ATOM     23  C   LIG    1        0.372  -2.735   0.359  0.00  0.00    +0.030 A 
BRANCH  22  24
ATOM     24  C   LIG    1        0.100  -5.274   0.288  0.00  0.00    +0.600 C 
ATOM     25  O   LIG    1        0.341  -5.359  -0.901  0.00  0.00    -0.520 OA
ATOM     26  N   LIG    1       -0.179  -6.384   1.000  0.00  0.00    -0.850 N 
ATOM     27  H   LIG    1       -0.188  -7.251   0.564  0.00  0.00    +0.410 HD
ATOM     28  H   LIG    1       -0.371  -6.316   1.948  0.00  0.00    +0.400 HD
ENDBRANCH  22  24
ENDBRANCH   5  18
TORSDOF 4
