REMARK  Name = ZINCpe000000WG37.0
REMARK                            x       y       z     vdW  Elec       q    Type
REMARK                         _______ _______ _______ _____ _____    ______ ____
ROOT
ATOM      1  C   LIG    1       -1.388  -0.527   0.259  0.00  0.00    +0.520 C 
ATOM      2  N   LIG    1       -1.612  -1.855   0.297  0.00  0.00    -0.620 N 
ATOM      3  C   LIG    1       -0.524  -2.820   0.085  0.00  0.00    +0.310 C 
ATOM      4  C   LIG    1       -1.004  -3.921  -0.813  0.00  0.00    -0.050 C 
ATOM      5  C   LIG    1       -2.261  -4.086  -1.145  0.00  0.00    -0.070 C 
ATOM      6  C   LIG    1       -3.381  -3.198  -0.689  0.00  0.00    +0.070 C 
ATOM      7  C   LIG    1       -2.958  -2.398   0.546  0.00  0.00    +0.280 C 
ATOM      8  O   LIG    1       -2.305   0.248   0.432  0.00  0.00    -0.520 OA
ENDROOT
BRANCH   5   9
ATOM      9  C   LIG    1       -2.598  -5.222  -2.029  0.00  0.00    -0.060 A 
ATOM     10  C   LIG    1       -3.107  -4.989  -3.307  0.00  0.00    +0.010 A 
ATOM     11  C   LIG    1       -3.415  -6.053  -4.128  0.00  0.00    +0.000 A 
ATOM     12  C   LIG    1       -3.231  -7.350  -3.683  0.00  0.00    +0.000 A 
ATOM     13  C   LIG    1       -2.732  -7.588  -2.415  0.00  0.00    +0.000 A 
ATOM     14  C   LIG    1       -2.415  -6.532  -1.586  0.00  0.00    +0.010 A 
ENDBRANCH   5   9
BRANCH   1  15
ATOM     15  C   LIG    1        0.002  -0.004   0.002  0.00  0.00    +0.210 C 
BRANCH  15  19
ATOM     16  N   LIG    1        0.385   4.093  -0.824  0.00  0.00    -1.000 NA
ATOM     17  C   LIG    1        1.287   3.529   0.191  0.00  0.00    +0.310 C 
ATOM     18  C   LIG    1        1.346   2.010   0.000  0.00  0.00    +0.170 C 
ATOM     19  N   LIG    1       -0.018   1.465   0.010  0.00  0.00    -0.520 NA
ATOM     20  C   LIG    1       -0.809   1.987  -1.113  0.00  0.00    +0.180 C 
ATOM     21  C   LIG    1       -0.956   3.505  -0.967  0.00  0.00    +0.310 C 
BRANCH  16  23
ATOM     22  C   LIG    1        1.621   4.566  -3.228  0.00  0.00    -0.280 C 
ATOM     23  S   LIG    1        0.865   5.356  -1.781  0.00  0.00    +2.610 S 
ATOM     24  O   LIG    1        1.851   6.026  -1.008  0.00  0.00    -0.950 OA
ATOM     25  O   LIG    1       -0.347   6.003  -2.142  0.00  0.00    -0.950 OA
ENDBRANCH  16  23
ENDBRANCH  15  19
ENDBRANCH   1  15
TORSDOF 4
