REMARK  Name = ZINCpk00000kGY1u.0
REMARK                            x       y       z     vdW  Elec       q    Type
REMARK                         _______ _______ _______ _____ _____    ______ ____
ROOT
ATOM      1  C   LIG    1        1.838   3.044   0.001  0.00  0.00    +0.430 A 
ATOM      2  C   LIG    1        1.256   1.766  -0.000  0.00  0.00    -0.070 A 
ATOM      3  N   LIG    1       -0.016   1.297   0.009  0.00  0.00    -0.450 NA
ATOM      4  C   LIG    1        0.002  -0.004   0.002  0.00  0.00    +0.480 A 
ATOM      5  N   LIG    1        1.289  -0.452  -0.013  0.00  0.00    -0.460 N 
ATOM      6  C   LIG    1        2.108   0.648  -0.015  0.00  0.00    +0.300 A 
ATOM      7  N   LIG    1        3.423   0.840  -0.026  0.00  0.00    -0.530 NA
ATOM      8  C   LIG    1        3.924   2.057  -0.025  0.00  0.00    +0.560 A 
ATOM      9  N   LIG    1        3.163   3.137  -0.012  0.00  0.00    -0.570 NA
ENDROOT
BRANCH   1  10
ATOM     10  N   LIG    1        1.049   4.181   0.014  0.00  0.00    -0.460 N 
ATOM     11  C   LIG    1        0.130   4.171   1.160  0.00  0.00    +0.250 C 
BRANCH  10  12
ATOM     12  C   LIG    1        1.876   5.396   0.012  0.00  0.00    +0.270 C 
BRANCH  12  16
ATOM     13  C   LIG    1       -0.305   8.625  -3.127  0.00  0.00    +0.100 C 
ATOM     14  C   LIG    1       -0.044   8.145  -1.723  0.00  0.00    -0.120 A 
ATOM     15  C   LIG    1        0.763   7.044  -1.508  0.00  0.00    +0.060 A 
ATOM     16  C   LIG    1        0.999   6.599  -0.221  0.00  0.00    -0.090 A 
ATOM     17  C   LIG    1        0.437   7.262   0.854  0.00  0.00    +0.040 A 
ATOM     18  C   LIG    1       -0.366   8.367   0.642  0.00  0.00    -0.010 A 
ATOM     19  C   LIG    1       -0.608   8.809  -0.647  0.00  0.00    +0.100 A 
ATOM     20  F   LIG    1       -1.393   9.889  -0.855  0.00  0.00    -0.140 F 
ENDBRANCH  12  16
ENDBRANCH  10  12
ENDBRANCH   1  10
BRANCH   5  21
ATOM     21  C   LIG    1        1.720  -1.853  -0.025  0.00  0.00    +0.260 C 
BRANCH  21  22
ATOM     22  C   LIG    1        1.168  -2.545  -1.273  0.00  0.00    +0.200 C 
BRANCH  22  23
ATOM     23  O   LIG    1        1.751  -1.960  -2.439  0.00  0.00    -0.570 OA
ATOM     24  H   LIG    1        1.446  -2.350  -3.269  0.00  0.00    +0.390 HD
ENDBRANCH  22  23
ENDBRANCH  21  22
BRANCH  21  25
ATOM     25  C   LIG    1        1.192  -2.559   1.225  0.00  0.00    +0.190 C 
BRANCH  25  26
ATOM     26  O   LIG    1        1.707  -3.891   1.273  0.00  0.00    -0.560 OA
ATOM     27  H   LIG    1        1.413  -4.400   2.041  0.00  0.00    +0.390 HD
ENDBRANCH  25  26
ENDBRANCH  21  25
ENDBRANCH   5  21
TORSDOF 8
