REMARK  Name = ZINCrg00000SjSsp.0
REMARK                            x       y       z     vdW  Elec       q    Type
REMARK                         _______ _______ _______ _____ _____    ______ ____
ROOT
ATOM      1  N   LIG    1       -0.734   1.484  -1.128  0.00  0.00    -0.610 N 
ATOM      2  C   LIG    1       -1.037   2.779  -1.347  0.00  0.00    +0.720 C 
ATOM      3  N   LIG    1       -1.794   3.123  -2.407  0.00  0.00    -0.650 N 
ATOM      4  H   LIG    1       -2.121   2.440  -3.012  0.00  0.00    +0.410 HD
ATOM      5  O   LIG    1       -0.627   3.636  -0.588  0.00  0.00    -0.570 OA
ENDROOT
BRANCH   1   6
ATOM      6  C   LIG    1       -0.010   1.097   0.086  0.00  0.00    +0.270 C 
ATOM      7  C   LIG    1       -0.895   0.198   0.980  0.00  0.00    +0.060 C 
ATOM      8  C   LIG    1       -0.468  -1.216   0.527  0.00  0.00    +0.270 C 
ATOM      9  N   LIG    1        0.895  -1.064   0.003  0.00  0.00    -0.560 N 
ATOM     10  C   LIG    1        1.177   0.224  -0.258  0.00  0.00    +0.510 C 
ATOM     11  O   LIG    1        2.230   0.628  -0.705  0.00  0.00    -0.490 OA
BRANCH   9  12
ATOM     12  C   LIG    1        1.786  -2.124  -0.197  0.00  0.00    +0.160 A 
ATOM     13  C   LIG    1        3.094  -1.869  -0.589  0.00  0.00    -0.010 A 
ATOM     14  C   LIG    1        3.973  -2.917  -0.781  0.00  0.00    +0.040 A 
ATOM     15  C   LIG    1        3.549  -4.219  -0.594  0.00  0.00    -0.020 A 
ATOM     16  C   LIG    1        2.246  -4.477  -0.209  0.00  0.00    +0.040 A 
ATOM     17  C   LIG    1        1.364  -3.433  -0.010  0.00  0.00    -0.030 A 
ENDBRANCH   9  12
ENDBRANCH   1   6
BRANCH   3  18
ATOM     18  C   LIG    1       -2.111   4.477  -2.636  0.00  0.00    +0.020 A 
ATOM     19  C   LIG    1       -2.861   4.960  -3.659  0.00  0.00    +0.190 A 
ATOM     20  N   LIG    1       -2.927   6.309  -3.517  0.00  0.00    -0.370 N 
ATOM     21  N   LIG    1       -2.197   6.658  -2.374  0.00  0.00    -0.250 NA
ATOM     22  C   LIG    1       -1.714   5.563  -1.844  0.00  0.00    +0.260 A 
BRANCH  20  23
ATOM     23  C   LIG    1       -3.637   7.236  -4.403  0.00  0.00    +0.370 C 
BRANCH  23  24
ATOM     24  C   LIG    1       -4.602   8.064  -3.595  0.00  0.00    +0.500 C 
ATOM     25  O   LIG    1       -4.689   7.897  -2.397  0.00  0.00    -0.510 OA
ATOM     26  N   LIG    1       -5.369   8.990  -4.204  0.00  0.00    -0.850 N 
ATOM     27  H   LIG    1       -5.990   9.523  -3.683  0.00  0.00    +0.410 HD
ATOM     28  H   LIG    1       -5.299   9.124  -5.162  0.00  0.00    +0.400 HD
ENDBRANCH  23  24
ENDBRANCH  20  23
ENDBRANCH   3  18
BRANCH   1  30
ATOM     29  C   LIG    1       -2.518  -0.067  -1.751  0.00  0.00    +0.020 C 
ATOM     30  C   LIG    1       -1.128   0.464  -2.103  0.00  0.00    +0.260 C 
ENDBRANCH   1  30
TORSDOF 6
