REMARK  Name = ZINCpk00000e9KGQ.0
REMARK                            x       y       z     vdW  Elec       q    Type
REMARK                         _______ _______ _______ _____ _____    ______ ____
ROOT
ATOM      1  C   LIG    1        0.048   0.445   0.418  0.00  0.00    +0.590 C 
ATOM      2  N   LIG    1       -1.083  -0.287   0.389  0.00  0.00    -0.640 N 
ATOM      3  C   LIG    1       -2.523  -0.008   0.282  0.00  0.00    +0.330 C 
ATOM      4  C   LIG    1       -2.780  -1.313   1.044  0.00  0.00    -0.480 C 
ATOM      5  C   LIG    1       -1.421  -1.717   0.457  0.00  0.00    +0.360 C 
ATOM      6  O   LIG    1        1.130  -0.108   0.458  0.00  0.00    -0.480 OA
ENDROOT
BRANCH   1  12
ATOM      7  C   LIG    1        1.129   2.695   0.586  0.00  0.00    +0.350 A 
ATOM      8  N   LIG    1        1.056   4.017   0.569  0.00  0.00    -0.510 NA
ATOM      9  C   LIG    1       -0.087   4.647   0.382  0.00  0.00    +0.300 A 
ATOM     10  C   LIG    1       -1.267   3.950   0.193  0.00  0.00    -0.030 A 
ATOM     11  C   LIG    1       -1.250   2.567   0.195  0.00  0.00    +0.090 A 
ATOM     12  C   LIG    1       -0.027   1.918   0.401  0.00  0.00    -0.160 A 
BRANCH   7  14
ATOM     13  C   LIG    1        3.340   2.536  -0.197  0.00  0.00    +0.220 C 
ATOM     14  N   LIG    1        2.349   2.076   0.786  0.00  0.00    -0.480 N 
ATOM     15  C   LIG    1        2.830   2.291   2.157  0.00  0.00    +0.220 C 
ENDBRANCH   7  14
ENDBRANCH   1  12
BRANCH   4  16
ATOM     16  S   LIG    1       -4.179  -2.282   0.417  0.00  0.00    +2.620 S 
ATOM     17  O   LIG    1       -4.177  -3.585   0.983  0.00  0.00    -0.930 OA
ATOM     18  O   LIG    1       -4.329  -2.091  -0.983  0.00  0.00    -0.940 OA
BRANCH  16  19
ATOM     19  N   LIG    1       -5.514  -1.554   1.073  0.00  0.00    -1.050 N 
ATOM     20  H   LIG    1       -6.168  -1.130   0.496  0.00  0.00    +0.430 HD
BRANCH  19  21
ATOM     21  C   LIG    1       -5.697  -1.549   2.458  0.00  0.00    +0.130 A 
ATOM     22  C   LIG    1       -5.511  -2.716   3.189  0.00  0.00    +0.010 A 
ATOM     23  C   LIG    1       -5.688  -2.707   4.558  0.00  0.00    +0.030 A 
ATOM     24  C   LIG    1       -6.060  -1.541   5.201  0.00  0.00    +0.010 A 
ATOM     25  C   LIG    1       -6.251  -0.379   4.476  0.00  0.00    +0.030 A 
ATOM     26  C   LIG    1       -6.071  -0.379   3.107  0.00  0.00    +0.000 A 
ENDBRANCH  19  21
ENDBRANCH  16  19
ENDBRANCH   4  16
TORSDOF 5
