REMARK  Name = ZINCrD000000Cq8K.0
REMARK                            x       y       z     vdW  Elec       q    Type
REMARK                         _______ _______ _______ _____ _____    ______ ____
ROOT
ATOM      1  O   LIG    1        0.002  -0.004  -0.013  0.00  0.00    -0.510 OA
ATOM      2  C   LIG    1       -0.014   1.211   0.009  0.00  0.00    +0.510 C 
ENDROOT
BRANCH   2   3
ATOM      3  C   LIG    1        1.252   1.966   0.001  0.00  0.00    -0.160 A 
ATOM      4  C   LIG    1        1.236   3.363   0.020  0.00  0.00    +0.110 A 
ATOM      5  C   LIG    1        2.420   4.064   0.018  0.00  0.00    -0.010 A 
ATOM      6  C   LIG    1        3.633   3.384  -0.014  0.00  0.00    +0.210 A 
ATOM      7  C   LIG    1        3.654   1.992  -0.039  0.00  0.00    -0.030 A 
ATOM      8  C   LIG    1        2.473   1.285  -0.032  0.00  0.00    +0.120 A 
BRANCH   6   9
ATOM      9  N   LIG    1        4.831   4.097  -0.022  0.00  0.00    -0.560 N 
ATOM     10  C   LIG    1        6.161   3.483   0.068  0.00  0.00    +0.270 C 
ATOM     11  C   LIG    1        7.119   4.630   0.459  0.00  0.00    +0.060 C 
ATOM     12  C   LIG    1        6.365   5.868  -0.081  0.00  0.00    +0.070 C 
ATOM     13  C   LIG    1        4.916   5.435  -0.118  0.00  0.00    +0.520 C 
ATOM     14  O   LIG    1        3.969   6.186  -0.217  0.00  0.00    -0.500 OA
ENDBRANCH   6   9
ENDBRANCH   2   3
BRANCH   2  15
ATOM     15  O   LIG    1       -1.190   1.869   0.035  0.00  0.00    -0.350 OA
BRANCH  15  16
ATOM     16  C   LIG    1       -2.397   1.061   0.035  0.00  0.00    +0.270 C 
BRANCH  16  17
ATOM     17  C   LIG    1       -3.604   1.963   0.065  0.00  0.00    -0.110 A 
ATOM     18  C   LIG    1       -4.146   2.350   1.277  0.00  0.00    +0.080 A 
ATOM     19  C   LIG    1       -5.249   3.180   1.309  0.00  0.00    -0.010 A 
ATOM     20  C   LIG    1       -5.821   3.618   0.121  0.00  0.00    +0.170 A 
ATOM     21  C   LIG    1       -5.278   3.223  -1.094  0.00  0.00    +0.020 A 
ATOM     22  C   LIG    1       -4.172   2.397  -1.119  0.00  0.00    +0.070 A 
BRANCH  20  23
ATOM     23  N   LIG    1       -6.944   4.456   0.150  0.00  0.00    -0.330 N 
ATOM     24  C   LIG    1       -7.572   4.909   1.259  0.00  0.00    +0.230 A 
ATOM     25  C   LIG    1       -8.603   5.688   0.859  0.00  0.00    -0.100 A 
ATOM     26  C   LIG    1       -8.612   5.706  -0.540  0.00  0.00    +0.250 A 
ATOM     27  N   LIG    1       -7.619   4.969  -0.966  0.00  0.00    -0.290 NA
ENDBRANCH  20  23
ENDBRANCH  16  17
ENDBRANCH  15  16
ENDBRANCH   2  15
TORSDOF 6
