REMARK  Name = ZINCrH000004oTnO.0
REMARK                            x       y       z     vdW  Elec       q    Type
REMARK                         _______ _______ _______ _____ _____    ______ ____
ROOT
ATOM      1  C   LIG    1        1.957   5.693   0.956  0.00  0.00    +0.570 C 
ATOM      2  N   LIG    1        3.045   6.483   1.050  0.00  0.00    -0.610 N 
ATOM      3  C   LIG    1        4.356   6.024   0.566  0.00  0.00    +0.290 C 
ATOM      4  C   LIG    1        4.797   6.911  -0.603  0.00  0.00    +0.100 C 
ATOM      5  C   LIG    1        4.561   8.358  -0.239  0.00  0.00    +0.080 A 
ATOM      6  C   LIG    1        3.742   8.765   0.754  0.00  0.00    -0.180 A 
ATOM      7  C   LIG    1        3.783  10.211   0.780  0.00  0.00    -0.090 A 
ATOM      8  C   LIG    1        3.147  11.165   1.579  0.00  0.00    +0.060 A 
ATOM      9  C   LIG    1        3.428  12.483   1.315  0.00  0.00    -0.030 A 
ATOM     10  C   LIG    1        4.298  12.863   0.308  0.00  0.00    +0.020 A 
ATOM     11  C   LIG    1        4.942  11.940  -0.499  0.00  0.00    +0.000 A 
ATOM     12  C   LIG    1        4.676  10.594  -0.255  0.00  0.00    +0.100 A 
ATOM     13  N   LIG    1        5.127   9.450  -0.846  0.00  0.00    -0.580 N 
ATOM     14  H   LIG    1        5.755   9.414  -1.585  0.00  0.00    +0.420 HD
ATOM     15  C   LIG    1        2.954   7.832   1.635  0.00  0.00    +0.370 C 
ATOM     16  O   LIG    1        0.868   6.115   1.296  0.00  0.00    -0.520 OA
ENDROOT
BRANCH   1  23
ATOM     17  C   LIG    1        3.954  -0.701   1.035  0.00  0.00    +0.090 C 
ATOM     18  C   LIG    1        2.574  -0.875   0.399  0.00  0.00    +0.050 C 
ATOM     19  S   LIG    1        2.489   0.087  -1.141  0.00  0.00    -0.070 S 
ATOM     20  C   LIG    1        2.332   1.735  -0.529  0.00  0.00    -0.110 A 
ATOM     21  C   LIG    1        2.851   2.799  -1.255  0.00  0.00    +0.090 A 
ATOM     22  C   LIG    1        2.731   4.086  -0.777  0.00  0.00    +0.040 A 
ATOM     23  C   LIG    1        2.086   4.317   0.441  0.00  0.00    -0.090 A 
ATOM     24  C   LIG    1        1.563   3.247   1.171  0.00  0.00    +0.050 A 
ATOM     25  C   LIG    1        1.681   1.953   0.690  0.00  0.00    +0.160 A 
ATOM     26  N   LIG    1        1.150   0.900   1.431  0.00  0.00    -0.650 N 
ATOM     27  H   LIG    1        0.447   1.115   2.064  0.00  0.00    +0.420 HD
ATOM     28  C   LIG    1        1.517  -0.377   1.346  0.00  0.00    +0.530 C 
ATOM     29  O   LIG    1        0.970  -1.181   2.070  0.00  0.00    -0.510 OA
ENDBRANCH   1  23
TORSDOF 1
