REMARK  Name = ZINCrg000000oj2n.0
REMARK                            x       y       z     vdW  Elec       q    Type
REMARK                         _______ _______ _______ _____ _____    ______ ____
ROOT
ATOM      1  C   LIG    1       -1.995  -0.989   4.394  0.00  0.00    +0.030 A 
ATOM      2  C   LIG    1       -0.984  -0.590   3.568  0.00  0.00    +0.140 A 
ATOM      3  N   LIG    1       -0.118  -1.628   3.509  0.00  0.00    -0.270 N 
ATOM      4  N   LIG    1       -0.569  -2.578   4.250  0.00  0.00    -0.070 NA
ATOM      5  N   LIG    1       -1.683  -2.235   4.793  0.00  0.00    -0.250 NA
ENDROOT
BRANCH   1   9
ATOM      6  C   LIG    1       -5.432   1.263   5.497  0.00  0.00    +0.140 A 
ATOM      7  C   LIG    1       -5.254  -0.019   5.998  0.00  0.00    -0.010 A 
ATOM      8  C   LIG    1       -4.140  -0.752   5.642  0.00  0.00    +0.090 A 
ATOM      9  C   LIG    1       -3.194  -0.203   4.779  0.00  0.00    -0.050 A 
ATOM     10  C   LIG    1       -3.372   1.087   4.282  0.00  0.00    +0.060 A 
ATOM     11  C   LIG    1       -4.490   1.812   4.637  0.00  0.00    -0.080 A 
BRANCH   6  12
ATOM     12  O   LIG    1       -6.529   1.983   5.850  0.00  0.00    -0.310 OA
BRANCH  12  14
ATOM     13  C   LIG    1       -7.938   3.946   5.805  0.00  0.00    +0.070 C 
ATOM     14  C   LIG    1       -6.649   3.295   5.298  0.00  0.00    +0.170 C 
ENDBRANCH  12  14
ENDBRANCH   6  12
ENDBRANCH   1   9
BRANCH   3  15
ATOM     15  C   LIG    1        1.126  -1.662   2.735  0.00  0.00    +0.260 C 
ATOM     16  C   LIG    1        0.945  -2.086   1.271  0.00  0.00    +0.320 C 
ATOM     17  N   LIG    1        0.690  -0.674   0.948  0.00  0.00    -0.650 N 
ATOM     18  C   LIG    1        0.002  -0.004   0.002  0.00  0.00    +0.550 C 
ATOM     19  O   LIG    1       -0.600  -0.614  -0.856  0.00  0.00    -0.500 OA
ATOM     20  C   LIG    1        1.520  -0.315   2.107  0.00  0.00    +0.310 C 
BRANCH  18  21
ATOM     21  C   LIG    1       -0.018   1.503   0.010  0.00  0.00    +0.190 C 
ATOM     22  C   LIG    1       -0.737   1.997   1.269  0.00  0.00    +0.160 C 
ATOM     23  N   LIG    1       -0.822   3.465   1.233  0.00  0.00    -0.540 NA
ATOM     24  C   LIG    1       -1.540   3.916   0.033  0.00  0.00    +0.160 C 
ATOM     25  C   LIG    1       -0.813   3.402  -1.213  0.00  0.00    +0.240 C 
ATOM     26  C   LIG    1       -1.455   3.985   2.452  0.00  0.00    +0.200 C 
ATOM     27  O   LIG    1       -0.712   1.977  -1.147  0.00  0.00    -0.350 OA
ENDBRANCH  18  21
ENDBRANCH   3  15
TORSDOF 5
