REMARK  Name = ZINCpe000000Z8SN.0
REMARK                            x       y       z     vdW  Elec       q    Type
REMARK                         _______ _______ _______ _____ _____    ______ ____
ROOT
ATOM      1  C   LIG    1       -3.644  -0.766   0.035  0.00  0.00    +0.570 C 
ATOM      2  N   LIG    1       -4.826  -0.118   0.050  0.00  0.00    -0.690 N 
ATOM      3  H   LIG    1       -4.847   0.852   0.055  0.00  0.00    +0.420 HD
ATOM      4  O   LIG    1       -3.617  -1.980   0.029  0.00  0.00    -0.510 OA
ENDROOT
BRANCH   1   8
ATOM      5  O   LIG    1       -1.405   3.294   0.040  0.00  0.00    -0.470 OA
ATOM      6  C   LIG    1       -1.327   2.078   0.032  0.00  0.00    +0.530 A 
ATOM      7  N   LIG    1       -2.436   1.313   0.033  0.00  0.00    -0.570 NA
ATOM      8  C   LIG    1       -2.371   0.007   0.026  0.00  0.00    +0.430 A 
ATOM      9  N   LIG    1       -1.200  -0.677   0.010  0.00  0.00    -0.600 N 
ATOM     10  H   LIG    1       -1.210  -1.647   0.005  0.00  0.00    +0.430 HD
ATOM     11  C   LIG    1        0.002  -0.004   0.002  0.00  0.00    +0.180 A 
ATOM     12  C   LIG    1        1.219  -0.674  -0.013  0.00  0.00    -0.020 A 
ATOM     13  C   LIG    1        2.394   0.046  -0.021  0.00  0.00    +0.090 A 
ATOM     14  C   LIG    1        2.376   1.434  -0.013  0.00  0.00    +0.000 A 
ATOM     15  C   LIG    1        1.180   2.117   0.002  0.00  0.00    +0.130 A 
ATOM     16  C   LIG    1       -0.017   1.404   0.010  0.00  0.00    -0.210 A 
ENDBRANCH   1   8
BRANCH   2  17
ATOM     17  C   LIG    1       -6.078  -0.879   0.059  0.00  0.00    +0.290 C 
BRANCH  17  18
ATOM     18  C   LIG    1       -7.262   0.089   0.076  0.00  0.00    +0.160 C 
BRANCH  18  19
ATOM     19  C   LIG    1       -8.550  -0.693   0.085  0.00  0.00    +0.180 A 
ATOM     20  N   LIG    1       -9.229  -1.086  -0.962  0.00  0.00    -0.280 NA
ATOM     21  N   LIG    1      -10.277  -1.734  -0.584  0.00  0.00    -0.290 NA
ATOM     22  C   LIG    1      -10.316  -1.774   0.713  0.00  0.00    +0.180 A 
ATOM     23  C   LIG    1      -11.351  -2.417   1.602  0.00  0.00    +0.160 C 
ATOM     24  C   LIG    1      -10.759  -2.541   3.013  0.00  0.00    +0.030 C 
ATOM     25  C   LIG    1      -10.147  -1.199   3.425  0.00  0.00    +0.040 C 
ATOM     26  C   LIG    1       -8.893  -0.926   2.586  0.00  0.00    +0.290 C 
ATOM     27  N   LIG    1       -9.223  -1.114   1.173  0.00  0.00    -0.470 N 
ENDBRANCH  18  19
ENDBRANCH  17  18
ENDBRANCH   2  17
TORSDOF 4
