REMARK  Name = ZINCpk00000ebhSG.1
REMARK                            x       y       z     vdW  Elec       q    Type
REMARK                         _______ _______ _______ _____ _____    ______ ____
ROOT
ATOM      1  C   LIG    1       -0.128   2.195  -0.445  0.00  0.00    +0.550 C 
ATOM      2  N   LIG    1       -1.349   2.755  -0.338  0.00  0.00    -0.660 N 
ATOM      3  H   LIG    1       -2.137   2.193  -0.282  0.00  0.00    +0.410 HD
ATOM      4  O   LIG    1        0.863   2.894  -0.436  0.00  0.00    -0.480 OA
ENDROOT
BRANCH   2   5
ATOM      5  C   LIG    1       -1.478   4.127  -0.309  0.00  0.00    +0.390 A 
ATOM      6  C   LIG    1       -1.355   4.920   0.792  0.00  0.00    -0.090 A 
ATOM      7  C   LIG    1       -1.557   6.253   0.395  0.00  0.00    +0.540 A 
ATOM      8  N   LIG    1       -1.799   6.259  -0.931  0.00  0.00    -0.510 N 
ATOM      9  H   LIG    1       -1.975   7.042  -1.476  0.00  0.00    +0.440 HD
ATOM     10  O   LIG    1       -1.520   7.231   1.121  0.00  0.00    -0.530 OA
ATOM     11  N   LIG    1       -1.746   4.935  -1.386  0.00  0.00    -0.340 N 
BRANCH  11  12
ATOM     12  C   LIG    1       -1.937   4.510  -2.704  0.00  0.00    +0.170 A 
ATOM     13  C   LIG    1       -2.034   3.155  -2.992  0.00  0.00    -0.030 A 
ATOM     14  C   LIG    1       -2.229   2.739  -4.294  0.00  0.00    +0.050 A 
ATOM     15  C   LIG    1       -2.315   3.670  -5.314  0.00  0.00    -0.010 A 
ATOM     16  C   LIG    1       -2.213   5.019  -5.032  0.00  0.00    +0.050 A 
ATOM     17  C   LIG    1       -2.024   5.442  -3.730  0.00  0.00    -0.030 A 
ENDBRANCH  11  12
ENDBRANCH   2   5
BRANCH   1  21
ATOM     18  C   LIG    1        0.235  -0.022   0.757  0.00  0.00    +0.110 C 
ATOM     19  C   LIG    1        1.740   0.188   0.523  0.00  0.00    +0.070 C 
ATOM     20  C   LIG    1        1.419   0.242  -0.980  0.00  0.00    +0.070 C 
ATOM     21  C   LIG    1        0.006   0.700  -0.581  0.00  0.00    -0.010 C 
BRANCH  18  27
ATOM     22  C   LIG    1       -1.873  -1.038   2.836  0.00  0.00    +0.340 C 
ATOM     23  N   LIG    1       -1.217   0.272   2.838  0.00  0.00    -0.470 N 
ATOM     24  C   LIG    1       -1.399   1.273   3.733  0.00  0.00    +0.370 A 
ATOM     25  N   LIG    1       -0.631   2.264   3.370  0.00  0.00    -0.290 NA
ATOM     26  N   LIG    1        0.020   1.940   2.309  0.00  0.00    -0.270 NA
ATOM     27  C   LIG    1       -0.303   0.728   1.948  0.00  0.00    +0.160 A 
ENDBRANCH  18  27
ENDBRANCH   1  21
TORSDOF 4
