REMARK  Name = ZINCBu0000000fS9.1
REMARK                            x       y       z     vdW  Elec       q    Type
REMARK                         _______ _______ _______ _____ _____    ______ ____
ROOT
ATOM      1  C   LIG    1        2.572   5.382   0.121  0.00  0.00    +0.680 C 
ATOM      2  N   LIG    1        2.549   4.054   0.062  0.00  0.00    -0.610 NA
ATOM      3  C   LIG    1        1.387   3.409   0.061  0.00  0.00    +0.630 C 
ATOM      4  N   LIG    1        0.247   4.092   0.113  0.00  0.00    -0.570 NA
ATOM      5  C   LIG    1        0.271   5.420   0.177  0.00  0.00    +0.630 C 
ATOM      6  H   LIG    1        3.380   3.556   0.020  0.00  0.00    +0.440 HD
ATOM      7  N   LIG    1        1.433   6.065   0.178  0.00  0.00    -0.600 NA
ENDROOT
BRANCH   5   8
ATOM      8  N   LIG    1       -0.912   6.129   0.237  0.00  0.00    -0.420 NA
ATOM      9  C   LIG    1       -1.698   5.752   1.441  0.00  0.00    +0.230 C 
ATOM     10  C   LIG    1       -2.651   6.948   1.674  0.00  0.00    +0.080 C 
ATOM     11  C   LIG    1       -1.956   8.137   0.998  0.00  0.00    -0.020 C 
ATOM     12  C   LIG    1       -2.840   8.754  -0.085  0.00  0.00    +0.280 C 
ATOM     13  N   LIG    1       -3.017  10.152   0.326  0.00  0.00    -0.750 N 
ATOM     14  H   LIG    1       -3.533  10.814  -0.160  0.00  0.00    +0.420 HD
ATOM     15  C   LIG    1       -2.333  10.388   1.522  0.00  0.00    +0.210 A 
ATOM     16  C   LIG    1       -2.232  11.566   2.264  0.00  0.00    -0.060 A 
ATOM     17  C   LIG    1       -1.501  11.591   3.433  0.00  0.00    +0.070 A 
ATOM     18  C   LIG    1       -0.862  10.449   3.878  0.00  0.00    -0.050 A 
ATOM     19  C   LIG    1       -0.956   9.278   3.149  0.00  0.00    +0.050 A 
ATOM     20  C   LIG    1       -1.687   9.246   1.976  0.00  0.00    -0.180 A 
ATOM     21  C   LIG    1       -0.653   7.584   0.405  0.00  0.00    +0.260 C 
ENDBRANCH   5   8
BRANCH   3  22
ATOM     22  N   LIG    1        1.362   2.030   0.000  0.00  0.00    -0.460 NA
ATOM     23  C   LIG    1        2.086   1.543  -1.183  0.00  0.00    +0.200 C 
ATOM     24  C   LIG    1        2.086   0.012  -1.180  0.00  0.00    +0.270 C 
ATOM     25  O   LIG    1        0.736  -0.460  -1.138  0.00  0.00    -0.360 OA
ATOM     26  C   LIG    1        0.002  -0.004   0.002  0.00  0.00    +0.220 C 
ATOM     27  C   LIG    1       -0.019   1.527   0.010  0.00  0.00    +0.250 C 
BRANCH  26  28
ATOM     28  C   LIG    1       -1.410  -0.526  -0.067  0.00  0.00    -0.050 A 
ATOM     29  C   LIG    1       -2.040  -0.655  -1.291  0.00  0.00    +0.030 A 
ATOM     30  C   LIG    1       -3.334  -1.138  -1.354  0.00  0.00    +0.130 A 
ATOM     31  C   LIG    1       -4.000  -1.484  -0.194  0.00  0.00    -0.650 A 
ATOM     32  C   LIG    1       -3.372  -1.349   1.030  0.00  0.00    +0.130 A 
ATOM     33  C   LIG    1       -2.077  -0.871   1.094  0.00  0.00    +0.020 A 
BRANCH  31  34
ATOM     34  S   LIG    1       -5.651  -2.094  -0.274  0.00  0.00    +2.500 S 
ATOM     35  O   LIG    1       -5.788  -2.889   0.895  0.00  0.00    -0.930 OA
ATOM     36  O   LIG    1       -5.748  -2.672  -1.569  0.00  0.00    -0.930 OA
ATOM     37  C   LIG    1       -6.689  -0.610  -0.160  0.00  0.00    -0.250 C 
ENDBRANCH  31  34
ENDBRANCH  26  28
ENDBRANCH   3  22
BRANCH   1  39
ATOM     38  C   LIG    1        5.035   5.299   0.059  0.00  0.00    +0.340 C 
ATOM     39  N   LIG    1        3.779   6.051   0.122  0.00  0.00    -0.650 NA
ATOM     40  H   LIG    1        3.796   7.020   0.165  0.00  0.00    +0.450 HD
ENDBRANCH   1  39
TORSDOF 5
