REMARK  Name = ZINCBu0000000fS9.0
REMARK                            x       y       z     vdW  Elec       q    Type
REMARK                         _______ _______ _______ _____ _____    ______ ____
ROOT
ATOM      1  C   LIG    1        5.291   7.558  -2.549  0.00  0.00    +0.660 C 
ATOM      2  N   LIG    1        4.637   8.588  -3.076  0.00  0.00    -0.530 NA
ATOM      3  C   LIG    1        3.342   8.753  -2.823  0.00  0.00    +0.650 C 
ATOM      4  N   LIG    1        2.702   7.887  -2.043  0.00  0.00    -0.530 NA
ATOM      5  C   LIG    1        3.357   6.857  -1.516  0.00  0.00    +0.640 C 
ATOM      6  N   LIG    1        4.652   6.695  -1.765  0.00  0.00    -0.620 NA
ATOM      7  H   LIG    1        5.131   5.946  -1.378  0.00  0.00    +0.440 HD
ENDROOT
BRANCH   5   8
ATOM      8  N   LIG    1        2.692   5.958  -0.707  0.00  0.00    -0.450 NA
ATOM      9  C   LIG    1        3.298   5.914   0.650  0.00  0.00    +0.210 C 
ATOM     10  C   LIG    1        2.859   4.549   1.229  0.00  0.00    +0.090 C 
ATOM     11  C   LIG    1        2.567   3.680   0.000  0.00  0.00    -0.020 C 
ATOM     12  C   LIG    1        3.446   2.430  -0.018  0.00  0.00    +0.280 C 
ATOM     13  N   LIG    1        2.501   1.307  -0.015  0.00  0.00    -0.750 N 
ATOM     14  H   LIG    1        2.750   0.369  -0.024  0.00  0.00    +0.420 HD
ATOM     15  C   LIG    1        1.189   1.786   0.000  0.00  0.00    +0.200 A 
ATOM     16  C   LIG    1       -0.013   1.076   0.008  0.00  0.00    -0.060 A 
ATOM     17  C   LIG    1       -1.218   1.745   0.017  0.00  0.00    +0.070 A 
ATOM     18  C   LIG    1       -1.245   3.127   0.030  0.00  0.00    -0.040 A 
ATOM     19  C   LIG    1       -0.060   3.839   0.023  0.00  0.00    +0.070 A 
ATOM     20  C   LIG    1        1.151   3.175   0.009  0.00  0.00    -0.180 A 
ATOM     21  C   LIG    1        2.837   4.569  -1.221  0.00  0.00    +0.220 C 
ENDBRANCH   5   8
BRANCH   3  22
ATOM     22  N   LIG    1        2.662   9.822  -3.369  0.00  0.00    -0.470 NA
ATOM     23  C   LIG    1        2.018  10.627  -2.321  0.00  0.00    +0.200 C 
ATOM     24  C   LIG    1        1.327  11.833  -2.964  0.00  0.00    +0.260 C 
ATOM     25  O   LIG    1        0.394  11.374  -3.946  0.00  0.00    -0.360 OA
ATOM     26  C   LIG    1        0.988  10.588  -4.982  0.00  0.00    +0.230 C 
ATOM     27  C   LIG    1        1.675   9.369  -4.359  0.00  0.00    +0.210 C 
BRANCH  26  28
ATOM     28  C   LIG    1       -0.080  10.129  -5.941  0.00  0.00    -0.040 A 
ATOM     29  C   LIG    1       -1.342   9.813  -5.471  0.00  0.00    +0.030 A 
ATOM     30  C   LIG    1       -2.323   9.396  -6.351  0.00  0.00    +0.130 A 
ATOM     31  C   LIG    1       -2.040   9.286  -7.700  0.00  0.00    -0.650 A 
ATOM     32  C   LIG    1       -0.777   9.598  -8.169  0.00  0.00    +0.130 A 
ATOM     33  C   LIG    1        0.203  10.018  -7.289  0.00  0.00    +0.020 A 
BRANCH  31  34
ATOM     34  S   LIG    1       -3.289   8.750  -8.821  0.00  0.00    +2.500 S 
ATOM     35  O   LIG    1       -2.911   9.322 -10.066  0.00  0.00    -0.930 OA
ATOM     36  O   LIG    1       -4.508   9.114  -8.188  0.00  0.00    -0.930 OA
ATOM     37  C   LIG    1       -3.110   6.946  -8.869  0.00  0.00    -0.250 C 
ENDBRANCH  31  34
ENDBRANCH  26  28
ENDBRANCH   3  22
BRANCH   1  39
ATOM     38  C   LIG    1        7.357   6.252  -2.232  0.00  0.00    +0.350 C 
ATOM     39  N   LIG    1        6.635   7.388  -2.812  0.00  0.00    -0.650 NA
ATOM     40  H   LIG    1        7.102   8.020  -3.381  0.00  0.00    +0.450 HD
ENDBRANCH   1  39
TORSDOF 5
