REMARK  Name = ZINCrg00000f5pRm.0
REMARK                            x       y       z     vdW  Elec       q    Type
REMARK                         _______ _______ _______ _____ _____    ______ ____
ROOT
ATOM      1  C   LIG    1       -1.846   0.835   1.766  0.00  0.00    +0.200 C 
ATOM      2  C   LIG    1       -2.459   1.374   3.061  0.00  0.00    +0.070 C 
ATOM      3  C   LIG    1       -3.202   1.540   1.735  0.00  0.00    -0.130 C 
ATOM      4  C   LIG    1       -4.447   0.679   1.505  0.00  0.00    +0.050 C 
ATOM      5  C   LIG    1       -5.675   1.438   2.023  0.00  0.00    +0.270 C 
ATOM      6  N   LIG    1       -5.676   2.787   1.443  0.00  0.00    -0.600 N 
ATOM      7  C   LIG    1       -4.512   3.658   1.650  0.00  0.00    +0.280 C 
ATOM      8  C   LIG    1       -6.734   3.221   0.730  0.00  0.00    +0.500 C 
ATOM      9  O   LIG    1       -6.729   4.337   0.255  0.00  0.00    -0.520 OA
ATOM     10  C   LIG    1       -3.261   2.944   1.125  0.00  0.00    +0.050 C 
ENDROOT
BRANCH   1  13
ATOM     11  C   LIG    1        0.833   3.498   1.157  0.00  0.00    +0.090 C 
ATOM     12  C   LIG    1       -0.262   2.686   1.800  0.00  0.00    +0.520 C 
ATOM     13  N   LIG    1       -0.697   1.555   1.212  0.00  0.00    -0.580 N 
ATOM     14  O   LIG    1       -0.751   3.051   2.849  0.00  0.00    -0.530 OA
BRANCH  13  15
ATOM     15  C   LIG    1       -0.020   1.044   0.017  0.00  0.00    +0.360 C 
BRANCH  15  16
ATOM     16  C   LIG    1       -0.734   1.539  -1.215  0.00  0.00    -0.120 A 
ATOM     17  C   LIG    1       -0.414   2.685  -1.817  0.00  0.00    -0.050 A 
ATOM     18  S   LIG    1       -1.457   2.929  -3.212  0.00  0.00    +0.110 S 
ATOM     19  C   LIG    1       -2.293   1.416  -2.889  0.00  0.00    -0.050 A 
ATOM     20  C   LIG    1       -1.767   0.836  -1.810  0.00  0.00    +0.020 A 
ENDBRANCH  15  16
ENDBRANCH  13  15
ENDBRANCH   1  13
BRANCH   8  21
ATOM     21  C   LIG    1       -7.925   2.321   0.523  0.00  0.00    +0.370 C 
BRANCH  21  22
ATOM     22  N   LIG    1       -8.932   3.019  -0.278  0.00  0.00    -0.540 N 
ATOM     23  C   LIG    1       -9.953   3.797   0.213  0.00  0.00    +0.500 A 
ATOM     24  N   LIG    1      -10.643   4.256  -0.781  0.00  0.00    -0.280 NA
ATOM     25  N   LIG    1      -10.079   3.767  -1.967  0.00  0.00    -0.550 N 
ATOM     26  H   LIG    1      -10.391   3.945  -2.868  0.00  0.00    +0.460 HD
ATOM     27  C   LIG    1       -9.020   3.004  -1.623  0.00  0.00    +0.660 A 
ATOM     28  O   LIG    1       -8.280   2.411  -2.388  0.00  0.00    -0.550 OA
ENDBRANCH  21  22
ENDBRANCH   8  21
TORSDOF 5
