REMARK  Name = ZINCpk00000xIhHK.0
REMARK                            x       y       z     vdW  Elec       q    Type
REMARK                         _______ _______ _______ _____ _____    ______ ____
ROOT
ATOM      1  C   LIG    1       -2.175   4.845   0.039  0.00  0.00    +0.530 C 
ATOM      2  N   LIG    1       -1.987   6.179   0.045  0.00  0.00    -0.720 N 
ATOM      3  H   LIG    1       -1.087   6.542   0.043  0.00  0.00    +0.410 HD
ATOM      4  O   LIG    1       -3.300   4.391   0.041  0.00  0.00    -0.520 OA
ENDROOT
BRANCH   1   5
ATOM      5  C   LIG    1       -0.988   3.916   0.028  0.00  0.00    +0.110 C 
BRANCH   5   6
ATOM      6  S   LIG    1       -1.564   2.200   0.021  0.00  0.00    +0.090 S 
BRANCH   6  12
ATOM      7  C   LIG    1        2.294   1.457  -0.012  0.00  0.00    +0.460 A 
ATOM      8  C   LIG    1        2.367   0.070  -0.020  0.00  0.00    -0.250 A 
ATOM      9  C   LIG    1        1.178  -0.665  -0.013  0.00  0.00    +0.540 A 
ATOM     10  N   LIG    1        0.002  -0.004   0.002  0.00  0.00    -0.620 N 
ATOM     11  H   LIG    1       -0.832  -0.499   0.007  0.00  0.00    +0.420 HD
ATOM     12  C   LIG    1       -0.016   1.358   0.009  0.00  0.00    +0.390 A 
ATOM     13  O   LIG    1        1.204  -1.886  -0.020  0.00  0.00    -0.550 OA
ATOM     14  N   LIG    1        1.099   2.058   0.003  0.00  0.00    -0.580 NA
BRANCH   7  15
ATOM     15  N   LIG    1        3.450   2.211  -0.019  0.00  0.00    -0.830 N 
ATOM     16  H   LIG    1        3.397   3.180  -0.013  0.00  0.00    +0.410 HD
ATOM     17  H   LIG    1        4.315   1.773  -0.029  0.00  0.00    +0.420 HD
ENDBRANCH   7  15
ENDBRANCH   6  12
ENDBRANCH   5   6
ENDBRANCH   1   5
BRANCH   2  18
ATOM     18  C   LIG    1       -3.141   7.082   0.055  0.00  0.00    +0.270 C 
BRANCH  18  19
ATOM     19  C   LIG    1       -2.654   8.532   0.061  0.00  0.00    +0.090 C 
BRANCH  19  20
ATOM     20  C   LIG    1       -3.841   9.460   0.071  0.00  0.00    -0.100 A 
ATOM     21  C   LIG    1       -4.327   9.975  -1.115  0.00  0.00    +0.050 A 
ATOM     22  C   LIG    1       -5.416  10.826  -1.106  0.00  0.00    -0.010 A 
ATOM     23  C   LIG    1       -6.022  11.166   0.090  0.00  0.00    +0.050 A 
ATOM     24  C   LIG    1       -5.539  10.654   1.279  0.00  0.00    -0.060 A 
ATOM     25  C   LIG    1       -4.450   9.794   1.272  0.00  0.00    +0.110 A 
BRANCH  25  26
ATOM     26  O   LIG    1       -3.978   9.285   2.440  0.00  0.00    -0.320 OA
BRANCH  26  27
ATOM     27  C   LIG    1       -4.654   9.673   3.638  0.00  0.00    +0.590 C 
ATOM     28  F   LIG    1       -5.993   9.272   3.568  0.00  0.00    -0.200 F 
ATOM     29  F   LIG    1       -4.590  11.063   3.781  0.00  0.00    -0.200 F 
ENDBRANCH  26  27
ENDBRANCH  25  26
ENDBRANCH  19  20
ENDBRANCH  18  19
ENDBRANCH   2  18
TORSDOF 9
