REMARK  Name = ZINCrH000004nO5x.0
REMARK                            x       y       z     vdW  Elec       q    Type
REMARK                         _______ _______ _______ _____ _____    ______ ____
ROOT
ATOM      1  C   LIG    1        2.553   1.221  -0.613  0.00  0.00    +0.550 C 
ATOM      2  N   LIG    1        3.634   1.769  -0.023  0.00  0.00    -0.630 N 
ATOM      3  H   LIG    1        3.582   2.664   0.348  0.00  0.00    +0.430 HD
ATOM      4  O   LIG    1        2.646   0.144  -1.171  0.00  0.00    -0.510 OA
ENDROOT
BRANCH   2   5
ATOM      5  C   LIG    1        4.827   1.050   0.054  0.00  0.00    +0.230 A 
ATOM      6  C   LIG    1        6.082   1.573   0.142  0.00  0.00    +0.070 A 
ATOM      7  N   LIG    1        6.960   0.542   0.199  0.00  0.00    -0.420 NA
ATOM      8  C   LIG    1        6.295  -0.586   0.141  0.00  0.00    +0.170 A 
ATOM      9  S   LIG    1        6.455  -2.349   0.134  0.00  0.00    +0.160 S 
ATOM     10  C   LIG    1        4.712  -2.643   0.009  0.00  0.00    +0.010 A 
ATOM     11  C   LIG    1        4.149  -1.448  -0.018  0.00  0.00    +0.250 A 
ATOM     12  N   LIG    1        4.957  -0.334   0.049  0.00  0.00    -0.410 N 
BRANCH   6  13
ATOM     13  C   LIG    1        6.425   3.014   0.173  0.00  0.00    -0.010 A 
ATOM     14  C   LIG    1        5.679   3.928  -0.571  0.00  0.00    +0.000 A 
ATOM     15  C   LIG    1        6.000   5.269  -0.533  0.00  0.00    +0.010 A 
ATOM     16  C   LIG    1        7.067   5.707   0.231  0.00  0.00    +0.020 A 
ATOM     17  C   LIG    1        7.815   4.804   0.966  0.00  0.00    +0.010 A 
ATOM     18  C   LIG    1        7.500   3.461   0.942  0.00  0.00    +0.050 A 
ENDBRANCH   6  13
ENDBRANCH   2   5
BRANCH   1  22
ATOM     19  C   LIG    1       -1.175   3.254  -0.526  0.00  0.00    -0.630 A 
ATOM     20  C   LIG    1       -1.072   2.031  -1.166  0.00  0.00    +0.120 A 
ATOM     21  C   LIG    1        0.135   1.363  -1.193  0.00  0.00    +0.080 A 
ATOM     22  C   LIG    1        1.256   1.929  -0.583  0.00  0.00    -0.080 A 
ATOM     23  C   LIG    1        1.146   3.165   0.056  0.00  0.00    +0.030 A 
ATOM     24  C   LIG    1       -0.068   3.820   0.080  0.00  0.00    +0.120 A 
BRANCH  19  26
ATOM     25  C   LIG    1       -2.710   5.127  -1.985  0.00  0.00    -0.250 C 
ATOM     26  S   LIG    1       -2.721   4.098  -0.491  0.00  0.00    +2.500 S 
ATOM     27  O   LIG    1       -2.651   4.909   0.674  0.00  0.00    -0.930 OA
ATOM     28  O   LIG    1       -3.688   3.063  -0.606  0.00  0.00    -0.930 OA
ENDBRANCH  19  26
ENDBRANCH   1  22
TORSDOF 4
