REMARK  Name = ZINCrH000004tKYe.0
REMARK                            x       y       z     vdW  Elec       q    Type
REMARK                         _______ _______ _______ _____ _____    ______ ____
ROOT
ATOM      1  O   LIG    1       -4.657  -0.505   0.414  0.00  0.00    -0.520 OA
ATOM      2  C   LIG    1       -4.138  -0.188   1.464  0.00  0.00    +0.520 C 
ATOM      3  N   LIG    1       -4.699  -0.559   2.632  0.00  0.00    -0.670 N 
ATOM      4  H   LIG    1       -4.250  -0.365   3.469  0.00  0.00    +0.420 HD
ENDROOT
BRANCH   3   5
ATOM      5  C   LIG    1       -5.930  -1.226   2.636  0.00  0.00    +0.080 A 
ATOM      6  C   LIG    1       -6.241  -2.116   1.627  0.00  0.00    +0.100 A 
ATOM      7  C   LIG    1       -7.490  -2.761   1.677  0.00  0.00    -0.080 A 
ATOM      8  C   LIG    1       -7.877  -3.679   0.688  0.00  0.00    +0.030 A 
ATOM      9  C   LIG    1       -9.094  -4.284   0.769  0.00  0.00    +0.020 A 
ATOM     10  C   LIG    1       -9.962  -4.005   1.823  0.00  0.00    +0.030 A 
ATOM     11  C   LIG    1       -9.619  -3.120   2.799  0.00  0.00    +0.050 A 
ATOM     12  C   LIG    1       -8.371  -2.475   2.750  0.00  0.00    +0.110 A 
ATOM     13  N   LIG    1       -8.011  -1.603   3.697  0.00  0.00    -0.450 NA
ATOM     14  C   LIG    1       -6.849  -0.998   3.667  0.00  0.00    +0.280 A 
ENDBRANCH   3   5
BRANCH   2  15
ATOM     15  C   LIG    1       -2.867   0.621   1.462  0.00  0.00    +0.060 C 
BRANCH  15  16
ATOM     16  C   LIG    1       -2.446   0.907   0.019  0.00  0.00    +0.330 C 
BRANCH  16  17
ATOM     17  N   LIG    1       -1.210   1.693   0.017  0.00  0.00    -0.550 N 
ATOM     18  C   LIG    1       -0.009   1.059   0.004  0.00  0.00    +0.590 A 
ATOM     19  N   LIG    1        1.129   1.685  -0.004  0.00  0.00    -0.520 NA
ATOM     20  C   LIG    1        1.196   3.040   0.007  0.00  0.00    +0.170 A 
ATOM     21  C   LIG    1        2.419   3.712  -0.002  0.00  0.00    +0.050 A 
ATOM     22  C   LIG    1        2.440   5.089   0.009  0.00  0.00    +0.100 A 
ATOM     23  C   LIG    1        1.258   5.819   0.028  0.00  0.00    -0.110 A 
ATOM     24  C   LIG    1        0.038   5.177   0.037  0.00  0.00    +0.140 A 
ATOM     25 BR   LIG    1        1.323   7.709   0.043  0.00  0.00    -0.030 Br
ATOM     26  C   LIG    1       -0.005   3.784   0.026  0.00  0.00    -0.190 A 
ATOM     27  C   LIG    1       -1.276   3.045   0.035  0.00  0.00    +0.550 A 
ATOM     28  O   LIG    1       -2.345   3.626   0.052  0.00  0.00    -0.500 OA
ENDBRANCH  16  17
ENDBRANCH  15  16
ENDBRANCH   2  15
TORSDOF 4
