REMARK  Name = ZINCrH000004tPCp.0
REMARK                            x       y       z     vdW  Elec       q    Type
REMARK                         _______ _______ _______ _____ _____    ______ ____
ROOT
ATOM      1  O   LIG    1        1.969   3.432   1.376  0.00  0.00    -0.480 OA
ATOM      2  C   LIG    1        1.024   3.024   0.734  0.00  0.00    +0.510 C 
ATOM      3  N   LIG    1        1.143   1.898   0.001  0.00  0.00    -0.670 N 
ATOM      4  H   LIG    1        0.369   1.530  -0.451  0.00  0.00    +0.420 HD
ENDROOT
BRANCH   3   5
ATOM      5  C   LIG    1        2.385   1.262  -0.107  0.00  0.00    +0.130 A 
ATOM      6  C   LIG    1        2.451  -0.121  -0.214  0.00  0.00    +0.050 A 
ATOM      7  C   LIG    1        3.678  -0.746  -0.321  0.00  0.00    +0.020 A 
ATOM      8  C   LIG    1        4.840   0.004  -0.320  0.00  0.00    +0.110 A 
ATOM      9  C   LIG    1        4.778   1.381  -0.213  0.00  0.00    -0.660 A 
ATOM     10  C   LIG    1        3.554   2.013  -0.112  0.00  0.00    +0.130 A 
BRANCH   9  11
ATOM     11  S   LIG    1        6.261   2.332  -0.213  0.00  0.00    +2.710 S 
ATOM     12  O   LIG    1        7.297   1.460   0.218  0.00  0.00    -0.950 OA
ATOM     13  O   LIG    1        5.953   3.556   0.441  0.00  0.00    -0.940 OA
BRANCH  11  14
ATOM     14  N   LIG    1        6.598   2.716  -1.788  0.00  0.00    -1.010 NA
ATOM     15  C   LIG    1        7.420   1.916  -2.708  0.00  0.00    +0.270 C 
ATOM     16  C   LIG    1        7.474   2.674  -4.051  0.00  0.00    +0.030 C 
ATOM     17  C   LIG    1        7.158   4.135  -3.636  0.00  0.00    +0.030 C 
ATOM     18  C   LIG    1        6.129   3.920  -2.498  0.00  0.00    +0.270 C 
ENDBRANCH  11  14
ENDBRANCH   9  11
ENDBRANCH   3   5
BRANCH   2  19
ATOM     19  C   LIG    1       -0.284   3.771   0.759  0.00  0.00    +0.240 C 
BRANCH  19  20
ATOM     20  O   LIG    1       -0.162   4.917   1.604  0.00  0.00    -0.270 OA
BRANCH  20  21
ATOM     21  C   LIG    1       -1.261   5.706   1.737  0.00  0.00    +0.140 A 
ATOM     22  C   LIG    1       -2.430   5.386   1.064  0.00  0.00    -0.040 A 
ATOM     23  C   LIG    1       -3.548   6.186   1.205  0.00  0.00    +0.090 A 
ATOM     24  C   LIG    1       -3.499   7.312   2.008  0.00  0.00    -0.060 A 
ATOM     25  C   LIG    1       -2.331   7.636   2.677  0.00  0.00    +0.090 A 
ATOM     26 CL   LIG    1       -4.903   8.318   2.177  0.00  0.00    -0.050 Cl
ATOM     27  C   LIG    1       -1.212   6.835   2.543  0.00  0.00    -0.060 A 
ATOM     28 CL   LIG    1        0.252   7.242   3.382  0.00  0.00    -0.030 Cl
ENDBRANCH  20  21
ENDBRANCH  19  20
ENDBRANCH   2  19
TORSDOF 6
