REMARK  Name = ZINCpk00000y6u8B.0
REMARK                            x       y       z     vdW  Elec       q    Type
REMARK                         _______ _______ _______ _____ _____    ______ ____
ROOT
ATOM      1  N   LIG    1        5.739  -5.469   1.872  0.00  0.00    -0.740 N 
ATOM      2  H   LIG    1        5.590  -6.017   1.086  0.00  0.00    +0.400 HD
ATOM      3  C   LIG    1        4.946  -4.406   2.113  0.00  0.00    +0.730 C 
ATOM      4  N   LIG    1        3.946  -4.104   1.261  0.00  0.00    -0.630 N 
ATOM      5  C   LIG    1        3.611  -4.846   0.037  0.00  0.00    +0.250 C 
ATOM      6  C   LIG    1        2.419  -4.122  -0.625  0.00  0.00    +0.080 C 
ATOM      7  C   LIG    1        2.513  -2.689  -0.037  0.00  0.00    +0.150 C 
ATOM      8  C   LIG    1        3.008  -2.976   1.403  0.00  0.00    +0.280 C 
ATOM      9  O   LIG    1        5.133  -3.719   3.099  0.00  0.00    -0.570 OA
ENDROOT
BRANCH   1  10
ATOM     10  C   LIG    1        6.826  -5.797   2.798  0.00  0.00    +0.470 C 
BRANCH  10  15
ATOM     11  C   LIG    1       10.017  -8.892   0.493  0.00  0.00    +0.200 C 
ATOM     12  C   LIG    1        8.896  -8.339   1.336  0.00  0.00    +0.170 A 
ATOM     13  N   LIG    1        8.051  -9.030   2.041  0.00  0.00    -0.380 NA
ATOM     14  O   LIG    1        7.276  -8.291   2.610  0.00  0.00    +0.090 OA
ATOM     15  C   LIG    1        7.555  -7.020   2.304  0.00  0.00    +0.160 A 
ATOM     16  N   LIG    1        8.588  -7.040   1.496  0.00  0.00    -0.460 NA
ENDBRANCH  10  15
ENDBRANCH   1  10
BRANCH   7  17
ATOM     17  O   LIG    1        1.232  -2.057  -0.021  0.00  0.00    -0.280 OA
BRANCH  17  18
ATOM     18  C   LIG    1        1.214  -0.697  -0.013  0.00  0.00    +0.060 A 
ATOM     19  C   LIG    1        2.399   0.022  -0.021  0.00  0.00    -0.010 A 
ATOM     20  C   LIG    1        2.332   1.410  -0.013  0.00  0.00    -0.020 A 
ATOM     21  C   LIG    1        1.098   2.027   0.003  0.00  0.00    +0.250 A 
ATOM     22  N   LIG    1       -0.016   1.319   0.009  0.00  0.00    -0.490 NA
ATOM     23  C   LIG    1        0.002  -0.004   0.002  0.00  0.00    +0.290 A 
BRANCH  23  24
ATOM     24  N   LIG    1       -1.198  -0.711   0.010  0.00  0.00    -0.480 N 
ATOM     25  C   LIG    1       -1.273  -1.632  -1.132  0.00  0.00    +0.220 C 
ATOM     26  C   LIG    1       -2.347   0.203   0.026  0.00  0.00    +0.220 C 
ENDBRANCH  23  24
ENDBRANCH  17  18
ENDBRANCH   7  17
TORSDOF 5
