REMARK  Name = ZINCrD00000hQ5Fz.0
REMARK                            x       y       z     vdW  Elec       q    Type
REMARK                         _______ _______ _______ _____ _____    ______ ____
ROOT
ATOM      1  C   LIG    1       -0.775   1.742   1.152  0.00  0.00    -0.240 C 
ATOM      2  C   LIG    1       -1.899   2.151   0.522  0.00  0.00    +0.110 C 
ATOM      3  C   LIG    1       -1.719   2.009  -0.937  0.00  0.00    +0.530 C 
ATOM      4  N   LIG    1       -0.494   1.516  -1.203  0.00  0.00    -0.590 N 
ATOM      5  O   LIG    1       -2.553   2.294  -1.773  0.00  0.00    -0.500 OA
ATOM      6  C   LIG    1        0.194   1.309   0.076  0.00  0.00    +0.350 C 
ENDROOT
BRANCH   6   7
ATOM      7  C   LIG    1        1.443   2.150   0.135  0.00  0.00    -0.160 A 
ATOM      8  C   LIG    1        2.620   1.624   0.645  0.00  0.00    +0.080 A 
ATOM      9  C   LIG    1        3.746   2.433   0.674  0.00  0.00    -0.030 A 
ATOM     10  C   LIG    1        3.656   3.730   0.208  0.00  0.00    +0.270 A 
ATOM     11  N   LIG    1        2.518   4.199  -0.266  0.00  0.00    -0.480 NA
ATOM     12  C   LIG    1        1.429   3.457  -0.314  0.00  0.00    +0.280 A 
ENDBRANCH   6   7
BRANCH   1  14
ATOM     13  O   LIG    1       -0.504   2.765   3.227  0.00  0.00    -0.420 OA
ATOM     14  C   LIG    1       -0.541   1.721   2.601  0.00  0.00    +0.500 C 
BRANCH  14  15
ATOM     15  C   LIG    1       -0.352   0.444   3.294  0.00  0.00    -0.290 A 
ATOM     16  C   LIG    1       -0.174   0.291   4.643  0.00  0.00    +0.110 A 
ATOM     17  C   LIG    1       -0.021  -1.020   5.025  0.00  0.00    +0.000 A 
ATOM     18  C   LIG    1       -0.071  -1.912   4.027  0.00  0.00    -0.050 A 
ATOM     19  S   LIG    1       -0.325  -1.139   2.528  0.00  0.00    +0.220 S 
ENDBRANCH  14  15
ENDBRANCH   1  14
BRANCH   2  20
ATOM     20  O   LIG    1       -3.014   2.618   1.133  0.00  0.00    -0.430 OA
ATOM     21  H   LIG    1       -3.722   2.865   0.522  0.00  0.00    +0.420 HD
ENDBRANCH   2  20
BRANCH   4  22
ATOM     22  C   LIG    1        0.054   1.237  -2.533  0.00  0.00    +0.390 C 
BRANCH  22  23
ATOM     23  C   LIG    1       -0.276  -0.180  -2.924  0.00  0.00    -0.170 A 
ATOM     24  C   LIG    1        0.593  -1.215  -2.613  0.00  0.00    +0.070 A 
ATOM     25  C   LIG    1        0.246  -2.504  -2.989  0.00  0.00    -0.030 A 
ATOM     26  C   LIG    1       -0.941  -2.711  -3.666  0.00  0.00    +0.270 A 
ATOM     27  N   LIG    1       -1.740  -1.702  -3.950  0.00  0.00    -0.480 NA
ATOM     28  C   LIG    1       -1.445  -0.464  -3.604  0.00  0.00    +0.290 A 
ENDBRANCH  22  23
ENDBRANCH   4  22
TORSDOF 6
