REMARK  Name = ZINCpk00000xUisZ.0
REMARK                            x       y       z     vdW  Elec       q    Type
REMARK                         _______ _______ _______ _____ _____    ______ ____
ROOT
ATOM      1  C   LIG    1       -0.054  -4.200  -0.195  0.00  0.00    -0.070 A 
ATOM      2  C   LIG    1       -1.282  -4.860  -0.291  0.00  0.00    +0.060 A 
ATOM      3  C   LIG    1       -2.456  -4.142  -0.281  0.00  0.00    +0.110 A 
ATOM      4  C   LIG    1       -2.424  -2.749  -0.176  0.00  0.00    -0.130 A 
ATOM      5  C   LIG    1       -1.193  -2.083  -0.079  0.00  0.00    +0.200 A 
ATOM      6  C   LIG    1       -0.012  -2.811  -0.094  0.00  0.00    +0.100 A 
ENDROOT
BRANCH   5   7
ATOM      7  N   LIG    1       -1.156  -0.695   0.026  0.00  0.00    -0.650 N 
ATOM      8  H   LIG    1       -1.845  -0.228   0.525  0.00  0.00    +0.430 HD
ATOM      9  C   LIG    1       -0.164  -0.000  -0.565  0.00  0.00    +0.540 C 
ATOM     10  O   LIG    1        0.740  -0.588  -1.120  0.00  0.00    -0.500 OA
BRANCH   9  11
ATOM     11  C   LIG    1       -0.178   1.506  -0.536  0.00  0.00    +0.110 C 
BRANCH  11  12
ATOM     12  S   LIG    1        1.279   2.141  -1.410  0.00  0.00    +0.120 S 
BRANCH  12  13
ATOM     13  C   LIG    1        1.093   3.888  -1.274  0.00  0.00    +0.010 A 
ATOM     14  N   LIG    1        0.127   4.542  -0.681  0.00  0.00    -0.270 NA
ATOM     15  N   LIG    1        0.179   5.918  -0.694  0.00  0.00    -0.370 NA
ATOM     16  C   LIG    1        1.190   6.486  -1.299  0.00  0.00    +0.340 A 
ATOM     17  N   LIG    1        1.440   7.846  -1.433  0.00  0.00    -0.800 N 
ATOM     18  H   LIG    1        2.229   8.150  -1.907  0.00  0.00    +0.420 HD
ATOM     19  H   LIG    1        0.825   8.492  -1.051  0.00  0.00    +0.420 HD
ATOM     20  S   LIG    1        2.177   5.142  -1.905  0.00  0.00    +0.050 S 
ENDBRANCH  12  13
ENDBRANCH  11  12
ENDBRANCH   9  11
ENDBRANCH   5   7
BRANCH   1  21
ATOM     21  C   LIG    1        1.205  -4.978  -0.204  0.00  0.00    +0.500 C 
ATOM     22  O   LIG    1        2.273  -4.405  -0.121  0.00  0.00    -0.490 OA
BRANCH  21  24
ATOM     23  C   LIG    1        2.441  -7.018  -0.310  0.00  0.00    +0.290 C 
ATOM     24  O   LIG    1        1.167  -6.320  -0.306  0.00  0.00    -0.350 OA
ENDBRANCH  21  24
ENDBRANCH   1  21
BRANCH   4  25
ATOM     25  C   LIG    1       -3.684  -1.980  -0.166  0.00  0.00    +0.510 C 
ATOM     26  O   LIG    1       -3.654  -0.765  -0.174  0.00  0.00    -0.510 OA
BRANCH  25  27
ATOM     27  O   LIG    1       -4.867  -2.624  -0.150  0.00  0.00    -0.350 OA
ATOM     28  C   LIG    1       -6.064  -1.803  -0.141  0.00  0.00    +0.290 C 
ENDBRANCH  25  27
ENDBRANCH   4  25
TORSDOF 8
