REMARK  Name = ZINCvU0000000I12.0
REMARK                            x       y       z     vdW  Elec       q    Type
REMARK                         _______ _______ _______ _____ _____    ______ ____
ROOT
ATOM      1  C   LIG    1        1.153   6.019   0.025  0.00  0.00    +0.040 C 
ENDROOT
BRANCH   1   2
ATOM      2  C   LIG    1        1.457   6.438   1.440  0.00  0.00    -0.070 A 
ATOM      3  C   LIG    1        0.449   6.460   2.386  0.00  0.00    +0.030 A 
ATOM      4  C   LIG    1        0.729   6.840   3.686  0.00  0.00    +0.000 A 
ATOM      5  C   LIG    1        2.014   7.207   4.037  0.00  0.00    +0.010 A 
ATOM      6  C   LIG    1        3.021   7.190   3.090  0.00  0.00    -0.010 A 
ATOM      7  C   LIG    1        2.743   6.806   1.792  0.00  0.00    +0.040 A 
ENDBRANCH   1   2
BRANCH   1   8
ATOM      8  C   LIG    1        0.626   4.607   0.021  0.00  0.00    +0.450 C 
ATOM      9  O   LIG    1       -0.571   4.406   0.030  0.00  0.00    -0.450 OA
BRANCH   8  10
ATOM     10  C   LIG    1        1.529   3.514   0.007  0.00  0.00    -0.270 A 
ATOM     11  C   LIG    1        2.906   3.578  -0.005  0.00  0.00    +0.330 A 
ATOM     12  N   LIG    1        3.416   2.332  -0.017  0.00  0.00    -0.560 N 
ATOM     13  H   LIG    1        4.363   2.123  -0.027  0.00  0.00    +0.420 HD
ATOM     14  C   LIG    1        2.406   1.391  -0.013  0.00  0.00    +0.070 A 
ATOM     15  C   LIG    1        2.404  -0.000  -0.020  0.00  0.00    +0.000 A 
ATOM     16  C   LIG    1        1.209  -0.687  -0.013  0.00  0.00    +0.030 A 
ATOM     17  C   LIG    1        0.002  -0.004   0.002  0.00  0.00    +0.000 A 
ATOM     18  C   LIG    1       -0.017   1.374   0.010  0.00  0.00    +0.060 A 
ATOM     19  C   LIG    1        1.183   2.079   0.002  0.00  0.00    -0.050 A 
ENDBRANCH   8  10
ENDBRANCH   1   8
BRANCH   1  20
ATOM     20  S   LIG    1       -0.091   7.129  -0.679  0.00  0.00    +0.010 S 
BRANCH  20  24
ATOM     21  C   LIG    1        4.194   9.732   0.281  0.00  0.00    +0.130 C 
ATOM     22  C   LIG    1        2.780   9.768  -0.240  0.00  0.00    +0.160 A 
ATOM     23  N   LIG    1        2.066   8.661  -0.246  0.00  0.00    -0.480 NA
ATOM     24  C   LIG    1        0.818   8.639  -0.693  0.00  0.00    +0.140 A 
ATOM     25  C   LIG    1        0.219   9.812  -1.184  0.00  0.00    -0.170 A 
ATOM     26  C   LIG    1        0.959  10.999  -1.179  0.00  0.00    +0.010 A 
ATOM     27  C   LIG    1        0.360  12.285  -1.689  0.00  0.00    +0.100 C 
ATOM     28  C   LIG    1        2.257  10.963  -0.701  0.00  0.00    -0.150 A 
ATOM     29  C   LIG    1        3.094  12.216  -0.682  0.00  0.00    +0.120 C 
BRANCH  25  30
ATOM     30  C   LIG    1       -1.166   9.793  -1.689  0.00  0.00    +0.580 C 
ATOM     31  O   LIG    1       -2.092  10.007  -0.931  0.00  0.00    -0.520 OA
ATOM     32  N   LIG    1       -1.405   9.537  -2.990  0.00  0.00    -0.840 N 
ATOM     33  H   LIG    1       -2.317   9.524  -3.322  0.00  0.00    +0.410 HD
ATOM     34  H   LIG    1       -0.666   9.366  -3.595  0.00  0.00    +0.400 HD
ENDBRANCH  25  30
ENDBRANCH  20  24
ENDBRANCH   1  20
TORSDOF 6
