REMARK  Name = ZINCrH000004tQbg.0
REMARK                            x       y       z     vdW  Elec       q    Type
REMARK                         _______ _______ _______ _____ _____    ______ ____
ROOT
ATOM      1  C   LIG    1       -3.887  -4.611   0.016  0.00  0.00    +0.270 A 
ATOM      2  N   LIG    1       -4.987  -3.930   0.036  0.00  0.00    -0.470 NA
ATOM      3  C   LIG    1       -6.127  -4.606   0.039  0.00  0.00    +0.100 A 
ATOM      4  C   LIG    1       -5.955  -5.941   0.031  0.00  0.00    -0.280 A 
ATOM      5  C   LIG    1       -7.078  -6.949   0.038  0.00  0.00    +0.330 C 
ATOM      6  N   LIG    1       -8.317  -6.264   0.440  0.00  0.00    -0.510 NA
ATOM      7  C   LIG    1       -8.527  -5.048  -0.360  0.00  0.00    +0.220 C 
ATOM      8  C   LIG    1       -7.513  -3.978   0.056  0.00  0.00    +0.100 C 
ATOM      9  S   LIG    1       -4.232  -6.285   0.010  0.00  0.00    +0.140 S 
ENDROOT
BRANCH   1  12
ATOM     10  O   LIG    1       -3.426  -1.998   0.025  0.00  0.00    -0.440 OA
ATOM     11  C   LIG    1       -2.453  -2.723   0.012  0.00  0.00    +0.510 C 
ATOM     12  N   LIG    1       -2.610  -4.061   0.006  0.00  0.00    -0.630 N 
ATOM     13  H   LIG    1       -1.833  -4.641  -0.005  0.00  0.00    +0.420 HD
BRANCH  11  14
ATOM     14  C   LIG    1       -1.069  -2.126   0.001  0.00  0.00    +0.250 C 
BRANCH  14  15
ATOM     15  O   LIG    1       -1.165  -0.701   0.010  0.00  0.00    -0.290 OA
BRANCH  15  16
ATOM     16  C   LIG    1        0.002  -0.004   0.002  0.00  0.00    +0.130 A 
ATOM     17  C   LIG    1       -0.017   1.383   0.010  0.00  0.00    -0.020 A 
ATOM     18  C   LIG    1        1.171   2.089   0.002  0.00  0.00    +0.050 A 
ATOM     19  C   LIG    1        2.377   1.414  -0.013  0.00  0.00    -0.030 A 
ATOM     20  C   LIG    1        2.399   0.031  -0.021  0.00  0.00    +0.050 A 
ATOM     21  C   LIG    1        1.214  -0.679  -0.013  0.00  0.00    -0.080 A 
ENDBRANCH  15  16
ENDBRANCH  14  15
ENDBRANCH  11  14
ENDBRANCH   1  12
BRANCH   6  22
ATOM     22  C   LIG    1       -8.306  -5.954   1.876  0.00  0.00    +0.230 C 
BRANCH  22  23
ATOM     23  C   LIG    1       -8.333  -7.236   2.667  0.00  0.00    -0.080 A 
ATOM     24  C   LIG    1       -9.543  -7.793   3.038  0.00  0.00    +0.020 A 
ATOM     25  C   LIG    1       -9.568  -8.972   3.760  0.00  0.00    +0.000 A 
ATOM     26  C   LIG    1       -8.384  -9.588   4.119  0.00  0.00    +0.000 A 
ATOM     27  C   LIG    1       -7.174  -9.028   3.752  0.00  0.00    +0.000 A 
ATOM     28  C   LIG    1       -7.149  -7.852   3.026  0.00  0.00    +0.000 A 
ENDBRANCH  22  23
ENDBRANCH   6  22
TORSDOF 6
