REMARK  Name = ZINCvU0000000Cbi.0
REMARK                            x       y       z     vdW  Elec       q    Type
REMARK                         _______ _______ _______ _____ _____    ______ ____
ROOT
ATOM      1  N   LIG    1       -4.008   3.918  -2.747  0.00  0.00    -0.490 N 
ATOM      2  C   LIG    1       -5.215   3.292  -3.027  0.00  0.00    +0.120 A 
ATOM      3  C   LIG    1       -6.541   3.678  -2.879  0.00  0.00    +0.020 A 
ATOM      4  C   LIG    1       -7.553   2.819  -3.256  0.00  0.00    +0.050 A 
ATOM      5  C   LIG    1       -7.253   1.574  -3.782  0.00  0.00    +0.020 A 
ATOM      6  C   LIG    1       -5.938   1.180  -3.934  0.00  0.00    +0.060 A 
ATOM      7  C   LIG    1       -4.912   2.036  -3.558  0.00  0.00    +0.100 A 
ATOM      8  N   LIG    1       -3.523   1.922  -3.590  0.00  0.00    -0.320 N 
ATOM      9  N   LIG    1       -2.474   1.064  -3.943  0.00  0.00    -0.290 NA
ATOM     10  C   LIG    1       -1.335   1.651  -3.697  0.00  0.00    +0.150 A 
ATOM     11  C   LIG    1       -1.603   2.927  -3.155  0.00  0.00    -0.340 A 
ATOM     12  C   LIG    1        0.031   1.063  -3.940  0.00  0.00    +0.170 C 
ATOM     13  C   LIG    1       -2.993   3.064  -3.104  0.00  0.00    +0.330 A 
ENDROOT
BRANCH  11  14
ATOM     14  C   LIG    1       -0.610   3.920  -2.726  0.00  0.00    +0.470 C 
ATOM     15  O   LIG    1       -0.259   3.966  -1.559  0.00  0.00    -0.450 OA
BRANCH  14  16
ATOM     16  C   LIG    1       -0.042   4.855  -3.698  0.00  0.00    -0.100 C 
ATOM     17  C   LIG    1        0.948   5.696  -3.329  0.00  0.00    +0.120 C 
BRANCH  17  18
ATOM     18  C   LIG    1        1.518   6.635  -4.305  0.00  0.00    -0.080 A 
ATOM     19  C   LIG    1        1.036   6.659  -5.619  0.00  0.00    +0.040 A 
ATOM     20  C   LIG    1        1.572   7.541  -6.532  0.00  0.00    -0.040 A 
ATOM     21  C   LIG    1        2.589   8.405  -6.153  0.00  0.00    +0.120 A 
ATOM     22  C   LIG    1        3.075   8.387  -4.846  0.00  0.00    +0.100 A 
ATOM     23  C   LIG    1        2.540   7.511  -3.923  0.00  0.00    -0.010 A 
BRANCH  22  24
ATOM     24  O   LIG    1        4.072   9.236  -4.479  0.00  0.00    -0.310 OA
ATOM     25  C   LIG    1        4.520   9.164  -3.124  0.00  0.00    +0.240 C 
ENDBRANCH  22  24
BRANCH  21  26
ATOM     26  O   LIG    1        3.114   9.272  -7.058  0.00  0.00    -0.300 OA
BRANCH  26  27
ATOM     27  C   LIG    1        2.570   9.238  -8.379  0.00  0.00    +0.170 C 
ATOM     28  C   LIG    1        3.280  10.277  -9.250  0.00  0.00    +0.070 C 
ENDBRANCH  26  27
ENDBRANCH  21  26
ENDBRANCH  17  18
ENDBRANCH  14  16
ENDBRANCH  11  14
BRANCH   1  29
ATOM     29  C   LIG    1       -3.845   5.257  -2.175  0.00  0.00    +0.350 C 
BRANCH  29  31
ATOM     30  C   LIG    1       -2.790   5.660  -0.010  0.00  0.00    +0.070 C 
ATOM     31  C   LIG    1       -3.804   5.160  -0.671  0.00  0.00    -0.080 C 
ENDBRANCH  29  31
ENDBRANCH   1  29
TORSDOF 8
