REMARK  Name = ZINCnE000004RfTH.0
REMARK                            x       y       z     vdW  Elec       q    Type
REMARK                         _______ _______ _______ _____ _____    ______ ____
ROOT
ATOM      1  C   LIG    1       -0.421   0.931   2.456  0.00  0.00    -0.010 A 
ATOM      2  C   LIG    1       -1.030   1.341   3.624  0.00  0.00    -0.010 A 
ATOM      3  C   LIG    1       -1.928   2.393   3.601  0.00  0.00    -0.010 A 
ATOM      4  C   LIG    1       -2.212   3.026   2.408  0.00  0.00    -0.030 A 
ATOM      5  C   LIG    1       -1.602   2.614   1.233  0.00  0.00    -0.070 A 
ATOM      6  C   LIG    1       -1.946   3.332  -0.047  0.00  0.00    +0.090 C 
ATOM      7  C   LIG    1       -0.897   3.026  -1.116  0.00  0.00    +0.190 C 
ATOM      8  N   LIG    1       -0.714   1.568  -1.186  0.00  0.00    -0.500 N 
ATOM      9  C   LIG    1       -0.013   1.086   0.008  0.00  0.00    +0.260 C 
ATOM     10  C   LIG    1       -0.709   1.567   1.254  0.00  0.00    -0.070 A 
ENDROOT
BRANCH   8  11
ATOM     11  C   LIG    1       -0.032   1.206  -2.345  0.00  0.00    +0.180 A 
ATOM     12  C   LIG    1       -0.647   0.399  -3.318  0.00  0.00    -0.180 A 
ATOM     13  S   LIG    1       -2.254  -0.312  -3.371  0.00  0.00    +0.140 S 
ATOM     14  C   LIG    1       -1.945  -1.056  -4.929  0.00  0.00    -0.020 A 
ATOM     15  C   LIG    1       -0.728  -0.780  -5.358  0.00  0.00    +0.040 A 
ATOM     16  C   LIG    1        0.062   0.053  -4.469  0.00  0.00    +0.120 A 
ATOM     17  N   LIG    1        1.324   0.501  -4.625  0.00  0.00    -0.470 NA
ATOM     18  C   LIG    1        1.915   1.255  -3.730  0.00  0.00    +0.290 A 
ATOM     19  C   LIG    1        1.269   1.639  -2.568  0.00  0.00    -0.050 A 
ENDBRANCH   8  11
BRANCH   1  20
ATOM     20  C   LIG    1        0.557  -0.214   2.483  0.00  0.00    -0.020 C 
BRANCH  20  22
ATOM     21  O   LIG    1        2.147   1.528   2.660  0.00  0.00    -0.690 OA
ATOM     22  C   LIG    1        1.959   0.325   2.603  0.00  0.00    +0.500 C 
ATOM     23  O   LIG    1        2.906  -0.442   2.642  0.00  0.00    -0.700 OA
ENDBRANCH  20  22
ENDBRANCH   1  20
TORSDOF 3
