REMARK  Name = ZINCvU00000005tn.0
REMARK                            x       y       z     vdW  Elec       q    Type
REMARK                         _______ _______ _______ _____ _____    ______ ____
ROOT
ATOM      1  C   LIG    1       -1.033   8.768   1.734  0.00  0.00    +0.170 A 
ATOM      2  C   LIG    1       -0.377   9.194   0.584  0.00  0.00    -0.070 A 
ATOM      3  C   LIG    1       -0.243  10.539   0.324  0.00  0.00    +0.090 A 
ATOM      4  C   LIG    1       -0.758  11.478   1.222  0.00  0.00    -0.180 A 
ATOM      5  C   LIG    1       -1.412  11.046   2.380  0.00  0.00    +0.140 A 
ATOM      6  C   LIG    1       -1.546   9.699   2.630  0.00  0.00    -0.020 A 
ENDROOT
BRANCH   4   7
ATOM      7  C   LIG    1       -0.612  12.920   0.950  0.00  0.00    +0.560 C 
ATOM      8  N   LIG    1        0.018  13.335  -0.167  0.00  0.00    -0.630 N 
ATOM      9  H   LIG    1        0.377  12.685  -0.791  0.00  0.00    +0.420 HD
ATOM     10  O   LIG    1       -1.061  13.736   1.732  0.00  0.00    -0.470 OA
BRANCH   8  11
ATOM     11  C   LIG    1        0.156  14.693  -0.424  0.00  0.00    +0.270 A 
ATOM     12  N   LIG    1       -0.283  15.639   0.340  0.00  0.00    -0.470 NA
ATOM     13  C   LIG    1       -0.072  16.891  -0.047  0.00  0.00    +0.100 A 
ATOM     14  C   LIG    1        0.589  16.982  -1.214  0.00  0.00    -0.240 A 
ATOM     15  C   LIG    1        0.971  18.271  -1.901  0.00  0.00    +0.130 C 
ATOM     16  C   LIG    1        0.853  19.417  -0.890  0.00  0.00    -0.010 C 
ATOM     17  C   LIG    1       -0.508  19.329  -0.193  0.00  0.00    +0.030 C 
ATOM     18  C   LIG    1        0.969  20.758  -1.618  0.00  0.00    +0.030 C 
ATOM     19  C   LIG    1       -0.525  18.114   0.737  0.00  0.00    +0.130 C 
ATOM     20  S   LIG    1        0.935  15.357  -1.792  0.00  0.00    +0.120 S 
ENDBRANCH   8  11
ENDBRANCH   4   7
BRANCH   1  21
ATOM     21  O   LIG    1       -1.167   7.441   1.984  0.00  0.00    -0.310 OA
BRANCH  21  22
ATOM     22  C   LIG    1       -0.617   6.540   1.022  0.00  0.00    +0.330 C 
BRANCH  22  30
ATOM     23  C   LIG    1       -0.013   1.086   0.008  0.00  0.00    +0.130 C 
ATOM     24  C   LIG    1       -0.718   1.572   1.248  0.00  0.00    -0.040 A 
ATOM     25  C   LIG    1       -1.217   0.682   2.148  0.00  0.00    +0.030 A 
ATOM     26  C   LIG    1       -1.872   1.150   3.299  0.00  0.00    +0.020 A 
ATOM     27  C   LIG    1       -2.007   2.475   3.514  0.00  0.00    +0.220 A 
ATOM     28  N   LIG    1       -1.511   3.379   2.620  0.00  0.00    -0.360 N 
ATOM     29  C   LIG    1       -1.508   4.747   2.591  0.00  0.00    +0.120 A 
ATOM     30  C   LIG    1       -0.860   5.121   1.466  0.00  0.00    +0.050 A 
ATOM     31  N   LIG    1       -0.481   4.023   0.807  0.00  0.00    -0.480 NA
ATOM     32  C   LIG    1       -0.862   2.953   1.490  0.00  0.00    +0.230 A 
ENDBRANCH  22  30
ENDBRANCH  21  22
ENDBRANCH   1  21
TORSDOF 5
