REMARK  Name = ZINCvU0000000BuE.0
REMARK                            x       y       z     vdW  Elec       q    Type
REMARK                         _______ _______ _______ _____ _____    ______ ____
ROOT
ATOM      1  N   LIG    1        6.578   1.582  -1.433  0.00  0.00    -0.610 N 
ATOM      2  C   LIG    1        6.536   2.773  -2.062  0.00  0.00    +0.560 C 
ATOM      3  O   LIG    1        6.112   3.755  -1.478  0.00  0.00    -0.530 OA
ENDROOT
BRANCH   2   4
ATOM      4  C   LIG    1        6.983   2.884  -3.399  0.00  0.00    -0.080 C 
ATOM      5  C   LIG    1        6.941   4.085  -4.032  0.00  0.00    +0.190 C 
BRANCH   5   6
ATOM      6  C   LIG    1        7.388   4.195  -5.368  0.00  0.00    -0.010 A 
ATOM      7  C   LIG    1        7.394   5.350  -6.128  0.00  0.00    +0.010 A 
ATOM      8  C   LIG    1        7.917   5.010  -7.378  0.00  0.00    -0.030 A 
ATOM      9  C   LIG    1        8.202   3.663  -7.341  0.00  0.00    +0.050 A 
ATOM     10  O   LIG    1        7.877   3.190  -6.124  0.00  0.00    -0.150 OA
BRANCH   9  11
ATOM     11  C   LIG    1        8.768   2.872  -8.450  0.00  0.00    -0.060 A 
ATOM     12  C   LIG    1        8.196   2.937  -9.722  0.00  0.00    +0.080 A 
ATOM     13  C   LIG    1        8.733   2.199 -10.756  0.00  0.00    +0.010 A 
ATOM     14  C   LIG    1        9.830   1.385 -10.533  0.00  0.00    +0.070 A 
ATOM     15  C   LIG    1       10.400   1.309  -9.275  0.00  0.00    -0.010 A 
ATOM     16  C   LIG    1        9.877   2.047  -8.231  0.00  0.00    +0.120 A 
ATOM     17  F   LIG    1       10.434   1.972  -7.002  0.00  0.00    -0.130 F 
ENDBRANCH   9  11
ENDBRANCH   5   6
ENDBRANCH   2   4
BRANCH   1  18
ATOM     18  C   LIG    1        7.088   0.401  -2.135  0.00  0.00    +0.290 C 
BRANCH  18  20
ATOM     19  C   LIG    1        6.466  -1.538  -3.583  0.00  0.00    +0.030 C 
ATOM     20  C   LIG    1        5.934  -0.305  -2.850  0.00  0.00    -0.010 C 
ENDBRANCH  18  20
ENDBRANCH   1  18
BRANCH   1  21
ATOM     21  C   LIG    1        6.115   1.467  -0.049  0.00  0.00    +0.460 C 
BRANCH  21  22
ATOM     22  C   LIG    1        4.644   1.137  -0.036  0.00  0.00    +0.150 A 
ATOM     23  N   LIG    1        4.124  -0.058  -0.039  0.00  0.00    -0.270 NA
ATOM     24  N   LIG    1        2.841   0.030  -0.026  0.00  0.00    -0.270 NA
ATOM     25  C   LIG    1        2.494   1.299  -0.015  0.00  0.00    +0.240 A 
ATOM     26  O   LIG    1        3.632   2.023  -0.028  0.00  0.00    -0.210 OA
BRANCH  25  27
ATOM     27  C   LIG    1        1.122   1.828   0.001  0.00  0.00    -0.160 A 
ATOM     28  C   LIG    1       -0.013   1.076   0.008  0.00  0.00    +0.100 A 
ATOM     29  C   LIG    1       -1.181   1.806   0.017  0.00  0.00    +0.010 A 
ATOM     30  C   LIG    1       -1.022   3.133   0.028  0.00  0.00    -0.010 A 
ATOM     31  S   LIG    1        0.690   3.533   0.014  0.00  0.00    +0.180 S 
ENDBRANCH  25  27
ENDBRANCH  21  22
ENDBRANCH   1  21
TORSDOF 8
