REMARK  Name = ZINCrD00000hQ5R8.0
REMARK                            x       y       z     vdW  Elec       q    Type
REMARK                         _______ _______ _______ _____ _____    ______ ____
ROOT
ATOM      1  O   LIG    1       -1.621   0.748  -1.960  0.00  0.00    -0.530 OA
ATOM      2  C   LIG    1       -2.162  -0.034  -1.208  0.00  0.00    +0.540 C 
ATOM      3  N   LIG    1       -3.416  -0.457  -1.464  0.00  0.00    -0.620 N 
ATOM      4  C   LIG    1       -4.226  -1.323  -0.589  0.00  0.00    +0.260 C 
ATOM      5  C   LIG    1       -5.696  -1.009  -0.973  0.00  0.00    +0.020 C 
ATOM      6  C   LIG    1       -5.578  -0.812  -2.508  0.00  0.00    +0.250 C 
ATOM      7  C   LIG    1       -4.201  -0.134  -2.665  0.00  0.00    +0.250 C 
ENDROOT
BRANCH   2   8
ATOM      8  C   LIG    1       -1.433  -0.534   0.012  0.00  0.00    -0.010 C 
ATOM      9  C   LIG    1       -0.369   0.485   0.425  0.00  0.00    +0.040 C 
ATOM     10  C   LIG    1        0.371  -0.022   1.663  0.00  0.00    +0.010 C 
ATOM     11  C   LIG    1        1.043  -1.359   1.344  0.00  0.00    +0.010 C 
ATOM     12  C   LIG    1       -0.020  -2.379   0.932  0.00  0.00    -0.010 C 
ATOM     13  C   LIG    1        0.652  -3.716   0.612  0.00  0.00    +0.010 C 
ATOM     14  C   LIG    1        1.647  -3.525  -0.534  0.00  0.00    +0.010 C 
ATOM     15  C   LIG    1        0.907  -3.017  -1.773  0.00  0.00    +0.000 C 
ATOM     16  C   LIG    1        0.234  -1.680  -1.454  0.00  0.00    +0.010 C 
ATOM     17  C   LIG    1       -0.761  -1.871  -0.307  0.00  0.00    +0.000 C 
ENDBRANCH   2   8
BRANCH   6  18
ATOM     18  N   LIG    1       -6.645   0.062  -3.001  0.00  0.00    -0.690 N 
ATOM     19  H   LIG    1       -6.515   1.023  -3.021  0.00  0.00    +0.420 HD
BRANCH  18  20
ATOM     20  C   LIG    1       -7.846  -0.487  -3.442  0.00  0.00    +0.420 A 
ATOM     21  N   LIG    1       -8.014  -1.788  -3.412  0.00  0.00    -0.350 NA
ATOM     22  N   LIG    1       -9.213  -2.360  -3.850  0.00  0.00    -0.250 N 
ATOM     23  C   LIG    1       -9.649  -3.648  -3.930  0.00  0.00    +0.170 A 
ATOM     24  C   LIG    1      -10.905  -3.615  -4.436  0.00  0.00    +0.200 A 
ATOM     25  N   LIG    1      -11.238  -2.344  -4.665  0.00  0.00    -0.460 NA
ATOM     26  C   LIG    1      -10.225  -1.562  -4.316  0.00  0.00    +0.140 A 
ATOM     27  C   LIG    1      -10.043  -0.166  -4.347  0.00  0.00    +0.180 A 
ATOM     28  C   LIG    1       -8.868   0.361  -3.910  0.00  0.00    -0.050 A 
ENDBRANCH  18  20
ENDBRANCH   6  18
TORSDOF 3
