REMARK  Name = ZINCnE000001EfQE.0
REMARK                            x       y       z     vdW  Elec       q    Type
REMARK                         _______ _______ _______ _____ _____    ______ ____
ROOT
ATOM      1  S   LIG    1        1.232  -2.441  -0.023  0.00  0.00    +2.610 S 
ATOM      2  O   LIG    1       -0.125  -2.860  -0.047  0.00  0.00    -1.020 OA
ATOM      3  O   LIG    1        2.150  -2.835   0.987  0.00  0.00    -0.990 OA
ENDROOT
BRANCH   1   9
ATOM      4  C   LIG    1        2.396   0.029  -0.021  0.00  0.00    -0.060 A 
ATOM      5  C   LIG    1        2.377   1.411  -0.014  0.00  0.00    +0.020 A 
ATOM      6  C   LIG    1        1.171   2.086   0.002  0.00  0.00    +0.040 A 
ATOM      7  C   LIG    1       -0.017   1.378   0.010  0.00  0.00    +0.000 A 
ATOM      8  C   LIG    1        0.002  -0.004   0.002  0.00  0.00    +0.100 A 
ATOM      9  C   LIG    1        1.208  -0.679  -0.014  0.00  0.00    -0.590 A 
BRANCH   4  11
ATOM     10  C   LIG    1        4.861   0.303  -0.043  0.00  0.00    +0.070 C 
ATOM     11  C   LIG    1        3.711  -0.707  -0.038  0.00  0.00    +0.300 C 
ATOM     12  F   LIG    1        3.785  -1.504  -1.185  0.00  0.00    -0.150 F 
ATOM     13  F   LIG    1        3.807  -1.516   1.099  0.00  0.00    -0.160 F 
ENDBRANCH   4  11
ENDBRANCH   1   9
BRANCH   1  14
ATOM     14  N   LIG    1        1.893  -2.914  -1.466  0.00  0.00    -1.050 NA
BRANCH  14  15
ATOM     15  C   LIG    1        2.038  -4.266  -1.754  0.00  0.00    +0.450 A 
ATOM     16  C   LIG    1        2.589  -4.658  -2.970  0.00  0.00    -0.080 A 
ATOM     17  C   LIG    1        2.732  -6.007  -3.239  0.00  0.00    -0.030 A 
ATOM     18  C   LIG    1        2.310  -6.924  -2.288  0.00  0.00    -0.270 A 
ATOM     19  C   LIG    1        2.554  -8.328  -2.792  0.00  0.00    +0.070 C 
ATOM     20  C   LIG    1        3.561  -8.172  -3.952  0.00  0.00    +0.020 C 
ATOM     21  C   LIG    1        1.767  -6.464  -1.103  0.00  0.00    +0.300 A 
ATOM     22  C   LIG    1        3.287  -6.734  -4.441  0.00  0.00    +0.060 C 
ATOM     23  N   LIG    1        1.647  -5.171  -0.870  0.00  0.00    -0.600 NA
ENDBRANCH  14  15
ENDBRANCH   1  14
TORSDOF 4
