REMARK  Name = ZINCqH0000050K5J.0
REMARK                            x       y       z     vdW  Elec       q    Type
REMARK                         _______ _______ _______ _____ _____    ______ ____
ROOT
ATOM      1  C   LIG    1        8.357   0.062  -0.058  0.00  0.00    -0.190 A 
ATOM      2  C   LIG    1        8.878   1.362  -0.058  0.00  0.00    +0.090 A 
ATOM      3  C   LIG    1       10.235   1.554  -0.072  0.00  0.00    +0.020 A 
ATOM      4  C   LIG    1       11.095   0.460  -0.098  0.00  0.00    +0.180 A 
ATOM      5  C   LIG    1       10.582  -0.834  -0.104  0.00  0.00    -0.020 A 
ATOM      6  C   LIG    1        9.226  -1.036  -0.084  0.00  0.00    +0.110 A 
ENDROOT
BRANCH   4   7
ATOM      7  N   LIG    1       12.474   0.660  -0.118  0.00  0.00    -0.680 N 
ATOM      8  H   LIG    1       13.060   0.045   0.349  0.00  0.00    +0.420 HD
ATOM      9  C   LIG    1       12.992   1.708  -0.788  0.00  0.00    +0.510 C 
ATOM     10  O   LIG    1       12.257   2.524  -1.302  0.00  0.00    -0.510 OA
BRANCH   9  11
ATOM     11  C   LIG    1       14.487   1.868  -0.897  0.00  0.00    +0.060 C 
BRANCH  11  12
ATOM     12  C   LIG    1       14.808   3.130  -1.701  0.00  0.00    +0.000 C 
ATOM     13  C   LIG    1       14.313   2.958  -3.138  0.00  0.00    +0.020 C 
ATOM     14  C   LIG    1       16.321   3.360  -1.706  0.00  0.00    +0.030 C 
ENDBRANCH  11  12
ENDBRANCH   9  11
ENDBRANCH   4   7
BRANCH   1  15
ATOM     15  C   LIG    1        6.904  -0.149  -0.037  0.00  0.00    +0.400 C 
ATOM     16  O   LIG    1        6.455  -1.276  -0.042  0.00  0.00    -0.430 OA
BRANCH  15  17
ATOM     17  C   LIG    1        5.971   1.034  -0.009  0.00  0.00    +0.240 C 
BRANCH  17  18
ATOM     18  O   LIG    1        4.596   0.567   0.008  0.00  0.00    -0.340 OA
BRANCH  18  19
ATOM     19  C   LIG    1        3.630   1.507   0.034  0.00  0.00    +0.550 C 
ATOM     20  O   LIG    1        3.929   2.686   0.042  0.00  0.00    -0.490 OA
BRANCH  19  25
ATOM     21  C   LIG    1       -1.230  -0.829   0.086  0.00  0.00    +0.200 C 
ATOM     22  C   LIG    1        0.001   0.042   0.076  0.00  0.00    +0.060 A 
ATOM     23  N   LIG    1       -0.012   1.335   0.090  0.00  0.00    -0.480 NA
ATOM     24  C   LIG    1        1.143   1.951   0.079  0.00  0.00    +0.170 A 
ATOM     25  C   LIG    1        2.220   1.108   0.053  0.00  0.00    -0.310 A 
ATOM     26  C   LIG    1        1.275   3.452   0.093  0.00  0.00    +0.170 C 
ATOM     27  S   LIG    1        1.606  -0.543   0.044  0.00  0.00    +0.220 S 
ENDBRANCH  19  25
ENDBRANCH  18  19
ENDBRANCH  17  18
ENDBRANCH  15  17
ENDBRANCH   1  15
TORSDOF 8
