REMARK  Name = ZINCpk00000eaQwu.0
REMARK                            x       y       z     vdW  Elec       q    Type
REMARK                         _______ _______ _______ _____ _____    ______ ____
ROOT
ATOM      1  S   LIG    1        0.584   6.614  -1.477  0.00  0.00    +2.690 S 
ATOM      2  O   LIG    1       -0.605   6.125  -2.082  0.00  0.00    -0.950 OA
ATOM      3  O   LIG    1        1.375   7.649  -2.045  0.00  0.00    -0.950 OA
ENDROOT
BRANCH   1   9
ATOM      4  C   LIG    1       -3.172   7.815   5.104  0.00  0.00    +0.070 C 
ATOM      5  C   LIG    1       -1.998   7.259   4.295  0.00  0.00    +0.170 C 
ATOM      6  C   LIG    1       -2.485   6.698   2.938  0.00  0.00    +0.090 C 
ATOM      7  C   LIG    1       -1.342   7.074   2.015  0.00  0.00    -0.200 A 
ATOM      8  C   LIG    1       -0.996   6.649   0.752  0.00  0.00    +0.170 A 
ATOM      9  C   LIG    1        0.134   7.160   0.136  0.00  0.00    -0.710 A 
ATOM     10  C   LIG    1        0.904   8.104   0.789  0.00  0.00    +0.170 A 
ATOM     11  C   LIG    1        0.553   8.538   2.052  0.00  0.00    -0.020 A 
ATOM     12  C   LIG    1       -0.579   8.025   2.680  0.00  0.00    +0.170 A 
ATOM     13  O   LIG    1       -1.106   8.315   3.901  0.00  0.00    -0.300 OA
ENDBRANCH   1   9
BRANCH   1  14
ATOM     14  N   LIG    1        1.586   5.309  -1.291  0.00  0.00    -1.000 NA
ATOM     15  C   LIG    1        3.042   5.483  -1.188  0.00  0.00    +0.310 C 
ATOM     16  C   LIG    1        3.536   4.730   0.052  0.00  0.00    +0.180 C 
ATOM     17  N   LIG    1        3.081   3.335  -0.013  0.00  0.00    -0.520 NA
ATOM     18  C   LIG    1        1.615   3.251   0.016  0.00  0.00    +0.220 C 
ATOM     19  C   LIG    1        3.676   2.536   1.067  0.00  0.00    +0.190 C 
ATOM     20  C   LIG    1        1.042   3.944  -1.225  0.00  0.00    +0.330 C 
BRANCH  18  21
ATOM     21  C   LIG    1        1.194   1.804   0.024  0.00  0.00    +0.200 A 
ATOM     22  N   LIG    1        1.421   0.941  -0.929  0.00  0.00    -0.460 NA
ATOM     23  C   LIG    1        0.905  -0.247  -0.581  0.00  0.00    +0.140 A 
ATOM     24  C   LIG    1        0.336  -0.115   0.633  0.00  0.00    +0.130 A 
ATOM     25  N   LIG    1        0.519   1.186   1.017  0.00  0.00    -0.570 N 
ATOM     26  H   LIG    1        0.221   1.588   1.847  0.00  0.00    +0.420 HD
ENDBRANCH  18  21
ENDBRANCH   1  14
TORSDOF 3
