REMARK  Name = ZINCpe000000XMJd.0
REMARK                            x       y       z     vdW  Elec       q    Type
REMARK                         _______ _______ _______ _____ _____    ______ ____
ROOT
ATOM      1  N   LIG    1       -2.991   4.114  -1.332  0.00  0.00    -0.610 N 
ATOM      2  C   LIG    1       -2.652   5.313  -2.108  0.00  0.00    +0.300 C 
ATOM      3  C   LIG    1       -3.651   5.342  -3.284  0.00  0.00    -0.010 C 
ATOM      4  C   LIG    1       -4.025   3.847  -3.419  0.00  0.00    +0.070 C 
ATOM      5  C   LIG    1       -3.760   3.273  -2.045  0.00  0.00    +0.520 C 
ATOM      6  O   LIG    1       -4.180   2.208  -1.645  0.00  0.00    -0.520 OA
ENDROOT
BRANCH   3   7
ATOM      7  C   LIG    1       -2.995   5.849  -4.542  0.00  0.00    +0.530 C 
ATOM      8  N   LIG    1       -3.671   5.835  -5.707  0.00  0.00    -0.730 N 
ATOM      9  H   LIG    1       -4.580   5.498  -5.737  0.00  0.00    +0.400 HD
ATOM     10  O   LIG    1       -1.858   6.271  -4.505  0.00  0.00    -0.530 OA
BRANCH   8  11
ATOM     11  C   LIG    1       -3.033   6.329  -6.930  0.00  0.00    +0.290 C 
BRANCH  11  12
ATOM     12  C   LIG    1       -4.009   6.202  -8.101  0.00  0.00    +0.010 C 
ATOM     13  C   LIG    1       -3.399   6.831  -9.366  0.00  0.00    +0.080 C 
ATOM     14  C   LIG    1       -4.233   6.395 -10.587  0.00  0.00    -0.310 C 
ATOM     15  S   LIG    1       -4.945   4.776 -10.123  0.00  0.00    +2.390 S 
ATOM     16  O   LIG    1       -4.350   3.756 -10.914  0.00  0.00    -0.930 OA
ATOM     17  O   LIG    1       -6.360   4.886 -10.054  0.00  0.00    -0.930 OA
ATOM     18  C   LIG    1       -4.258   4.706  -8.426  0.00  0.00    -0.310 C 
ENDBRANCH  11  12
ENDBRANCH   8  11
ENDBRANCH   3   7
BRANCH   1  19
ATOM     19  C   LIG    1       -2.553   3.869   0.044  0.00  0.00    +0.350 C 
BRANCH  19  24
ATOM     20  C   LIG    1        2.490   1.048  -0.016  0.00  0.00    +0.090 C 
ATOM     21  C   LIG    1        1.175   1.783   0.000  0.00  0.00    -0.080 A 
ATOM     22  C   LIG    1       -0.013   1.076   0.008  0.00  0.00    +0.000 A 
ATOM     23  C   LIG    1       -1.219   1.751   0.017  0.00  0.00    +0.040 A 
ATOM     24  C   LIG    1       -1.238   3.133   0.029  0.00  0.00    -0.120 A 
ATOM     25  C   LIG    1       -0.050   3.840   0.022  0.00  0.00    +0.020 A 
ATOM     26  C   LIG    1        1.156   3.165   0.008  0.00  0.00    +0.000 A 
ENDBRANCH  19  24
ENDBRANCH   1  19
TORSDOF 5
