REMARK  Name = ZINCtV00000L6kNL.0
REMARK                            x       y       z     vdW  Elec       q    Type
REMARK                         _______ _______ _______ _____ _____    ______ ____
ROOT
ATOM      1  C   LIG    1        3.644   0.039  -6.447  0.00  0.00    +0.180 C 
ATOM      2  C   LIG    1        2.921  -0.268  -5.161  0.00  0.00    +0.140 A 
ATOM      3  N   LIG    1        2.670  -1.466  -4.694  0.00  0.00    -0.310 NA
ATOM      4  N   LIG    1        1.983  -1.354  -3.481  0.00  0.00    -0.300 N 
ATOM      5  C   LIG    1        1.498  -2.289  -2.604  0.00  0.00    +0.180 A 
ATOM      6  C   LIG    1        0.849  -1.858  -1.464  0.00  0.00    -0.070 A 
ATOM      7  C   LIG    1        0.707  -0.490  -1.238  0.00  0.00    +0.240 A 
ATOM      8  N   LIG    1        1.182   0.380  -2.105  0.00  0.00    -0.460 NA
ATOM      9  C   LIG    1        1.817  -0.021  -3.211  0.00  0.00    +0.300 A 
ATOM     10  C   LIG    1        2.407   0.682  -4.269  0.00  0.00    -0.210 A 
ENDROOT
BRANCH  10  11
ATOM     11  C   LIG    1        2.475   2.154  -4.417  0.00  0.00    +0.020 A 
ATOM     12  C   LIG    1        3.204   2.917  -3.505  0.00  0.00    +0.040 A 
ATOM     13  C   LIG    1        3.267   4.287  -3.651  0.00  0.00    +0.020 A 
ATOM     14  C   LIG    1        2.600   4.907  -4.693  0.00  0.00    -0.040 A 
ATOM     15  C   LIG    1        1.870   4.155  -5.599  0.00  0.00    +0.020 A 
ATOM     16 CL   LIG    1        2.677   6.632  -4.866  0.00  0.00    -0.070 Cl
ATOM     17  C   LIG    1        1.804   2.783  -5.466  0.00  0.00    +0.040 A 
ENDBRANCH  10  11
BRANCH   7  18
ATOM     18  C   LIG    1        0.002  -0.004   0.002  0.00  0.00    -0.020 C 
ATOM     19  C   LIG    1       -1.433  -0.534   0.013  0.00  0.00    +0.050 C 
ATOM     20  C   LIG    1        0.742  -0.511   1.242  0.00  0.00    +0.050 C 
ATOM     21  C   LIG    1       -0.019   1.526   0.010  0.00  0.00    +0.050 C 
ENDBRANCH   7  18
BRANCH   5  22
ATOM     22  S   LIG    1        1.698  -4.010  -2.925  0.00  0.00    +0.020 S 
BRANCH  22  23
ATOM     23  C   LIG    1        0.881  -4.700  -1.465  0.00  0.00    +0.130 C 
BRANCH  23  24
ATOM     24  C   LIG    1        0.931  -6.205  -1.525  0.00  0.00    -0.090 A 
ATOM     25  C   LIG    1       -0.091  -6.906  -2.137  0.00  0.00    +0.030 A 
ATOM     26  C   LIG    1       -0.042  -8.287  -2.196  0.00  0.00    +0.010 A 
ATOM     27  C   LIG    1        1.023  -8.966  -1.635  0.00  0.00    +0.020 A 
ATOM     28  C   LIG    1        2.043  -8.264  -1.019  0.00  0.00    +0.010 A 
ATOM     29  C   LIG    1        1.997  -6.883  -0.964  0.00  0.00    +0.030 A 
ENDBRANCH  23  24
ENDBRANCH  22  23
ENDBRANCH   5  22
TORSDOF 5
