REMARK  Name = ZINCtV000002OaIq.0
REMARK                            x       y       z     vdW  Elec       q    Type
REMARK                         _______ _______ _______ _____ _____    ______ ____
ROOT
ATOM      1  C   LIG    1       -3.685  -1.052  -0.198  0.00  0.00    -0.080 A 
ATOM      2  C   LIG    1       -4.903  -0.393  -0.288  0.00  0.00    +0.030 A 
ATOM      3  C   LIG    1       -6.085  -1.142  -0.397  0.00  0.00    +0.190 A 
ATOM      4  N   LIG    1       -6.085  -2.458  -0.404  0.00  0.00    -0.420 NA
ATOM      5  C   LIG    1       -4.962  -3.172  -0.315  0.00  0.00    +0.130 A 
ATOM      6  C   LIG    1       -4.993  -4.579  -0.326  0.00  0.00    +0.050 A 
ATOM      7  C   LIG    1       -3.830  -5.280  -0.234  0.00  0.00    +0.030 A 
ATOM      8  C   LIG    1       -2.604  -4.629  -0.129  0.00  0.00    +0.030 A 
ATOM      9  C   LIG    1       -2.535  -3.267  -0.117  0.00  0.00    +0.050 A 
ATOM     10  C   LIG    1       -3.711  -2.515  -0.208  0.00  0.00    -0.060 A 
ENDROOT
BRANCH   3  11
ATOM     11  C   LIG    1       -7.379  -0.425  -0.499  0.00  0.00    -0.050 A 
ATOM     12  C   LIG    1       -7.410   0.968  -0.489  0.00  0.00    +0.040 A 
ATOM     13  C   LIG    1       -8.617   1.630  -0.591  0.00  0.00    +0.020 A 
ATOM     14  C   LIG    1       -9.796   0.913  -0.692  0.00  0.00    +0.050 A 
ATOM     15  C   LIG    1       -9.773  -0.470  -0.697  0.00  0.00    +0.020 A 
ATOM     16  C   LIG    1       -8.571  -1.143  -0.602  0.00  0.00    -0.000 A 
ATOM     17 CL   LIG    1       -8.543  -2.879  -0.609  0.00  0.00    -0.030 Cl
ENDBRANCH   3  11
BRANCH   1  19
ATOM     18  O   LIG    1       -1.355  -0.903  -0.106  0.00  0.00    -0.490 OA
ATOM     19  C   LIG    1       -2.413  -0.305  -0.089  0.00  0.00    +0.570 C 
ATOM     20  N   LIG    1       -2.428   1.037   0.029  0.00  0.00    -0.660 N 
ATOM     21  H   LIG    1       -3.271   1.507   0.123  0.00  0.00    +0.420 HD
BRANCH  20  22
ATOM     22  C   LIG    1       -1.225   1.754   0.015  0.00  0.00    +0.140 A 
ATOM     23  C   LIG    1       -0.106   1.222  -0.610  0.00  0.00    +0.090 A 
ATOM     24  C   LIG    1        1.079   1.932  -0.628  0.00  0.00    +0.050 A 
ATOM     25  C   LIG    1        1.154   3.173  -0.020  0.00  0.00    +0.080 A 
ATOM     26  C   LIG    1        0.040   3.707   0.610  0.00  0.00    +0.060 A 
ATOM     27  F   LIG    1        0.115   4.918   1.204  0.00  0.00    -0.110 F 
ATOM     28  F   LIG    1        2.314   3.865  -0.040  0.00  0.00    -0.120 F 
ATOM     29  C   LIG    1       -1.149   2.998   0.631  0.00  0.00    +0.060 A 
ATOM     30  F   LIG    1       -2.235   3.517   1.244  0.00  0.00    -0.120 F 
ENDBRANCH  20  22
ENDBRANCH   1  19
TORSDOF 3
