REMARK  Name = ZINCvU0000000CSH.0
REMARK                            x       y       z     vdW  Elec       q    Type
REMARK                         _______ _______ _______ _____ _____    ______ ____
ROOT
ATOM      1  N   LIG    1       -2.996   3.716   0.742  0.00  0.00    -0.600 N 
ATOM      2  C   LIG    1       -2.285   4.465   1.608  0.00  0.00    +0.550 C 
ATOM      3  O   LIG    1       -2.314   4.212   2.797  0.00  0.00    -0.540 OA
ENDROOT
BRANCH   2   4
ATOM      4  C   LIG    1       -1.474   5.589   1.115  0.00  0.00    -0.070 C 
ATOM      5  C   LIG    1       -0.845   6.383   1.976  0.00  0.00    +0.120 C 
ENDBRANCH   2   4
BRANCH   1   6
ATOM      6  C   LIG    1       -3.809   2.601   1.234  0.00  0.00    +0.330 C 
BRANCH   6  10
ATOM      7  C   LIG    1       -1.408  -0.927   1.453  0.00  0.00    +0.130 A 
ATOM      8  C   LIG    1       -1.591  -0.140   2.581  0.00  0.00    -0.020 A 
ATOM      9  C   LIG    1       -2.368   1.000   2.508  0.00  0.00    +0.090 A 
ATOM     10  C   LIG    1       -2.962   1.357   1.312  0.00  0.00    -0.140 A 
ATOM     11  C   LIG    1       -2.786   0.572   0.188  0.00  0.00    +0.050 A 
ATOM     12  C   LIG    1       -2.006  -0.566   0.254  0.00  0.00    -0.080 A 
BRANCH   7  13
ATOM     13  O   LIG    1       -0.645  -2.049   1.523  0.00  0.00    -0.310 OA
BRANCH  13  14
ATOM     14  C   LIG    1       -0.500  -2.811   0.323  0.00  0.00    +0.350 C 
BRANCH  14  16
ATOM     15  C   LIG    1        1.032  -4.916   0.794  0.00  0.00    +0.080 C 
ATOM     16  C   LIG    1        0.352  -3.982   0.585  0.00  0.00    -0.210 C 
ENDBRANCH  14  16
ENDBRANCH  13  14
ENDBRANCH   7  13
ENDBRANCH   6  10
ENDBRANCH   1   6
BRANCH   1  17
ATOM     17  C   LIG    1       -2.956   4.016  -0.691  0.00  0.00    +0.330 C 
BRANCH  17  18
ATOM     18  C   LIG    1       -4.141   4.872  -1.059  0.00  0.00    -0.120 A 
ATOM     19  C   LIG    1       -5.316   4.281  -1.480  0.00  0.00    +0.040 A 
ATOM     20  C   LIG    1       -6.403   5.066  -1.818  0.00  0.00    +0.020 A 
ATOM     21  C   LIG    1       -6.318   6.443  -1.734  0.00  0.00    +0.030 A 
ATOM     22  C   LIG    1       -5.145   7.039  -1.313  0.00  0.00    +0.010 A 
ATOM     23  C   LIG    1       -4.050   6.255  -0.979  0.00  0.00    +0.100 A 
BRANCH  23  24
ATOM     24  O   LIG    1       -2.894   6.838  -0.570  0.00  0.00    -0.250 OA
BRANCH  24  25
ATOM     25  C   LIG    1       -1.961   7.136  -1.512  0.00  0.00    +0.110 A 
ATOM     26  C   LIG    1       -2.148   6.733  -2.826  0.00  0.00    -0.060 A 
ATOM     27  C   LIG    1       -1.201   7.042  -3.784  0.00  0.00    +0.050 A 
ATOM     28  C   LIG    1       -0.062   7.742  -3.431  0.00  0.00    -0.110 A 
ATOM     29  C   LIG    1        0.130   8.139  -2.120  0.00  0.00    +0.050 A 
ATOM     30  C   LIG    1        0.972   8.072  -4.476  0.00  0.00    +0.100 C 
ATOM     31  C   LIG    1       -0.817   7.838  -1.160  0.00  0.00    -0.010 A 
ENDBRANCH  24  25
ENDBRANCH  23  24
ENDBRANCH  17  18
ENDBRANCH   1  17
TORSDOF 10
