REMARK  Name = ZINCwl0000000dqV.0
REMARK                            x       y       z     vdW  Elec       q    Type
REMARK                         _______ _______ _______ _____ _____    ______ ____
ROOT
ATOM      1  C   LIG    1        1.433   7.872   1.663  0.00  0.00    +0.510 C 
ATOM      2  N   LIG    1        1.835   6.695   1.145  0.00  0.00    -0.610 N 
ATOM      3  C   LIG    1        3.143   6.433   0.517  0.00  0.00    +0.260 C 
ATOM      4  C   LIG    1        2.901   5.224  -0.423  0.00  0.00    +0.070 C 
ATOM      5  C   LIG    1        1.888   4.397   0.394  0.00  0.00    +0.090 C 
ATOM      6  C   LIG    1        1.025   3.532  -0.535  0.00  0.00    +0.040 C 
ATOM      7  C   LIG    1        1.242   2.093   0.001  0.00  0.00    +0.240 C 
ATOM      8  C   LIG    1        1.741   2.352   1.447  0.00  0.00    +0.210 C 
ATOM      9  O   LIG    1        2.554   3.541   1.321  0.00  0.00    -0.340 OA
ATOM     10  C   LIG    1        1.041   5.455   1.113  0.00  0.00    +0.260 C 
ATOM     11  O   LIG    1        0.330   7.972   2.158  0.00  0.00    -0.530 OA
ENDROOT
BRANCH   7  12
ATOM     12  N   LIG    1       -0.016   1.344   0.009  0.00  0.00    -0.720 N 
ATOM     13  H   LIG    1       -0.863   1.817   0.016  0.00  0.00    +0.400 HD
ATOM     14  C   LIG    1        0.002  -0.004   0.002  0.00  0.00    +0.600 C 
ATOM     15  O   LIG    1        1.064  -0.598  -0.011  0.00  0.00    -0.510 OA
BRANCH  14  16
ATOM     16  C   LIG    1       -1.256  -0.753   0.010  0.00  0.00    -0.050 A 
ATOM     17  C   LIG    1       -1.404  -2.147  -0.002  0.00  0.00    -0.080 A 
ATOM     18  C   LIG    1       -0.551  -3.257  -0.023  0.00  0.00    +0.070 A 
ATOM     19  C   LIG    1       -1.082  -4.510  -0.030  0.00  0.00    +0.020 A 
ATOM     20  C   LIG    1       -2.461  -4.718  -0.015  0.00  0.00    +0.030 A 
ATOM     21  C   LIG    1       -3.342  -3.684   0.014  0.00  0.00    +0.070 A 
ATOM     22  C   LIG    1       -2.859  -2.360   0.017  0.00  0.00    +0.050 A 
ATOM     23  N   LIG    1       -3.408  -1.158   0.028  0.00  0.00    -0.260 NA
ATOM     24  N   LIG    1       -2.515  -0.235   0.024  0.00  0.00    -0.330 N 
ATOM     25  H   LIG    1       -2.713   0.714   0.031  0.00  0.00    +0.450 HD
ENDBRANCH  14  16
ENDBRANCH   7  12
BRANCH   1  26
ATOM     26  C   LIG    1        2.354   9.065   1.628  0.00  0.00    +0.330 C 
BRANCH  26  28
ATOM     27  C   LIG    1        1.833  10.454   3.686  0.00  0.00    +0.330 C 
ATOM     28  N   LIG    1        1.689  10.213   2.248  0.00  0.00    -0.550 NA
BRANCH  28  29
ATOM     29  C   LIG    1        0.922  11.076   1.471  0.00  0.00    +0.320 C 
ATOM     30  C   LIG    1        0.778  10.868   0.100  0.00  0.00    -0.040 C 
ATOM     31  C   LIG    1        0.005  11.743  -0.634  0.00  0.00    +0.370 C 
ATOM     32  N   LIG    1       -0.585  12.772  -0.055  0.00  0.00    -0.500 NA
ATOM     33  C   LIG    1       -0.469  13.006   1.238  0.00  0.00    +0.380 C 
ATOM     34  H   LIG    1       -1.120  13.374  -0.597  0.00  0.00    +0.450 HD
ATOM     35  C   LIG    1        0.282  12.175   2.043  0.00  0.00    -0.030 C 
ENDBRANCH  28  29
ENDBRANCH  26  28
ENDBRANCH   1  26
TORSDOF 5
