REMARK  Name = ZINCwl0000000dqV.1
REMARK                            x       y       z     vdW  Elec       q    Type
REMARK                         _______ _______ _______ _____ _____    ______ ____
ROOT
ATOM      1  C   LIG    1        8.283   2.796   0.455  0.00  0.00    +0.510 C 
ATOM      2  N   LIG    1        7.133   2.113   0.285  0.00  0.00    -0.610 N 
ATOM      3  C   LIG    1        7.023   0.718  -0.182  0.00  0.00    +0.250 C 
ATOM      4  C   LIG    1        5.598   0.611  -0.784  0.00  0.00    +0.050 C 
ATOM      5  C   LIG    1        4.793   1.520   0.167  0.00  0.00    +0.100 C 
ATOM      6  C   LIG    1        3.564   2.094  -0.554  0.00  0.00    +0.040 C 
ATOM      7  C   LIG    1        2.422   1.187  -0.015  0.00  0.00    +0.240 C 
ATOM      8  C   LIG    1        2.921   0.903   1.425  0.00  0.00    +0.210 C 
ATOM      9  O   LIG    1        4.353   0.804   1.314  0.00  0.00    -0.350 OA
ATOM     10  C   LIG    1        5.780   2.635   0.537  0.00  0.00    +0.270 C 
ATOM     11  O   LIG    1        8.254   3.944   0.846  0.00  0.00    -0.530 OA
ENDROOT
BRANCH   7  12
ATOM     12  N   LIG    1        1.143   1.902   0.001  0.00  0.00    -0.710 N 
ATOM     13  H   LIG    1        1.130   2.872   0.007  0.00  0.00    +0.410 HD
ATOM     14  C   LIG    1       -0.014   1.212   0.009  0.00  0.00    +0.610 C 
ATOM     15  O   LIG    1        0.002  -0.004   0.002  0.00  0.00    -0.520 OA
BRANCH  14  16
ATOM     16  C   LIG    1       -1.301   1.931   0.019  0.00  0.00    -0.010 A 
ATOM     17  N   LIG    1       -1.475   3.236   0.026  0.00  0.00    -0.200 NA
ATOM     18  N   LIG    1       -2.718   3.554   0.034  0.00  0.00    -0.410 N 
ATOM     19  H   LIG    1       -3.050   4.466   0.041  0.00  0.00    +0.450 HD
ATOM     20  C   LIG    1       -3.517   2.440   0.032  0.00  0.00    +0.060 A 
ATOM     21  C   LIG    1       -4.890   2.221   0.038  0.00  0.00    +0.010 A 
ATOM     22  C   LIG    1       -5.375   0.932   0.033  0.00  0.00    +0.060 A 
ATOM     23  C   LIG    1       -4.507  -0.153   0.024  0.00  0.00    +0.000 A 
ATOM     24  C   LIG    1       -3.154   0.041   0.018  0.00  0.00    +0.090 A 
ATOM     25  C   LIG    1       -2.643   1.335   0.016  0.00  0.00    -0.110 A 
ENDBRANCH  14  16
ENDBRANCH   7  12
BRANCH   1  26
ATOM     26  C   LIG    1        9.604   2.134   0.158  0.00  0.00    +0.330 C 
BRANCH  26  28
ATOM     27  C   LIG    1       11.303   3.143   1.749  0.00  0.00    +0.330 C 
ATOM     28  N   LIG    1       10.693   3.079   0.418  0.00  0.00    -0.550 NA
BRANCH  28  29
ATOM     29  C   LIG    1       11.148   3.914  -0.597  0.00  0.00    +0.320 C 
ATOM     30  C   LIG    1       10.584   3.863  -1.872  0.00  0.00    -0.040 C 
ATOM     31  C   LIG    1       11.060   4.712  -2.849  0.00  0.00    +0.370 C 
ATOM     32  N   LIG    1       12.042   5.555  -2.594  0.00  0.00    -0.500 NA
ATOM     33  C   LIG    1       12.605   5.630  -1.402  0.00  0.00    +0.380 C 
ATOM     34  H   LIG    1       12.360   6.137  -3.302  0.00  0.00    +0.450 HD
ATOM     35  C   LIG    1       12.184   4.820  -0.369  0.00  0.00    -0.030 C 
ENDBRANCH  28  29
ENDBRANCH  26  28
ENDBRANCH   1  26
TORSDOF 5
