REMARK  Name = ZINCqH0000051ySo.0
REMARK                            x       y       z     vdW  Elec       q    Type
REMARK                         _______ _______ _______ _____ _____    ______ ____
ROOT
ATOM      1  O   LIG    1        0.577   4.078   0.018  0.00  0.00    -0.350 OA
ENDROOT
BRANCH   1   3
ATOM      2  O   LIG    1        1.967   5.808   0.015  0.00  0.00    -0.490 OA
ATOM      3  C   LIG    1        0.822   5.402   0.023  0.00  0.00    +0.520 C 
BRANCH   3   4
ATOM      4  C   LIG    1       -0.301   6.362   0.039  0.00  0.00    -0.100 A 
ATOM      5  C   LIG    1       -0.043   7.722   0.050  0.00  0.00    +0.160 A 
ATOM      6  C   LIG    1       -1.116   8.629   0.060  0.00  0.00    +0.060 A 
ATOM      7  N   LIG    1       -0.900   9.949   0.067  0.00  0.00    -0.410 NA
ATOM      8  C   LIG    1       -1.920  10.776   0.083  0.00  0.00    +0.260 A 
ATOM      9  C   LIG    1       -3.230  10.291   0.093  0.00  0.00    +0.280 A 
ATOM     10  N   LIG    1       -3.467   8.999   0.087  0.00  0.00    -0.430 NA
ATOM     11  C   LIG    1       -2.446   8.136   0.071  0.00  0.00    +0.100 A 
ATOM     12  C   LIG    1       -2.674   6.748   0.065  0.00  0.00    +0.060 A 
ATOM     13  C   LIG    1       -1.625   5.886   0.049  0.00  0.00    +0.090 A 
ENDBRANCH   3   4
ENDBRANCH   1   3
BRANCH   1  14
ATOM     14  C   LIG    1        1.729   3.194   0.003  0.00  0.00    +0.360 C 
BRANCH  14  15
ATOM     15  C   LIG    1        1.263   1.761  -0.001  0.00  0.00    -0.020 A 
ATOM     16  C   LIG    1       -0.016   1.344   0.009  0.00  0.00    +0.190 A 
ATOM     17  O   LIG    1        0.002  -0.004   0.002  0.00  0.00    -0.190 OA
ATOM     18  C   LIG    1        1.288  -0.395  -0.012  0.00  0.00    +0.240 A 
ATOM     19  N   LIG    1        2.050   0.674  -0.014  0.00  0.00    -0.460 NA
BRANCH  18  20
ATOM     20  C   LIG    1        1.765  -1.794  -0.025  0.00  0.00    -0.030 A 
ATOM     21  C   LIG    1        3.134  -2.068  -0.046  0.00  0.00    +0.110 A 
ATOM     22  C   LIG    1        3.573  -3.375  -0.052  0.00  0.00    +0.000 A 
ATOM     23  C   LIG    1        2.658  -4.416  -0.049  0.00  0.00    +0.120 A 
ATOM     24  C   LIG    1        1.298  -4.150  -0.033  0.00  0.00    +0.000 A 
ATOM     25  F   LIG    1        3.094  -5.695  -0.060  0.00  0.00    -0.130 F 
ATOM     26  C   LIG    1        0.848  -2.846  -0.022  0.00  0.00    +0.080 A 
ENDBRANCH  18  20
ENDBRANCH  14  15
ENDBRANCH   1  14
TORSDOF 5
