REMARK  Name = ZINCrH000004tiaN.0
REMARK                            x       y       z     vdW  Elec       q    Type
REMARK                         _______ _______ _______ _____ _____    ______ ____
ROOT
ATOM      1  C   LIG    1        3.705  -1.107   0.181  0.00  0.00    +0.240 C 
ATOM      2  C   LIG    1        3.477  -2.632   0.115  0.00  0.00    +0.030 C 
ATOM      3  C   LIG    1        2.043  -2.744  -0.466  0.00  0.00    +0.040 C 
ATOM      4  C   LIG    1        1.349  -1.520   0.188  0.00  0.00    +0.260 C 
ATOM      5  N   LIG    1        2.381  -0.468   0.205  0.00  0.00    -0.610 N 
ATOM      6  C   LIG    1        2.150   0.859   0.242  0.00  0.00    +0.570 C 
ATOM      7  O   LIG    1        3.075   1.640   0.128  0.00  0.00    -0.490 OA
ENDROOT
BRANCH   6   8
ATOM      8  C   LIG    1        0.774   1.364   0.419  0.00  0.00    -0.120 A 
ATOM      9  C   LIG    1       -0.253   0.485   0.771  0.00  0.00    +0.050 A 
ATOM     10  C   LIG    1       -1.539   0.956   0.933  0.00  0.00    +0.010 A 
ATOM     11  C   LIG    1       -1.810   2.305   0.755  0.00  0.00    +0.090 A 
ATOM     12  O   LIG    1       -3.079   2.776   0.918  0.00  0.00    -0.320 OA
ATOM     13  C   LIG    1       -3.287   3.634   2.042  0.00  0.00    +0.230 C 
ATOM     14  C   LIG    1       -2.920   5.069   1.701  0.00  0.00    -0.010 C 
ATOM     15  C   LIG    1       -1.438   5.233   1.402  0.00  0.00    +0.230 C 
ATOM     16  O   LIG    1       -1.075   4.508   0.225  0.00  0.00    -0.320 OA
ATOM     17  C   LIG    1       -0.792   3.184   0.403  0.00  0.00    +0.060 A 
ATOM     18  C   LIG    1        0.498   2.722   0.235  0.00  0.00    +0.100 A 
ENDBRANCH   6   8
BRANCH   1  19
ATOM     19  C   LIG    1        4.477  -0.751   1.453  0.00  0.00    +0.160 C 
BRANCH  19  20
ATOM     20  C   LIG    1        4.801   0.720   1.449  0.00  0.00    -0.060 A 
ATOM     21  C   LIG    1        5.573   1.255   0.435  0.00  0.00    +0.030 A 
ATOM     22  C   LIG    1        5.867   2.606   0.429  0.00  0.00    +0.010 A 
ATOM     23  C   LIG    1        5.396   3.420   1.442  0.00  0.00    +0.010 A 
ATOM     24  C   LIG    1        4.629   2.884   2.459  0.00  0.00    +0.010 A 
ATOM     25  C   LIG    1        4.331   1.534   2.463  0.00  0.00    +0.010 A 
ENDBRANCH  19  20
BRANCH  19  27
ATOM     26  N   LIG    1        6.690  -2.129   1.541  0.00  0.00    -0.420 NA
ATOM     27  C   LIG    1        5.726  -1.529   1.503  0.00  0.00    +0.210 C 
ENDBRANCH  19  27
ENDBRANCH   1  19
TORSDOF 4
