REMARK  Name = ZINCpk00000y6tUk.0
REMARK                            x       y       z     vdW  Elec       q    Type
REMARK                         _______ _______ _______ _____ _____    ______ ____
ROOT
ATOM      1  C   LIG    1       -1.823   1.952  -0.055  0.00  0.00    +0.000 C 
ATOM      2  C   LIG    1       -1.834   2.823  -1.330  0.00  0.00    +0.280 C 
ATOM      3  N   LIG    1       -2.514   1.988  -2.347  0.00  0.00    -0.620 N 
ATOM      4  C   LIG    1       -3.613   1.328  -1.604  0.00  0.00    +0.290 C 
ATOM      5  C   LIG    1       -2.204   1.859  -3.652  0.00  0.00    +0.570 C 
ATOM      6  O   LIG    1       -2.865   1.128  -4.365  0.00  0.00    -0.520 OA
ATOM      7  C   LIG    1       -2.996   0.966  -0.236  0.00  0.00    +0.100 C 
ENDROOT
BRANCH   7   8
ATOM      8  C   LIG    1       -4.011   1.153   0.862  0.00  0.00    -0.230 A 
ATOM      9  C   LIG    1       -4.398   0.213   1.756  0.00  0.00    +0.250 A 
ATOM     10  N   LIG    1       -5.319   0.773   2.568  0.00  0.00    -0.380 N 
ATOM     11  N   LIG    1       -5.504   2.101   2.160  0.00  0.00    -0.290 NA
ATOM     12  C   LIG    1       -6.004   0.111   3.681  0.00  0.00    +0.360 C 
ATOM     13  C   LIG    1       -4.715   2.329   1.141  0.00  0.00    +0.230 A 
ENDBRANCH   7   8
BRANCH   1  17
ATOM     14  C   LIG    1        1.907   1.150   0.255  0.00  0.00    +0.290 C 
ATOM     15  N   LIG    1        0.641   1.879   0.153  0.00  0.00    -0.740 N 
ATOM     16  H   LIG    1        0.638   2.849   0.156  0.00  0.00    +0.400 HD
ATOM     17  C   LIG    1       -0.520   1.202   0.056  0.00  0.00    +0.520 C 
ATOM     18  O   LIG    1       -0.517  -0.011   0.053  0.00  0.00    -0.530 OA
ENDBRANCH   1  17
BRANCH   5  19
ATOM     19  C   LIG    1       -1.066   2.602  -4.215  0.00  0.00    -0.100 C 
ATOM     20  C   LIG    1       -0.709   2.413  -5.482  0.00  0.00    +0.030 C 
BRANCH  20  21
ATOM     21  C   LIG    1        0.555   3.040  -6.011  0.00  0.00    -0.020 C 
ATOM     22  C   LIG    1        0.910   2.786  -7.477  0.00  0.00    +0.030 C 
ATOM     23  C   LIG    1        1.712   2.105  -6.366  0.00  0.00    +0.040 C 
ENDBRANCH  20  21
BRANCH  20  24
ATOM     24  C   LIG    1       -1.569   1.570  -6.389  0.00  0.00    +0.010 C 
ATOM     25  C   LIG    1       -1.891   2.129  -7.776  0.00  0.00    +0.000 C 
ATOM     26  C   LIG    1       -2.978   2.079  -6.700  0.00  0.00    +0.050 C 
ENDBRANCH  20  24
ENDBRANCH   5  19
TORSDOF 5
