REMARK  Name = ZINCkj000005jGpg.0
REMARK                            x       y       z     vdW  Elec       q    Type
REMARK                         _______ _______ _______ _____ _____    ______ ____
ROOT
ATOM      1  C   LIG    1       -0.512  -0.158  -5.759  0.00  0.00    +0.620 C 
ATOM      2  N   LIG    1       -1.833  -0.396  -5.884  0.00  0.00    -0.610 N 
ATOM      3  C   LIG    1       -2.895  -0.174  -4.874  0.00  0.00    +0.270 C 
ATOM      4  C   LIG    1       -3.845  -1.384  -5.031  0.00  0.00    -0.020 C 
ATOM      5  C   LIG    1       -3.614  -1.871  -6.467  0.00  0.00    -0.080 C 
ATOM      6  C   LIG    1       -4.872  -2.064  -7.311  0.00  0.00    +0.030 C 
ATOM      7  C   LIG    1       -4.173  -3.296  -7.916  0.00  0.00    +0.030 C 
ATOM      8  C   LIG    1       -3.341  -3.367  -6.622  0.00  0.00    +0.040 C 
ATOM      9  C   LIG    1       -2.551  -0.934  -7.066  0.00  0.00    +0.300 C 
ATOM     10  O   LIG    1        0.239  -0.394  -6.686  0.00  0.00    -0.510 OA
ENDROOT
BRANCH   1  13
ATOM     11  C   LIG    1       -0.130   1.141  -2.416  0.00  0.00    -0.030 A 
ATOM     12  N   LIG    1       -0.745   0.670  -3.443  0.00  0.00    -0.450 NA
ATOM     13  C   LIG    1        0.021   0.388  -4.500  0.00  0.00    +0.000 A 
ATOM     14  C   LIG    1        1.333   0.650  -4.305  0.00  0.00    -0.030 A 
ATOM     15  S   LIG    1        1.543   1.274  -2.727  0.00  0.00    +0.250 S 
BRANCH  11  17
ATOM     16  C   LIG    1       -0.876   3.052  -1.022  0.00  0.00    +0.060 C 
ATOM     17  C   LIG    1       -0.795   1.527  -1.120  0.00  0.00    +0.280 C 
BRANCH  17  18
ATOM     18  N   LIG    1       -0.012   1.005   0.008  0.00  0.00    -0.830 NA
ATOM     19  H   LIG    1        0.925   1.379   0.001  0.00  0.00    +0.350 HD
ATOM     20  H   LIG    1        0.002  -0.004   0.002  0.00  0.00    +0.350 HD
ENDBRANCH  17  18
ENDBRANCH  11  17
ENDBRANCH   1  13
BRANCH   4  21
ATOM     21  C   LIG    1       -5.299  -0.949  -4.843  0.00  0.00    +0.280 C 
BRANCH  21  22
ATOM     22  N   LIG    1       -5.507  -0.523  -3.453  0.00  0.00    -0.640 N 
ATOM     23  H   LIG    1       -6.466  -0.236  -3.329  0.00  0.00    +0.440 HD
ATOM     24  H   LIG    1       -4.895   0.251  -3.243  0.00  0.00    +0.430 HD
ATOM     25  H   LIG    1       -5.303  -1.291  -2.832  0.00  0.00    +0.440 HD
ENDBRANCH  21  22
ENDBRANCH   4  21
TORSDOF 5
