REMARK  Name = ZINCtj00001yywrl.0
REMARK                            x       y       z     vdW  Elec       q    Type
REMARK                         _______ _______ _______ _____ _____    ______ ____
ROOT
ATOM      1  C   LIG    1       -3.132   3.495   5.343  0.00  0.00    +0.140 A 
ATOM      2  C   LIG    1       -2.495   3.059   4.189  0.00  0.00    +0.150 A 
ATOM      3  C   LIG    1       -2.315   3.928   3.130  0.00  0.00    -0.660 A 
ATOM      4  C   LIG    1       -2.764   5.233   3.220  0.00  0.00    +0.130 A 
ATOM      5  C   LIG    1       -3.404   5.670   4.366  0.00  0.00    +0.050 A 
ATOM      6  C   LIG    1       -3.587   4.806   5.428  0.00  0.00    -0.020 A 
ATOM      7 CL   LIG    1       -4.385   5.356   6.869  0.00  0.00    -0.050 Cl
ENDROOT
BRANCH   1   9
ATOM      8  C   LIG    1       -2.491   1.562   6.574  0.00  0.00    +0.510 C 
ATOM      9  N   LIG    1       -3.316   2.617   6.417  0.00  0.00    -0.670 N 
ATOM     10  H   LIG    1       -4.037   2.767   7.048  0.00  0.00    +0.420 HD
ATOM     11  O   LIG    1       -1.531   1.430   5.845  0.00  0.00    -0.480 OA
BRANCH   8  12
ATOM     12  C   LIG    1       -2.763   0.548   7.655  0.00  0.00    +0.220 C 
BRANCH  12  14
ATOM     13  C   LIG    1       -1.812  -1.276   6.378  0.00  0.00    +0.220 C 
ATOM     14  N   LIG    1       -1.728  -0.495   7.619  0.00  0.00    -0.520 NA
BRANCH  14  15
ATOM     15  C   LIG    1       -1.819  -1.367   8.797  0.00  0.00    +0.130 C 
ATOM     16  C   LIG    1       -1.626  -0.534  10.067  0.00  0.00    +0.060 C 
ATOM     17  C   LIG    1       -1.641  -1.460  11.285  0.00  0.00    +0.260 C 
ATOM     18  N   LIG    1       -0.556  -2.443  11.172  0.00  0.00    -0.390 N 
ATOM     19  C   LIG    1       -0.775  -3.292   9.995  0.00  0.00    +0.270 C 
ATOM     20  C   LIG    1       -0.527  -3.279  12.379  0.00  0.00    +0.310 C 
ATOM     21  H   LIG    1        0.325  -1.960  11.078  0.00  0.00    +0.430 HD
ATOM     22  C   LIG    1       -0.726  -2.437   8.727  0.00  0.00    +0.070 C 
ENDBRANCH  14  15
ENDBRANCH  12  14
ENDBRANCH   8  12
ENDBRANCH   1   9
BRANCH   3  23
ATOM     23  S   LIG    1       -1.506   3.376   1.665  0.00  0.00    +2.690 S 
ATOM     24  O   LIG    1       -0.986   4.536   1.032  0.00  0.00    -0.940 OA
ATOM     25  O   LIG    1       -0.699   2.270   2.046  0.00  0.00    -0.940 OA
BRANCH  23  26
ATOM     26  N   LIG    1       -2.675   2.776   0.656  0.00  0.00    -1.000 NA
ATOM     27  C   LIG    1       -3.063   1.358   0.706  0.00  0.00    +0.260 C 
ATOM     28  C   LIG    1       -3.020   0.795  -0.719  0.00  0.00    +0.220 C 
ATOM     29  O   LIG    1       -3.791   1.635  -1.581  0.00  0.00    -0.370 OA
ATOM     30  C   LIG    1       -3.296   2.971  -1.692  0.00  0.00    +0.220 C 
ATOM     31  C   LIG    1       -3.354   3.647  -0.317  0.00  0.00    +0.270 C 
ENDBRANCH  23  26
ENDBRANCH   3  23
TORSDOF 6
