REMARK  Name = ZINCrD000000CHzd.0
REMARK                            x       y       z     vdW  Elec       q    Type
REMARK                         _______ _______ _______ _____ _____    ______ ____
ROOT
ATOM      1  O   LIG    1        3.727   1.755  -0.006  0.00  0.00    -0.520 OA
ATOM      2  C   LIG    1        4.798   1.183  -0.035  0.00  0.00    +0.580 C 
ATOM      3  N   LIG    1        4.843  -0.160  -0.143  0.00  0.00    -0.590 N 
ATOM      4  C   LIG    1        3.606  -0.950  -0.243  0.00  0.00    +0.300 C 
ATOM      5  C   LIG    1        3.727  -1.883  -1.458  0.00  0.00    +0.170 C 
ATOM      6  N   LIG    1        4.960  -2.672  -1.343  0.00  0.00    -0.530 NA
ATOM      7  C   LIG    1        6.149  -1.810  -1.373  0.00  0.00    +0.170 C 
ATOM      8  C   LIG    1        6.128  -0.874  -0.160  0.00  0.00    +0.300 C 
ENDROOT
BRANCH   2   9
ATOM      9  C   LIG    1        6.057   1.961   0.050  0.00  0.00    +0.060 A 
ATOM     10  N   LIG    1        7.175   1.362   0.420  0.00  0.00    -0.390 NA
ATOM     11  C   LIG    1        8.307   2.063   0.496  0.00  0.00    +0.070 A 
ATOM     12  C   LIG    1        9.514   1.453   0.886  0.00  0.00    +0.060 A 
ATOM     13  C   LIG    1       10.652   2.195   0.959  0.00  0.00    +0.040 A 
ATOM     14  C   LIG    1       10.644   3.553   0.642  0.00  0.00    +0.050 A 
ATOM     15  C   LIG    1        9.497   4.178   0.260  0.00  0.00    +0.050 A 
ATOM     16  C   LIG    1        8.299   3.447   0.178  0.00  0.00    +0.100 A 
ATOM     17  N   LIG    1        7.157   4.036  -0.195  0.00  0.00    -0.420 NA
ATOM     18  C   LIG    1        6.052   3.332  -0.264  0.00  0.00    +0.320 A 
ENDBRANCH   2   9
BRANCH   6  19
ATOM     19  C   LIG    1        5.028  -3.700  -2.391  0.00  0.00    +0.240 C 
BRANCH  19  20
ATOM     20  C   LIG    1        3.699  -4.402  -2.492  0.00  0.00    -0.120 A 
ATOM     21  C   LIG    1        3.453  -5.532  -1.731  0.00  0.00    +0.130 A 
ATOM     22  C   LIG    1        2.229  -6.175  -1.821  0.00  0.00    -0.010 A 
ATOM     23  C   LIG    1        1.258  -5.693  -2.677  0.00  0.00    +0.080 A 
ATOM     24  C   LIG    1        1.505  -4.568  -3.441  0.00  0.00    +0.020 A 
ATOM     25  F   LIG    1        4.405  -6.006  -0.898  0.00  0.00    -0.120 F 
ATOM     26  C   LIG    1        2.725  -3.922  -3.349  0.00  0.00    -0.010 A 
ATOM     27 CL   LIG    1        3.034  -2.509  -4.308  0.00  0.00    -0.050 Cl
ENDBRANCH  19  20
ENDBRANCH   6  19
TORSDOF 3
