REMARK  Name = ZINCvU00000009sx.0
REMARK                            x       y       z     vdW  Elec       q    Type
REMARK                         _______ _______ _______ _____ _____    ______ ____
ROOT
ATOM      1  C   LIG    1        1.402   4.106   1.416  0.00  0.00    -0.090 A 
ATOM      2  C   LIG    1        2.656   4.557   1.779  0.00  0.00    +0.090 A 
ATOM      3  C   LIG    1        2.882   5.019   3.063  0.00  0.00    -0.100 A 
ATOM      4  C   LIG    1        1.853   5.029   3.988  0.00  0.00    +0.070 A 
ATOM      5  C   LIG    1        0.597   4.580   3.631  0.00  0.00    +0.040 A 
ATOM      6 BR   LIG    1        4.600   5.635   3.557  0.00  0.00    -0.050 Br
ATOM      7  C   LIG    1        0.366   4.122   2.341  0.00  0.00    +0.170 A 
ENDROOT
BRANCH   7   8
ATOM      8  N   LIG    1       -0.907   3.671   1.974  0.00  0.00    -0.670 N 
ATOM      9  H   LIG    1       -1.235   3.824   1.074  0.00  0.00    +0.410 HD
ATOM     10  C   LIG    1       -1.677   3.024   2.871  0.00  0.00    +0.560 C 
ATOM     11  O   LIG    1       -1.300   2.904   4.021  0.00  0.00    -0.500 OA
BRANCH  10  12
ATOM     12  C   LIG    1       -2.979   2.461   2.458  0.00  0.00    -0.120 A 
ATOM     13  C   LIG    1       -3.417   2.603   1.140  0.00  0.00    +0.050 A 
ATOM     14  C   LIG    1       -4.632   2.072   0.759  0.00  0.00    +0.040 A 
ATOM     15  C   LIG    1       -5.420   1.407   1.683  0.00  0.00    -0.060 A 
ATOM     16  C   LIG    1       -4.994   1.268   2.993  0.00  0.00    +0.050 A 
ATOM     17 BR   LIG    1       -7.087   0.688   1.154  0.00  0.00    -0.030 Br
ATOM     18  C   LIG    1       -3.779   1.791   3.385  0.00  0.00    +0.100 A 
ENDBRANCH  10  12
ENDBRANCH   7   8
BRANCH   1  19
ATOM     19  C   LIG    1        1.157   3.604   0.016  0.00  0.00    +0.270 C 
BRANCH  19  20
ATOM     20  C   LIG    1        1.188   2.097   0.011  0.00  0.00    -0.120 A 
ATOM     21  C   LIG    1        0.006   1.381   0.016  0.00  0.00    +0.000 A 
ATOM     22  C   LIG    1        0.034  -0.001   0.011  0.00  0.00    +0.010 A 
ATOM     23  C   LIG    1        1.245  -0.667   0.000  0.00  0.00    +0.010 A 
ATOM     24  C   LIG    1        2.428   0.049  -0.005  0.00  0.00    +0.020 A 
ATOM     25  C   LIG    1        2.399   1.431  -0.001  0.00  0.00    +0.010 A 
ENDBRANCH  19  20
BRANCH  19  26
ATOM     26  N   LIG    1        2.202   4.119  -0.879  0.00  0.00    -0.660 NA
ATOM     27  H   LIG    1        3.043   3.565  -0.808  0.00  0.00    +0.360 HD
BRANCH  26  28
ATOM     28  C   LIG    1        1.725   4.176  -2.267  0.00  0.00    +0.270 C 
BRANCH  28  29
ATOM     29  C   LIG    1        2.821   4.708  -3.153  0.00  0.00    +0.460 C 
ATOM     30  O   LIG    1        3.891   5.008  -2.678  0.00  0.00    -0.490 OA
BRANCH  29  31
ATOM     31  O   LIG    1        2.610   4.848  -4.471  0.00  0.00    -0.360 OA
BRANCH  31  33
ATOM     32  C   LIG    1        3.285   5.455  -6.731  0.00  0.00    +0.070 C 
ATOM     33  C   LIG    1        3.711   5.366  -5.264  0.00  0.00    +0.200 C 
ENDBRANCH  31  33
ENDBRANCH  29  31
ENDBRANCH  28  29
ENDBRANCH  26  28
ENDBRANCH  19  26
ENDBRANCH   1  19
TORSDOF 9
