REMARK  Name = ZINCqH0000007dio.0
REMARK                            x       y       z     vdW  Elec       q    Type
REMARK                         _______ _______ _______ _____ _____    ______ ____
ROOT
ATOM      1  C   LIG    1        0.026  -0.527   1.446  0.00  0.00    +0.310 C 
ENDROOT
BRANCH   1   2
ATOM      2  C   LIG    1        0.225  -2.020   1.479  0.00  0.00    -0.120 A 
ATOM      3  C   LIG    1       -0.099  -2.735   2.618  0.00  0.00    +0.060 A 
ATOM      4  C   LIG    1        0.077  -4.104   2.648  0.00  0.00    -0.080 A 
ATOM      5  C   LIG    1        0.590  -4.762   1.540  0.00  0.00    +0.130 A 
ATOM      6  C   LIG    1        0.920  -4.042   0.401  0.00  0.00    -0.020 A 
ATOM      7  C   LIG    1        0.737  -2.673   0.373  0.00  0.00    +0.060 A 
BRANCH   5   8
ATOM      8  O   LIG    1        0.769  -6.109   1.570  0.00  0.00    -0.320 OA
ATOM      9  C   LIG    1        0.407  -6.785   2.776  0.00  0.00    +0.240 C 
ENDBRANCH   5   8
ENDBRANCH   1   2
BRANCH   1  10
ATOM     10  N   LIG    1       -1.230  -0.186   2.119  0.00  0.00    -0.730 N 
ATOM     11  H   LIG    1       -1.226   0.428   2.870  0.00  0.00    +0.390 HD
ATOM     12  C   LIG    1       -2.389  -0.726   1.695  0.00  0.00    +0.590 C 
ATOM     13  O   LIG    1       -2.384  -1.560   0.809  0.00  0.00    -0.510 OA
BRANCH  12  14
ATOM     14  C   LIG    1       -3.658  -0.307   2.300  0.00  0.00    -0.060 A 
ATOM     15  C   LIG    1       -4.913  -0.768   1.963  0.00  0.00    +0.050 A 
ATOM     16  C   LIG    1       -5.828  -0.107   2.789  0.00  0.00    -0.070 A 
ATOM     17  C   LIG    1       -5.133   0.733   3.592  0.00  0.00    +0.190 A 
ATOM     18  N   LIG    1       -3.813   0.621   3.305  0.00  0.00    -0.540 N 
ATOM     19  H   LIG    1       -3.096   1.113   3.736  0.00  0.00    +0.410 HD
ENDBRANCH  12  14
ENDBRANCH   1  10
BRANCH   1  20
ATOM     20  C   LIG    1       -0.029  -0.052  -0.007  0.00  0.00    +0.080 C 
BRANCH  20  24
ATOM     21  C   LIG    1       -0.242   4.215  -0.104  0.00  0.00    +0.120 A 
ATOM     22  C   LIG    1        0.992   3.581  -0.115  0.00  0.00    -0.020 A 
ATOM     23  C   LIG    1        1.058   2.201  -0.083  0.00  0.00    +0.050 A 
ATOM     24  C   LIG    1       -0.104   1.453  -0.042  0.00  0.00    -0.120 A 
ATOM     25  C   LIG    1       -1.335   2.083  -0.037  0.00  0.00    +0.050 A 
ATOM     26  C   LIG    1       -1.407   3.462  -0.063  0.00  0.00    -0.080 A 
BRANCH  21  28
ATOM     27  C   LIG    1       -1.614   6.157  -0.122  0.00  0.00    +0.240 C 
ATOM     28  O   LIG    1       -0.310   5.572  -0.135  0.00  0.00    -0.320 OA
ENDBRANCH  21  28
ENDBRANCH  20  24
ENDBRANCH   1  20
TORSDOF 7
