REMARK  Name = ZINCvU0000000E3q.0
REMARK                            x       y       z     vdW  Elec       q    Type
REMARK                         _______ _______ _______ _____ _____    ______ ____
ROOT
ATOM      1  C   LIG    1        1.527  -2.355  -0.875  0.00  0.00    +0.590 C 
ATOM      2  N   LIG    1        1.055  -2.013   0.340  0.00  0.00    -0.620 N 
ATOM      3  O   LIG    1        2.021  -3.453  -1.047  0.00  0.00    -0.490 OA
ENDROOT
BRANCH   1   7
ATOM      4  C   LIG    1        1.292   0.400  -4.099  0.00  0.00    +0.150 A 
ATOM      5  C   LIG    1        1.281  -0.967  -4.353  0.00  0.00    -0.050 A 
ATOM      6  C   LIG    1        1.357  -1.864  -3.309  0.00  0.00    +0.130 A 
ATOM      7  C   LIG    1        1.446  -1.398  -1.995  0.00  0.00    -0.130 A 
ATOM      8  C   LIG    1        1.452  -0.024  -1.744  0.00  0.00    +0.050 A 
ATOM      9 CL   LIG    1        1.171  -1.545  -5.986  0.00  0.00    -0.030 Cl
ATOM     10  C   LIG    1        1.380   0.867  -2.793  0.00  0.00    -0.060 A 
ATOM     11 CL   LIG    1        1.393   2.575  -2.482  0.00  0.00    -0.000 Cl
BRANCH   4  13
ATOM     12  C   LIG    1       -0.090   1.695  -5.535  0.00  0.00    +0.240 C 
ATOM     13  O   LIG    1        1.216   1.280  -5.130  0.00  0.00    -0.320 OA
ENDBRANCH   4  13
ENDBRANCH   1   7
BRANCH   2  14
ATOM     14  C   LIG    1        1.270  -0.658   0.855  0.00  0.00    +0.280 C 
ATOM     15  C   LIG    1        0.185   0.290   0.314  0.00  0.00    +0.050 C 
ATOM     16  C   LIG    1        0.621   1.744   0.583  0.00  0.00    -0.300 C 
ATOM     17  S   LIG    1        2.449   1.697   0.605  0.00  0.00    +2.380 S 
ATOM     18  O   LIG    1        2.913   2.039   1.904  0.00  0.00    -0.920 OA
ATOM     19  O   LIG    1        2.952   2.385  -0.532  0.00  0.00    -0.900 OA
ATOM     20  C   LIG    1        2.630  -0.109   0.352  0.00  0.00    -0.340 C 
ENDBRANCH   2  14
BRANCH   2  21
ATOM     21  C   LIG    1        0.325  -2.995   1.146  0.00  0.00    +0.350 C 
BRANCH  21  22
ATOM     22  C   LIG    1       -1.146  -2.912   0.829  0.00  0.00    -0.120 A 
ATOM     23  C   LIG    1       -1.962  -2.064   1.553  0.00  0.00    +0.020 A 
ATOM     24  C   LIG    1       -3.311  -1.985   1.259  0.00  0.00    +0.010 A 
ATOM     25  C   LIG    1       -3.844  -2.761   0.248  0.00  0.00    -0.060 A 
ATOM     26  C   LIG    1       -3.029  -3.613  -0.473  0.00  0.00    +0.010 A 
ATOM     27  C   LIG    1       -1.679  -3.689  -0.182  0.00  0.00    +0.020 A 
BRANCH  25  28
ATOM     28  C   LIG    1       -5.315  -2.679  -0.069  0.00  0.00    -0.030 C 
ATOM     29  C   LIG    1       -5.500  -2.228  -1.520  0.00  0.00    +0.040 C 
ATOM     30  C   LIG    1       -5.983  -1.670   0.867  0.00  0.00    +0.030 C 
ATOM     31  C   LIG    1       -5.956  -4.055   0.123  0.00  0.00    +0.040 C 
ENDBRANCH  25  28
ENDBRANCH  21  22
ENDBRANCH   2  21
TORSDOF 6
