REMARK  Name = ZINCpk00000jWp4z.0
REMARK                            x       y       z     vdW  Elec       q    Type
REMARK                         _______ _______ _______ _____ _____    ______ ____
ROOT
ATOM      1  C   LIG    1        3.683  -2.062  -0.149  0.00  0.00    +0.280 C 
ATOM      2  N   LIG    1        2.425  -2.813  -0.139  0.00  0.00    -0.600 N 
ATOM      3  C   LIG    1        1.254  -2.164   0.021  0.00  0.00    +0.570 C 
ATOM      4  O   LIG    1        0.218  -2.794   0.110  0.00  0.00    -0.520 OA
ENDROOT
BRANCH   3   5
ATOM      5  C   LIG    1        1.230  -0.688   0.087  0.00  0.00    -0.110 A 
ATOM      6  C   LIG    1        2.106  -0.013   0.937  0.00  0.00    +0.060 A 
ATOM      7  C   LIG    1        2.078   1.367   0.995  0.00  0.00    -0.040 A 
ATOM      8  C   LIG    1        1.183   2.075   0.213  0.00  0.00    +0.060 A 
ATOM      9  C   LIG    1        0.310   1.412  -0.634  0.00  0.00    -0.090 A 
ATOM     10  C   LIG    1       -0.748   1.955  -1.571  0.00  0.00    +0.090 C 
ATOM     11  C   LIG    1       -1.063   0.794  -2.540  0.00  0.00    +0.040 C 
ATOM     12  C   LIG    1       -0.712  -0.446  -1.690  0.00  0.00    +0.090 C 
ATOM     13 CL   LIG    1        3.167   2.212   2.050  0.00  0.00    -0.060 Cl
ATOM     14  C   LIG    1        0.328   0.034  -0.701  0.00  0.00    -0.040 A 
ENDBRANCH   3   5
BRANCH   2  15
ATOM     15  C   LIG    1        2.439  -4.268  -0.303  0.00  0.00    +0.250 C 
ATOM     16  C   LIG    1        3.149  -4.658  -1.624  0.00  0.00    +0.030 C 
ATOM     17  C   LIG    1        3.609  -6.112  -1.347  0.00  0.00    +0.030 C 
ATOM     18  C   LIG    1        4.039  -6.099   0.134  0.00  0.00    +0.240 C 
ATOM     19  C   LIG    1        3.296  -4.927   0.798  0.00  0.00    +0.030 C 
BRANCH  18  20
ATOM     20  N   LIG    1        3.663  -7.361   0.777  0.00  0.00    -0.690 N 
ATOM     21  H   LIG    1        2.809  -7.438   1.230  0.00  0.00    +0.410 HD
ATOM     22  C   LIG    1        4.503  -8.414   0.739  0.00  0.00    +0.510 C 
ATOM     23  O   LIG    1        5.572  -8.317   0.173  0.00  0.00    -0.520 OA
BRANCH  22  24
ATOM     24  C   LIG    1        4.119  -9.700   1.395  0.00  0.00    +0.510 C 
ATOM     25  O   LIG    1        3.051  -9.797   1.962  0.00  0.00    -0.520 OA
ATOM     26  N   LIG    1        4.960 -10.753   1.357  0.00  0.00    -0.820 N 
ATOM     27  H   LIG    1        4.711 -11.589   1.783  0.00  0.00    +0.410 HD
ATOM     28  H   LIG    1        5.814 -10.676   0.904  0.00  0.00    +0.410 HD
ENDBRANCH  22  24
ENDBRANCH  18  20
ENDBRANCH   2  15
TORSDOF 4
