REMARK  Name = ZINCrH000008uzlC.0
REMARK                            x       y       z     vdW  Elec       q    Type
REMARK                         _______ _______ _______ _____ _____    ______ ____
ROOT
ATOM      1  C   LIG    1        1.183   1.791   0.007  0.00  0.00    +0.170 A 
ATOM      2  C   LIG    1        1.169   3.179   0.024  0.00  0.00    +0.030 A 
ATOM      3  C   LIG    1       -0.034   3.858   0.046  0.00  0.00    +0.030 A 
ATOM      4  C   LIG    1       -1.229   3.153   0.051  0.00  0.00    +0.040 A 
ATOM      5  C   LIG    1       -1.216   1.762   0.028  0.00  0.00    +0.150 A 
ATOM      6  F   LIG    1       -2.380   1.076   0.026  0.00  0.00    -0.120 F 
ATOM      7  C   LIG    1       -0.013   1.084   0.012  0.00  0.00    -0.040 A 
ENDROOT
BRANCH   4   8
ATOM      8  N   LIG    1       -2.448   3.842   0.074  0.00  0.00    -0.490 N 
ATOM      9  C   LIG    1       -2.621   4.648  -1.143  0.00  0.00    +0.170 C 
ATOM     10  C   LIG    1       -3.989   5.335  -1.104  0.00  0.00    +0.160 C 
ATOM     11  O   LIG    1       -4.087   6.123   0.085  0.00  0.00    -0.370 OA
ATOM     12  C   LIG    1       -3.924   5.370   1.290  0.00  0.00    +0.200 C 
ATOM     13  C   LIG    1       -5.025   4.313   1.385  0.00  0.00    +0.020 C 
ATOM     14  C   LIG    1       -4.142   6.237  -2.330  0.00  0.00    +0.050 C 
ATOM     15  C   LIG    1       -2.555   4.684   1.275  0.00  0.00    +0.170 C 
ENDBRANCH   4   8
BRANCH   1  17
ATOM     16  C   LIG    1        3.452   1.612  -0.692  0.00  0.00    +0.520 C 
ATOM     17  N   LIG    1        2.404   1.103  -0.015  0.00  0.00    -0.670 N 
ATOM     18  H   LIG    1        2.494   0.260   0.457  0.00  0.00    +0.420 HD
ATOM     19  O   LIG    1        3.366   2.704  -1.212  0.00  0.00    -0.510 OA
BRANCH  16  20
ATOM     20  C   LIG    1        4.732   0.824  -0.803  0.00  0.00    +0.050 C 
BRANCH  20  21
ATOM     21  C   LIG    1        5.753   1.621  -1.616  0.00  0.00    +0.130 C 
BRANCH  21  22
ATOM     22  C   LIG    1        7.052   0.821  -1.728  0.00  0.00    +0.040 C 
ATOM     23  N   LIG    1        6.980  -0.642  -1.696  0.00  0.00    -0.120 NA
ATOM     24  N   LIG    1        7.396  -0.113  -0.653  0.00  0.00    -0.120 NA
BRANCH  22  25
ATOM     25  C   LIG    1        8.186   1.481  -2.516  0.00  0.00    +0.120 C 
BRANCH  25  26
ATOM     26  C   LIG    1        9.403   0.553  -2.531  0.00  0.00    +0.160 C 
BRANCH  26  28
ATOM     27  C   LIG    1       11.364   1.694  -3.893  0.00  0.00    +0.030 C 
ATOM     28  C   LIG    1       10.494   1.188  -3.289  0.00  0.00    -0.200 C 
ENDBRANCH  26  28
ENDBRANCH  25  26
ENDBRANCH  22  25
ENDBRANCH  21  22
ENDBRANCH  20  21
ENDBRANCH  16  20
ENDBRANCH   1  17
TORSDOF 8
