REMARK  Name = ZINCrD00000l6B7I.0
REMARK                            x       y       z     vdW  Elec       q    Type
REMARK                         _______ _______ _______ _____ _____    ______ ____
ROOT
ATOM      1  N   LIG    1       -0.288   1.272  -2.443  0.00  0.00    -0.730 N 
ATOM      2  H   LIG    1        0.507   0.726  -2.543  0.00  0.00    +0.400 HD
ATOM      3  C   LIG    1       -0.742   1.585  -1.213  0.00  0.00    +0.530 C 
ATOM      4  O   LIG    1       -1.736   2.268  -1.088  0.00  0.00    -0.530 OA
ENDROOT
BRANCH   1   5
ATOM      5  C   LIG    1       -0.997   1.758  -3.630  0.00  0.00    +0.260 C 
BRANCH   5   6
ATOM      6  C   LIG    1       -0.281   1.264  -4.889  0.00  0.00    -0.010 C 
BRANCH   6   7
ATOM      7  C   LIG    1       -1.021   1.771  -6.128  0.00  0.00    +0.290 C 
BRANCH   7   9
ATOM      8  C   LIG    1        0.726   2.108  -7.938  0.00  0.00    +0.280 C 
ATOM      9  N   LIG    1       -0.335   1.299  -7.334  0.00  0.00    -0.630 N 
BRANCH   9  10
ATOM     10  C   LIG    1       -0.693   0.076  -7.907  0.00  0.00    +0.210 A 
ATOM     11  C   LIG    1       -1.695  -0.695  -7.332  0.00  0.00    -0.080 A 
ATOM     12  C   LIG    1       -2.050  -1.901  -7.905  0.00  0.00    +0.050 A 
ATOM     13  C   LIG    1       -1.402  -2.345  -9.042  0.00  0.00    -0.060 A 
ATOM     14  C   LIG    1       -0.400  -1.582  -9.614  0.00  0.00    +0.050 A 
ATOM     15  C   LIG    1       -0.044  -0.373  -9.050  0.00  0.00    -0.080 A 
ENDBRANCH   9  10
ENDBRANCH   7   9
ENDBRANCH   6   7
ENDBRANCH   5   6
ENDBRANCH   1   5
BRANCH   3  16
ATOM     16  C   LIG    1       -0.013   1.086   0.008  0.00  0.00    +0.060 C 
BRANCH  16  17
ATOM     17  C   LIG    1       -0.729   1.579   1.267  0.00  0.00    +0.370 C 
BRANCH  17  18
ATOM     18  N   LIG    1       -0.020   1.094   2.454  0.00  0.00    -0.490 N 
ATOM     19  C   LIG    1        0.980   1.733   3.093  0.00  0.00    +0.470 A 
ATOM     20  N   LIG    1        1.362   0.962   4.131  0.00  0.00    -0.470 N 
ATOM     21  H   LIG    1        2.062   1.166   4.770  0.00  0.00    +0.470 HD
ATOM     22  N   LIG    1        0.561  -0.189   4.120  0.00  0.00    -0.260 NA
ATOM     23  S   LIG    1        1.646   3.250   2.663  0.00  0.00    -0.560 S 
ATOM     24  C   LIG    1       -0.267  -0.095   3.114  0.00  0.00    +0.360 A 
BRANCH  24  25
ATOM     25  C   LIG    1       -1.287  -1.090   2.744  0.00  0.00    -0.180 A 
ATOM     26  C   LIG    1       -1.516  -2.252   3.393  0.00  0.00    +0.110 A 
ATOM     27  C   LIG    1       -2.528  -3.020   2.859  0.00  0.00    +0.020 A 
ATOM     28  C   LIG    1       -3.122  -2.504   1.778  0.00  0.00    -0.010 A 
ATOM     29  S   LIG    1       -2.392  -0.954   1.382  0.00  0.00    +0.170 S 
ENDBRANCH  24  25
ENDBRANCH  17  18
ENDBRANCH  16  17
ENDBRANCH   3  16
TORSDOF 9
