REMARK  Name = ZINCpk00000eajk6.0
REMARK                            x       y       z     vdW  Elec       q    Type
REMARK                         _______ _______ _______ _____ _____    ______ ____
ROOT
ATOM      1  C   LIG    1       -6.635   1.205  -0.598  0.00  0.00    -0.120 A 
ATOM      2  C   LIG    1       -6.943   0.028   0.086  0.00  0.00    +0.050 A 
ATOM      3  C   LIG    1       -8.240  -0.441   0.097  0.00  0.00    +0.030 A 
ATOM      4  C   LIG    1       -9.233   0.246  -0.578  0.00  0.00    -0.070 A 
ATOM      5  C   LIG    1       -8.934   1.411  -1.263  0.00  0.00    +0.030 A 
ATOM      6  C   LIG    1       -7.641   1.894  -1.277  0.00  0.00    +0.080 A 
ENDROOT
BRANCH   4   7
ATOM      7  C   LIG    1      -10.647  -0.276  -0.568  0.00  0.00    +0.160 C 
ATOM      8  N   LIG    1      -11.610   0.838  -0.533  0.00  0.00    -0.720 N 
ATOM      9  H   LIG    1      -11.718   1.532  -1.202  0.00  0.00    +0.440 HD
ATOM     10  C   LIG    1      -12.311   0.705   0.607  0.00  0.00    +0.710 C 
ATOM     11  N   LIG    1      -11.926  -0.358   1.323  0.00  0.00    -0.680 N 
ATOM     12  H   LIG    1      -12.317  -0.613   2.173  0.00  0.00    +0.440 HD
ATOM     13  O   LIG    1      -13.196   1.466   0.949  0.00  0.00    -0.530 OA
ATOM     14  C   LIG    1      -10.897  -1.171  -1.783  0.00  0.00    +0.110 C 
ATOM     15  C   LIG    1      -10.928  -1.030   0.717  0.00  0.00    +0.540 C 
ATOM     16  O   LIG    1      -10.369  -2.029   1.116  0.00  0.00    -0.460 OA
ENDBRANCH   4   7
BRANCH   1  19
ATOM     17  N   LIG    1       -4.279   1.049   0.049  0.00  0.00    -0.720 N 
ATOM     18  H   LIG    1       -4.491   0.233   0.528  0.00  0.00    +0.400 HD
ATOM     19  C   LIG    1       -5.248   1.717  -0.608  0.00  0.00    +0.560 C 
ATOM     20  O   LIG    1       -4.982   2.739  -1.209  0.00  0.00    -0.530 OA
BRANCH  17  26
ATOM     21  C   LIG    1       -2.164   1.050   1.278  0.00  0.00    +0.150 C 
ATOM     22  C   LIG    1       -0.729   1.579   1.267  0.00  0.00    +0.010 C 
ATOM     23  C   LIG    1       -0.013   1.086   0.008  0.00  0.00    +0.010 C 
ATOM     24  C   LIG    1       -0.753   1.593  -1.232  0.00  0.00    +0.020 C 
ATOM     25  C   LIG    1       -2.188   1.063  -1.221  0.00  0.00    +0.020 C 
ATOM     26  C   LIG    1       -2.904   1.556   0.038  0.00  0.00    +0.250 C 
BRANCH  21  28
ATOM     27  C   LIG    1       -2.708   0.634   3.575  0.00  0.00    +0.200 C 
ATOM     28  O   LIG    1       -2.833   1.510   2.453  0.00  0.00    -0.380 OA
ENDBRANCH  21  28
ENDBRANCH  17  26
ENDBRANCH   1  19
TORSDOF 4
