REMARK  Name = ZINCrD00000F5Lzj.0
REMARK                            x       y       z     vdW  Elec       q    Type
REMARK                         _______ _______ _______ _____ _____    ______ ____
ROOT
ATOM      1  C   LIG    1       -4.264  -0.541   0.558  0.00  0.00    +0.000 C 
ATOM      2  S   LIG    1       -2.843  -0.526  -0.586  0.00  0.00    +0.100 S 
ATOM      3  C   LIG    1       -2.749   1.242  -0.664  0.00  0.00    +0.240 C 
ATOM      4  N   LIG    1       -3.742   1.741   0.125  0.00  0.00    -0.490 N 
ATOM      5  C   LIG    1       -1.830   1.988  -1.404  0.00  0.00    -0.160 C 
ATOM      6  C   LIG    1       -4.553   0.926   0.778  0.00  0.00    +0.530 C 
ATOM      7  O   LIG    1       -5.449   1.321   1.493  0.00  0.00    -0.450 OA
ENDROOT
BRANCH   4   8
ATOM      8  C   LIG    1       -3.904   3.128   0.245  0.00  0.00    +0.070 A 
ATOM      9  C   LIG    1       -3.257   3.818   1.262  0.00  0.00    +0.080 A 
ATOM     10  C   LIG    1       -3.413   5.186   1.375  0.00  0.00    +0.010 A 
ATOM     11  C   LIG    1       -4.225   5.867   0.483  0.00  0.00    +0.140 A 
ATOM     12  C   LIG    1       -4.876   5.180  -0.528  0.00  0.00    +0.010 A 
ATOM     13  F   LIG    1       -4.382   7.204   0.599  0.00  0.00    -0.130 F 
ATOM     14  C   LIG    1       -4.717   3.813  -0.648  0.00  0.00    +0.080 A 
ENDBRANCH   4   8
BRANCH   5  15
ATOM     15  C   LIG    1       -0.888   1.311  -2.294  0.00  0.00    +0.590 C 
ATOM     16  N   LIG    1       -0.004   2.031  -3.013  0.00  0.00    -0.720 N 
ATOM     17  H   LIG    1        0.011   2.998  -2.936  0.00  0.00    +0.400 HD
ATOM     18  O   LIG    1       -0.905   0.097  -2.390  0.00  0.00    -0.520 OA
BRANCH  16  19
ATOM     19  C   LIG    1        0.936   1.354  -3.909  0.00  0.00    +0.410 C 
BRANCH  19  20
ATOM     20  C   LIG    1        1.808   2.378  -4.589  0.00  0.00    -0.050 A 
ATOM     21  C   LIG    1        2.984   2.841  -4.128  0.00  0.00    -0.030 A 
ATOM     22  C   LIG    1        3.456   3.777  -5.076  0.00  0.00    -0.070 A 
ATOM     23  C   LIG    1        2.537   3.836  -6.056  0.00  0.00    +0.190 A 
ATOM     24  O   LIG    1        1.541   2.986  -5.756  0.00  0.00    -0.170 OA
ENDBRANCH  19  20
ENDBRANCH  16  19
ENDBRANCH   5  15
BRANCH   1  26
ATOM     25  C   LIG    1       -5.193  -2.738  -0.186  0.00  0.00    +0.030 C 
ATOM     26  C   LIG    1       -5.464  -1.235  -0.089  0.00  0.00    +0.070 C 
ENDBRANCH   1  26
BRANCH   5  27
ATOM     27  C   LIG    1       -1.809   3.415  -1.291  0.00  0.00    +0.250 C 
ATOM     28  N   LIG    1       -1.793   4.547  -1.201  0.00  0.00    -0.400 NA
ENDBRANCH   5  27
TORSDOF 6
