REMARK  Name = ZINCqH0000007LrY.0
REMARK                            x       y       z     vdW  Elec       q    Type
REMARK                         _______ _______ _______ _____ _____    ______ ____
ROOT
ATOM      1  C   LIG    1       -3.137   9.076   4.143  0.00  0.00    +0.130 A 
ATOM      2  C   LIG    1       -2.317   9.928   4.869  0.00  0.00    -0.080 A 
ATOM      3  C   LIG    1       -0.947   9.884   4.692  0.00  0.00    +0.050 A 
ATOM      4  C   LIG    1       -0.392   8.992   3.792  0.00  0.00    -0.020 A 
ATOM      5  C   LIG    1       -1.212   8.143   3.069  0.00  0.00    -0.040 A 
ATOM      6  C   LIG    1       -0.596   7.171   2.088  0.00  0.00    +0.070 C 
ATOM      7  C   LIG    1       -0.733   5.752   2.651  0.00  0.00    +0.310 C 
ATOM      8  N   LIG    1       -2.076   5.245   2.387  0.00  0.00    -0.620 N 
ATOM      9  C   LIG    1       -2.212   4.188   1.561  0.00  0.00    +0.710 C 
ATOM     10  N   LIG    1       -3.441   3.762   1.208  0.00  0.00    -0.730 N 
ATOM     11  H   LIG    1       -4.228   4.179   1.593  0.00  0.00    +0.410 HD
ATOM     12  O   LIG    1       -1.226   3.619   1.135  0.00  0.00    -0.580 OA
ATOM     13  C   LIG    1       -3.280   5.830   2.969  0.00  0.00    +0.280 C 
ATOM     14  C   LIG    1       -3.470   7.256   2.452  0.00  0.00    +0.080 C 
ATOM     15  C   LIG    1       -2.573   8.182   3.242  0.00  0.00    -0.110 A 
ENDROOT
BRANCH   1  17
ATOM     16  C   LIG    1       -4.992  10.060   5.258  0.00  0.00    +0.250 C 
ATOM     17  O   LIG    1       -4.484   9.115   4.314  0.00  0.00    -0.310 OA
ENDBRANCH   1  17
BRANCH  10  18
ATOM     18  C   LIG    1       -3.588   2.669   0.244  0.00  0.00    +0.390 C 
BRANCH  18  19
ATOM     19  C   LIG    1       -4.929   2.776  -0.436  0.00  0.00    +0.030 A 
ATOM     20  N   LIG    1       -6.046   3.006   0.166  0.00  0.00    -0.460 NA
ATOM     21  C   LIG    1       -7.131   3.064  -0.580  0.00  0.00    +0.210 A 
ATOM     22  C   LIG    1       -6.916   2.873  -1.885  0.00  0.00    -0.220 A 
ATOM     23  C   LIG    1       -7.965   2.885  -2.968  0.00  0.00    +0.150 C 
ATOM     24  S   LIG    1       -5.190   2.605  -2.117  0.00  0.00    +0.150 S 
ENDBRANCH  18  19
BRANCH  18  25
ATOM     25  C   LIG    1       -3.493   1.328   0.974  0.00  0.00    -0.060 C 
ATOM     26  C   LIG    1       -3.481   1.356   2.504  0.00  0.00    +0.020 C 
ATOM     27  C   LIG    1       -2.200   1.027   1.734  0.00  0.00    +0.040 C 
ENDBRANCH  18  25
ENDBRANCH  10  18
TORSDOF 4
