REMARK  Name = ZINCqH0000037lry.0
REMARK                            x       y       z     vdW  Elec       q    Type
REMARK                         _______ _______ _______ _____ _____    ______ ____
ROOT
ATOM      1  N   LIG    1        2.029  -5.988   4.870  0.00  0.00    -0.520 NA
ATOM      2  C   LIG    1        2.147  -6.615   3.546  0.00  0.00    +0.160 C 
ATOM      3  C   LIG    1        3.121  -5.805   2.686  0.00  0.00    +0.300 C 
ATOM      4  N   LIG    1        2.678  -4.403   2.672  0.00  0.00    -0.620 N 
ATOM      5  C   LIG    1        2.412  -3.744   3.960  0.00  0.00    +0.280 C 
ATOM      6  C   LIG    1        2.525  -3.737   1.510  0.00  0.00    +0.520 C 
ATOM      7  O   LIG    1        2.753  -4.294   0.457  0.00  0.00    -0.540 OA
ATOM      8  C   LIG    1        1.460  -4.637   4.771  0.00  0.00    +0.180 C 
ENDROOT
BRANCH   1  10
ATOM      9  C   LIG    1        1.255  -6.212   7.182  0.00  0.00    +0.080 C 
ATOM     10  C   LIG    1        1.239  -6.827   5.781  0.00  0.00    +0.220 C 
BRANCH  10  11
ATOM     11  C   LIG    1        1.833  -8.210   5.833  0.00  0.00    +0.090 A 
ATOM     12  N   LIG    1        3.081  -8.453   5.978  0.00  0.00    -0.430 NA
ATOM     13  C   LIG    1        3.472  -9.741   6.010  0.00  0.00    +0.080 A 
ATOM     14  C   LIG    1        4.763 -10.286   6.161  0.00  0.00    +0.080 A 
ATOM     15  C   LIG    1        4.946 -11.636   6.162  0.00  0.00    +0.030 A 
ATOM     16  C   LIG    1        3.869 -12.498   6.016  0.00  0.00    +0.040 A 
ATOM     17  C   LIG    1        2.596 -11.994   5.867  0.00  0.00    +0.060 A 
ATOM     18  C   LIG    1        2.390 -10.616   5.864  0.00  0.00    -0.180 A 
ATOM     19  S   LIG    1        0.927  -9.650   5.699  0.00  0.00    +0.090 S 
ENDBRANCH  10  11
ENDBRANCH   1  10
BRANCH   6  20
ATOM     20  C   LIG    1        2.070  -2.300   1.519  0.00  0.00    +0.060 C 
BRANCH  20  21
ATOM     21  C   LIG    1        1.978  -1.785   0.082  0.00  0.00    +0.170 C 
BRANCH  21  22
ATOM     22  C   LIG    1        1.522  -0.349   0.091  0.00  0.00    -0.010 A 
ATOM     23  C   LIG    1        2.324   0.730   0.147  0.00  0.00    -0.060 A 
ATOM     24  C   LIG    1        1.482   1.866   0.134  0.00  0.00    -0.060 A 
ATOM     25  C   LIG    1        0.217   1.414   0.070  0.00  0.00    +0.160 A 
ATOM     26  O   LIG    1        0.247   0.071   0.045  0.00  0.00    -0.180 OA
ENDBRANCH  21  22
ENDBRANCH  20  21
ENDBRANCH   6  20
TORSDOF 5
