REMARK  Name = ZINCqH000000235U.0
REMARK                            x       y       z     vdW  Elec       q    Type
REMARK                         _______ _______ _______ _____ _____    ______ ____
ROOT
ATOM      1  C   LIG    1       -2.209  -0.297   1.067  0.00  0.00    -0.110 A 
ATOM      2  C   LIG    1       -2.397   1.083   1.151  0.00  0.00    +0.030 A 
ATOM      3  C   LIG    1       -3.514   1.590   1.784  0.00  0.00    +0.040 A 
ATOM      4  C   LIG    1       -4.449   0.735   2.336  0.00  0.00    +0.010 A 
ATOM      5  C   LIG    1       -4.271  -0.641   2.258  0.00  0.00    +0.160 A 
ATOM      6  C   LIG    1       -3.155  -1.160   1.620  0.00  0.00    +0.090 A 
ENDROOT
BRANCH   1  14
ATOM      7  C   LIG    1        1.832  -1.967   0.522  0.00  0.00    +0.040 C 
ATOM      8  C   LIG    1        1.434  -0.636  -0.118  0.00  0.00    +0.180 C 
ATOM      9  C   LIG    1        2.492   0.440   0.205  0.00  0.00    -0.020 C 
ATOM     10  C   LIG    1        1.874   1.181   1.420  0.00  0.00    +0.060 C 
ATOM     11  C   LIG    1        0.365   1.142   1.073  0.00  0.00    +0.270 C 
ATOM     12  C   LIG    1        1.307  -0.802  -1.634  0.00  0.00    +0.050 C 
ATOM     13  N   LIG    1        0.156  -0.174   0.443  0.00  0.00    -0.610 N 
ATOM     14  C   LIG    1       -1.013  -0.843   0.390  0.00  0.00    +0.580 C 
ATOM     15  O   LIG    1       -1.084  -1.896  -0.214  0.00  0.00    -0.520 OA
BRANCH   9  16
ATOM     16  C   LIG    1        3.825  -0.209   0.582  0.00  0.00    +0.470 C 
ATOM     17  F   LIG    1        3.647  -1.020   1.708  0.00  0.00    -0.170 F 
ATOM     18  F   LIG    1        4.764   0.788   0.870  0.00  0.00    -0.180 F 
ATOM     19  F   LIG    1        4.284  -0.987  -0.485  0.00  0.00    -0.180 F 
ENDBRANCH   9  16
ENDBRANCH   1  14
BRANCH   5  20
ATOM     20  N   LIG    1       -5.221  -1.503   2.818  0.00  0.00    -0.690 N 
ATOM     21  H   LIG    1       -6.162  -1.268   2.796  0.00  0.00    +0.410 HD
ATOM     22  C   LIG    1       -4.829  -2.659   3.389  0.00  0.00    +0.710 C 
ATOM     23  N   LIG    1       -5.732  -3.449   4.002  0.00  0.00    -0.710 N 
ATOM     24  H   LIG    1       -6.665  -3.185   4.032  0.00  0.00    +0.400 HD
ATOM     25  O   LIG    1       -3.659  -2.990   3.351  0.00  0.00    -0.570 OA
BRANCH  23  26
ATOM     26  C   LIG    1       -5.306  -4.705   4.622  0.00  0.00    +0.240 C 
ATOM     27  C   LIG    1       -6.178  -5.941   4.388  0.00  0.00    +0.020 C 
ATOM     28  C   LIG    1       -6.167  -5.260   5.759  0.00  0.00    +0.020 C 
ENDBRANCH  23  26
ENDBRANCH   5  20
TORSDOF 4
