REMARK  Name = ZINCbw0000001gMT.0
REMARK                            x       y       z     vdW  Elec       q    Type
REMARK                         _______ _______ _______ _____ _____    ______ ____
ROOT
ATOM      1  F   LIG    1       -2.416   3.795   0.044  0.00  0.00    -0.130 F 
ATOM      2  C   LIG    1       -1.237   3.135   0.030  0.00  0.00    +0.120 A 
ATOM      3  C   LIG    1       -1.219   1.750   0.017  0.00  0.00    +0.010 A 
ATOM      4  C   LIG    1       -0.013   1.076   0.008  0.00  0.00    +0.090 A 
ATOM      5  C   LIG    1        1.176   1.783   0.000  0.00  0.00    -0.090 A 
ATOM      6  C   LIG    1        1.158   3.167   0.008  0.00  0.00    -0.030 A 
ATOM      7 BR   LIG    1        2.826   0.860  -0.020  0.00  0.00    -0.030 Br
ATOM      8  C   LIG    1       -0.047   3.842   0.023  0.00  0.00    +0.020 A 
ENDROOT
BRANCH   6   9
ATOM      9  C   LIG    1        2.453   3.937   0.001  0.00  0.00    +0.170 C 
ATOM     10  C   LIG    1        3.115   4.207  -1.352  0.00  0.00    +0.220 C 
ATOM     11  O   LIG    1        2.455   5.231  -0.605  0.00  0.00    -0.340 OA
ENDBRANCH   6   9
TORSDOF 1
