REMARK  Name = ZINCvU00000004Qu.0
REMARK                            x       y       z     vdW  Elec       q    Type
REMARK                         _______ _______ _______ _____ _____    ______ ____
ROOT
ATOM      1  C   LIG    1        0.038   0.029  -0.561  0.00  0.00    +0.310 C 
ATOM      2  N   LIG    1        0.010   1.296  -0.240  0.00  0.00    -0.490 NA
ATOM      3  C   LIG    1        1.281   1.796  -0.271  0.00  0.00    -0.030 C 
ATOM      4  C   LIG    1        2.150   0.668  -0.662  0.00  0.00    +0.520 C 
ATOM      5  O   LIG    1        3.358   0.685  -0.807  0.00  0.00    -0.460 OA
ATOM      6  C   LIG    1        1.668   3.076   0.002  0.00  0.00    +0.210 C 
ATOM      7  N   LIG    1        1.321  -0.386  -0.824  0.00  0.00    -0.510 N 
ENDROOT
BRANCH   6   8
ATOM      8  C   LIG    1        3.094   3.406   0.101  0.00  0.00    -0.080 A 
ATOM      9  C   LIG    1        3.985   2.509   0.703  0.00  0.00    +0.100 A 
ATOM     10  C   LIG    1        5.324   2.824   0.788  0.00  0.00    +0.050 A 
ATOM     11  C   LIG    1        5.789   4.029   0.288  0.00  0.00    -0.010 A 
ATOM     12  C   LIG    1        4.913   4.926  -0.306  0.00  0.00    -0.040 A 
ATOM     13 CL   LIG    1        5.508   6.434  -0.928  0.00  0.00    -0.040 Cl
ATOM     14 CL   LIG    1        7.477   4.418   0.405  0.00  0.00    -0.040 Cl
ATOM     15  C   LIG    1        3.572   4.623  -0.403  0.00  0.00    +0.080 A 
ENDBRANCH   6   8
BRANCH   7  16
ATOM     16  C   LIG    1        1.705  -1.683  -1.197  0.00  0.00    +0.080 A 
ATOM     17  C   LIG    1        1.747  -2.036  -2.538  0.00  0.00    +0.070 A 
ATOM     18  C   LIG    1        2.131  -3.312  -2.904  0.00  0.00    +0.020 A 
ATOM     19  C   LIG    1        2.463  -4.241  -1.934  0.00  0.00    +0.070 A 
ATOM     20  C   LIG    1        2.417  -3.895  -0.596  0.00  0.00    +0.000 A 
ATOM     21  C   LIG    1        2.039  -2.618  -0.224  0.00  0.00    +0.120 A 
ATOM     22  F   LIG    1        1.994  -2.279   1.083  0.00  0.00    -0.130 F 
ENDBRANCH   7  16
BRANCH   1  23
ATOM     23  S   LIG    1       -1.383  -1.010  -0.646  0.00  0.00    +0.110 S 
BRANCH  23  24
ATOM     24  C   LIG    1       -2.669   0.179  -0.190  0.00  0.00    +0.150 C 
BRANCH  24  25
ATOM     25  C   LIG    1       -4.012  -0.506  -0.196  0.00  0.00    +0.490 C 
ATOM     26  O   LIG    1       -4.091  -1.678  -0.480  0.00  0.00    -0.490 OA
BRANCH  25  27
ATOM     27  O   LIG    1       -5.120   0.185   0.114  0.00  0.00    -0.340 OA
BRANCH  27  29
ATOM     28  C   LIG    1       -6.321  -1.696   1.088  0.00  0.00    +0.030 C 
ATOM     29  C   LIG    1       -6.378  -0.539   0.088  0.00  0.00    +0.120 C 
ATOM     30  C   LIG    1       -6.618  -1.092  -1.318  0.00  0.00    +0.030 C 
ATOM     31  C   LIG    1       -7.519   0.407   0.466  0.00  0.00    +0.080 C 
ENDBRANCH  27  29
ENDBRANCH  25  27
ENDBRANCH  24  25
ENDBRANCH  23  24
ENDBRANCH   1  23
TORSDOF 7
