REMARK  Name = ZINCpe000000WZd9.0
REMARK                            x       y       z     vdW  Elec       q    Type
REMARK                         _______ _______ _______ _____ _____    ______ ____
ROOT
ATOM      1  N   LIG    1       -0.748  -4.863   0.660  0.00  0.00    -0.740 N 
ATOM      2  H   LIG    1       -1.219  -4.703  -0.172  0.00  0.00    +0.400 HD
ATOM      3  C   LIG    1        0.151  -3.965   1.109  0.00  0.00    +0.710 C 
ATOM      4  N   LIG    1        0.395  -2.844   0.400  0.00  0.00    -0.750 N 
ATOM      5  H   LIG    1       -0.076  -2.685  -0.432  0.00  0.00    +0.400 HD
ATOM      6  O   LIG    1        0.742  -4.165   2.152  0.00  0.00    -0.580 OA
ENDROOT
BRANCH   1  11
ATOM      7  C   LIG    1       -4.183  -7.730   2.219  0.00  0.00    +0.080 C 
ATOM      8  C   LIG    1       -2.825  -8.148   2.787  0.00  0.00    -0.420 C 
ATOM      9  C   LIG    1       -2.170  -6.951   3.481  0.00  0.00    +0.080 C 
ATOM     10  C   LIG    1       -2.056  -5.783   2.504  0.00  0.00    +0.010 C 
ATOM     11  C   LIG    1       -1.014  -6.080   1.431  0.00  0.00    +0.290 C 
ATOM     12  C   LIG    1       -1.530  -7.173   0.491  0.00  0.00    -0.350 C 
ATOM     13  S   LIG    1       -1.748  -8.710   1.436  0.00  0.00    +2.420 S 
ATOM     14  O   LIG    1       -0.492  -9.091   1.980  0.00  0.00    -0.930 OA
ATOM     15  O   LIG    1       -2.469  -9.636   0.635  0.00  0.00    -0.930 OA
ENDBRANCH   1  11
BRANCH   4  16
ATOM     16  C   LIG    1        1.373  -1.868   0.887  0.00  0.00    +0.310 C 
BRANCH  16  17
ATOM     17  C   LIG    1        1.554  -0.763  -0.156  0.00  0.00    +0.050 C 
ATOM     18  C   LIG    1        2.151  -1.374  -1.440  0.00  0.00    -0.280 C 
ATOM     19  S   LIG    1        3.154   0.037  -2.049  0.00  0.00    +2.470 S 
ATOM     20  C   LIG    1        3.373   0.846  -0.482  0.00  0.00    -0.630 A 
ATOM     21  C   LIG    1        4.254   1.834  -0.097  0.00  0.00    +0.140 A 
ATOM     22  C   LIG    1        4.241   2.311   1.201  0.00  0.00    +0.010 A 
ATOM     23  C   LIG    1        3.340   1.780   2.104  0.00  0.00    +0.070 A 
ATOM     24  C   LIG    1        2.463   0.792   1.715  0.00  0.00    +0.020 A 
ATOM     25  O   LIG    1        4.453  -0.380  -2.446  0.00  0.00    -0.930 OA
ATOM     26  O   LIG    1        2.376   0.931  -2.832  0.00  0.00    -0.920 OA
ATOM     27  C   LIG    1        2.461   0.305   0.405  0.00  0.00    -0.040 A 
ENDBRANCH  16  17
ENDBRANCH   4  16
TORSDOF 3
