REMARK  Name = ZINC650000002wD0.0
REMARK                            x       y       z     vdW  Elec       q    Type
REMARK                         _______ _______ _______ _____ _____    ______ ____
ROOT
ATOM      1  C   LIG    1       -0.699   1.479   1.216  0.00  0.00    +0.220 C 
ENDROOT
BRANCH   1   3
ATOM      2  C   LIG    1       -0.722   1.492  -1.183  0.00  0.00    +0.320 C 
ATOM      3  N   LIG    1       -0.012   1.005   0.008  0.00  0.00    -0.510 N 
ATOM      4  H   LIG    1        0.935   1.354   0.000  0.00  0.00    +0.430 HD
ATOM      5  H   LIG    1        0.002  -0.004   0.002  0.00  0.00    +0.430 HD
ENDBRANCH   1   3
BRANCH   1   6
ATOM      6  C   LIG    1        0.041   0.972   2.456  0.00  0.00    +0.200 C 
ATOM      7  C   LIG    1       -0.743   1.359   3.711  0.00  0.00    +0.050 C 
BRANCH   6   8
ATOM      8  O   LIG    1        1.343   1.559   2.507  0.00  0.00    -0.560 OA
ATOM      9  H   LIG    1        1.337   2.525   2.553  0.00  0.00    +0.390 HD
ENDBRANCH   6   8
ENDBRANCH   1   6
TORSDOF 3
