REMARK  Name = ZINCpe00000bcSwo.0
REMARK                            x       y       z     vdW  Elec       q    Type
REMARK                         _______ _______ _______ _____ _____    ______ ____
ROOT
ATOM      1  C   LIG    1        3.654   7.392   0.806  0.00  0.00    +0.500 C 
ATOM      2  N   LIG    1        3.670   6.048   0.901  0.00  0.00    -0.620 N 
ATOM      3  C   LIG    1        4.942   5.312   0.887  0.00  0.00    +0.290 C 
ATOM      4  C   LIG    1        4.892   4.267  -0.234  0.00  0.00    +0.290 C 
ATOM      5  N   LIG    1        3.637   3.511  -0.115  0.00  0.00    -0.610 N 
ATOM      6  C   LIG    1        2.365   4.246  -0.107  0.00  0.00    +0.270 C 
ATOM      7  C   LIG    1        3.653   2.166  -0.021  0.00  0.00    +0.570 C 
ATOM      8  O   LIG    1        4.712   1.576   0.072  0.00  0.00    -0.510 OA
ATOM      9  C   LIG    1        2.416   5.292   1.020  0.00  0.00    +0.270 C 
ATOM     10  O   LIG    1        4.696   8.005   0.708  0.00  0.00    -0.520 OA
ENDROOT
BRANCH   7  11
ATOM     11  C   LIG    1        2.385   1.411  -0.030  0.00  0.00    -0.180 A 
ATOM     12  C   LIG    1        1.469   1.592  -1.069  0.00  0.00    +0.120 A 
ATOM     13  C   LIG    1        0.287   0.884  -1.072  0.00  0.00    -0.020 A 
ATOM     14  C   LIG    1        0.004  -0.007  -0.048  0.00  0.00    +0.160 A 
ATOM     15  C   LIG    1        0.907  -0.192   0.986  0.00  0.00    -0.040 A 
ATOM     16  F   LIG    1       -1.158  -0.697  -0.058  0.00  0.00    -0.120 F 
ATOM     17  C   LIG    1        2.096   0.511   1.002  0.00  0.00    +0.180 A 
ATOM     18  F   LIG    1        2.977   0.330   2.010  0.00  0.00    -0.110 F 
ENDBRANCH   7  11
BRANCH   1  19
ATOM     19  C   LIG    1        2.342   8.133   0.821  0.00  0.00    +0.330 C 
BRANCH  19  21
ATOM     20  C   LIG    1        2.647  10.151  -0.511  0.00  0.00    +0.550 C 
ATOM     21  N   LIG    1        2.592   9.572   0.705  0.00  0.00    -0.600 N 
ATOM     22  C   LIG    1        2.783  10.382   1.911  0.00  0.00    +0.290 C 
ATOM     23  O   LIG    1        2.488   9.478  -1.512  0.00  0.00    -0.540 OA
BRANCH  20  25
ATOM     24  C   LIG    1        2.952  12.166  -1.827  0.00  0.00    +0.140 C 
ATOM     25  C   LIG    1        2.898  11.595  -0.627  0.00  0.00    -0.090 C 
ENDBRANCH  20  25
ENDBRANCH  19  21
ENDBRANCH   1  19
TORSDOF 4
