REMARK  Name = ZINCqH0000034o29.0
REMARK                            x       y       z     vdW  Elec       q    Type
REMARK                         _______ _______ _______ _____ _____    ______ ____
ROOT
ATOM      1  C   LIG    1       -5.022   0.319   5.358  0.00  0.00    +0.010 A 
ATOM      2  C   LIG    1       -5.655   0.756   6.471  0.00  0.00    -0.010 A 
ATOM      3  S   LIG    1       -6.832  -0.395   6.933  0.00  0.00    +0.200 S 
ATOM      4  C   LIG    1       -6.393  -1.418   5.570  0.00  0.00    +0.100 A 
ATOM      5  N   LIG    1       -5.442  -0.849   4.893  0.00  0.00    -0.440 NA
ENDROOT
BRANCH   4   6
ATOM      6  C   LIG    1       -7.013  -2.721   5.244  0.00  0.00    -0.040 A 
ATOM      7  C   LIG    1       -6.582  -3.442   4.130  0.00  0.00    +0.070 A 
ATOM      8  C   LIG    1       -7.162  -4.659   3.834  0.00  0.00    +0.010 A 
ATOM      9  C   LIG    1       -8.174  -5.159   4.633  0.00  0.00    -0.060 A 
ATOM     10  C   LIG    1       -8.609  -4.446   5.737  0.00  0.00    +0.010 A 
ATOM     11  C   LIG    1       -8.034  -3.231   6.046  0.00  0.00    +0.040 A 
BRANCH   9  12
ATOM     12  C   LIG    1       -8.806  -6.486   4.301  0.00  0.00    +0.020 C 
ATOM     13  C   LIG    1       -7.738  -7.581   4.326  0.00  0.00    +0.030 C 
ATOM     14  C   LIG    1       -9.433  -6.418   2.907  0.00  0.00    +0.030 C 
ENDBRANCH   9  12
ENDBRANCH   4   6
BRANCH   1  17
ATOM     15  N   LIG    1       -3.350   0.607   3.599  0.00  0.00    -0.620 N 
ATOM     16  H   LIG    1       -3.628  -0.247   3.231  0.00  0.00    +0.430 HD
ATOM     17  C   LIG    1       -3.948   1.089   4.707  0.00  0.00    +0.590 C 
ATOM     18  O   LIG    1       -3.600   2.159   5.169  0.00  0.00    -0.460 OA
BRANCH  15  23
ATOM     19  N   LIG    1       -0.698   1.558   1.213  0.00  0.00    -0.480 N 
ATOM     20  C   LIG    1       -0.352   2.747   1.783  0.00  0.00    +0.220 A 
ATOM     21  C   LIG    1       -0.983   3.193   2.891  0.00  0.00    +0.170 A 
ATOM     22  N   LIG    1       -1.953   2.492   3.475  0.00  0.00    -0.410 NA
ATOM     23  C   LIG    1       -2.336   1.333   2.984  0.00  0.00    +0.290 A 
ATOM     24  C   LIG    1       -1.679   0.818   1.778  0.00  0.00    +0.490 A 
ATOM     25  O   LIG    1       -2.009  -0.252   1.296  0.00  0.00    -0.520 OA
BRANCH  19  27
ATOM     26  C   LIG    1       -0.753   1.593  -1.232  0.00  0.00    +0.030 C 
ATOM     27  C   LIG    1       -0.013   1.086   0.008  0.00  0.00    +0.290 C 
ENDBRANCH  19  27
ENDBRANCH  15  23
ENDBRANCH   1  17
TORSDOF 5
