REMARK  Name = ZINCpe000027pHnG.0
REMARK                            x       y       z     vdW  Elec       q    Type
REMARK                         _______ _______ _______ _____ _____    ______ ____
ROOT
ATOM      1  C   LIG    1       -0.068   1.127   2.404  0.00  0.00    +0.160 C 
ATOM      2  C   LIG    1       -1.120   1.047   3.534  0.00  0.00    +0.080 C 
ATOM      3  C   LIG    1       -0.350   1.594   4.763  0.00  0.00    +0.130 C 
ATOM      4  N   LIG    1        0.482   2.681   4.186  0.00  0.00    -0.470 N 
ATOM      5  C   LIG    1        0.953   2.177   2.878  0.00  0.00    +0.180 C 
ENDROOT
BRANCH   4   6
ATOM      6  C   LIG    1        1.550   2.982   5.016  0.00  0.00    +0.340 A 
ATOM      7  C   LIG    1        2.465   1.992   5.382  0.00  0.00    -0.130 A 
ATOM      8  C   LIG    1        3.514   2.344   6.208  0.00  0.00    +0.330 A 
ATOM      9  N   LIG    1        3.613   3.596   6.631  0.00  0.00    -0.510 NA
ATOM     10  C   LIG    1        2.731   4.506   6.271  0.00  0.00    +0.530 A 
ATOM     11  N   LIG    1        1.717   4.216   5.482  0.00  0.00    -0.490 NA
ENDBRANCH   4   6
BRANCH   1  13
ATOM     12  C   LIG    1       -0.013   1.086   0.008  0.00  0.00    +0.200 C 
ATOM     13  O   LIG    1       -0.682   1.547   1.184  0.00  0.00    -0.370 OA
ENDBRANCH   1  13
BRANCH   3  14
ATOM     14  C   LIG    1       -1.322   2.152   5.804  0.00  0.00    +0.310 C 
BRANCH  14  15
ATOM     15  N   LIG    1       -0.571   2.867   6.839  0.00  0.00    -0.690 N 
ATOM     16  H   LIG    1        0.396   2.923   6.786  0.00  0.00    +0.410 HD
BRANCH  15  17
ATOM     17  C   LIG    1       -1.241   3.462   7.894  0.00  0.00    +0.510 A 
ATOM     18  C   LIG    1       -0.537   4.151   8.896  0.00  0.00    -0.110 A 
ATOM     19  N   LIG    1        0.770   4.417   9.130  0.00  0.00    -0.460 NA
ATOM     20  C   LIG    1        0.881   5.110  10.226  0.00  0.00    +0.470 A 
ATOM     21  N   LIG    1       -0.351   5.331  10.765  0.00  0.00    -0.480 N 
ATOM     22  C   LIG    1       -0.639   6.071  11.996  0.00  0.00    +0.340 C 
ATOM     23  C   LIG    1       -1.273   4.734   9.942  0.00  0.00    +0.300 A 
ATOM     24  N   LIG    1       -2.596   4.614   9.946  0.00  0.00    -0.560 NA
ATOM     25  C   LIG    1       -3.213   3.959   8.985  0.00  0.00    +0.560 A 
ATOM     26  N   LIG    1       -2.566   3.399   7.980  0.00  0.00    -0.590 NA
ENDBRANCH  15  17
ENDBRANCH  14  15
ENDBRANCH   3  14
TORSDOF 5
