REMARK  Name = ZINCtV00000L6jXg.0
REMARK                            x       y       z     vdW  Elec       q    Type
REMARK                         _______ _______ _______ _____ _____    ______ ____
ROOT
ATOM      1  N   LIG    1        1.367  -1.676   1.111  0.00  0.00    -0.510 N 
ATOM      2  C   LIG    1        1.869  -1.275   2.296  0.00  0.00    +0.560 A 
ATOM      3  C   LIG    1        1.903  -2.200   3.379  0.00  0.00    -0.220 A 
ATOM      4  C   LIG    1        1.423  -3.487   3.156  0.00  0.00    +0.090 A 
ATOM      5  S   LIG    1        1.574  -4.444   4.624  0.00  0.00    +0.210 S 
ATOM      6  C   LIG    1        2.276  -3.105   5.511  0.00  0.00    -0.190 A 
ATOM      7  C   LIG    1        2.703  -3.171   6.955  0.00  0.00    +0.150 C 
ATOM      8  N   LIG    1        0.941  -3.817   1.941  0.00  0.00    -0.510 NA
ATOM      9  C   LIG    1        2.384  -2.022   4.744  0.00  0.00    -0.000 A 
ATOM     10  O   LIG    1        2.283  -0.137   2.440  0.00  0.00    -0.500 OA
ATOM     11  C   LIG    1        0.911  -2.952   0.955  0.00  0.00    +0.370 A 
ENDROOT
BRANCH   9  12
ATOM     12  C   LIG    1        2.945  -0.741   5.237  0.00  0.00    -0.030 A 
ATOM     13  C   LIG    1        4.136  -0.248   4.705  0.00  0.00    +0.030 A 
ATOM     14  C   LIG    1        4.651   0.947   5.165  0.00  0.00    +0.000 A 
ATOM     15  C   LIG    1        3.994   1.650   6.159  0.00  0.00    +0.010 A 
ATOM     16  C   LIG    1        2.814   1.163   6.693  0.00  0.00    +0.000 A 
ATOM     17  C   LIG    1        2.287  -0.028   6.238  0.00  0.00    +0.020 A 
ENDBRANCH   9  12
BRANCH   1  18
ATOM     18  C   LIG    1        1.317  -0.740  -0.015  0.00  0.00    +0.340 C 
BRANCH  18  20
ATOM     19  C   LIG    1       -0.016   1.306   0.009  0.00  0.00    +0.070 C 
ATOM     20  C   LIG    1        0.002  -0.004   0.002  0.00  0.00    -0.070 C 
ENDBRANCH  18  20
ENDBRANCH   1  18
BRANCH  11  21
ATOM     21  S   LIG    1        0.267  -3.451  -0.607  0.00  0.00    +0.020 S 
BRANCH  21  22
ATOM     22  C   LIG    1       -0.166  -5.168  -0.235  0.00  0.00    +0.150 C 
BRANCH  22  23
ATOM     23  C   LIG    1       -0.754  -5.816  -1.462  0.00  0.00    -0.100 A 
ATOM     24  C   LIG    1       -2.118  -5.767  -1.683  0.00  0.00    +0.070 A 
ATOM     25  C   LIG    1       -2.657  -6.356  -2.811  0.00  0.00    -0.010 A 
ATOM     26  C   LIG    1       -1.832  -7.003  -3.715  0.00  0.00    +0.110 A 
ATOM     27  C   LIG    1       -0.467  -7.056  -3.490  0.00  0.00    -0.010 A 
ATOM     28  F   LIG    1       -2.359  -7.584  -4.815  0.00  0.00    -0.140 F 
ATOM     29  C   LIG    1        0.071  -6.462  -2.365  0.00  0.00    +0.070 A 
ENDBRANCH  22  23
ENDBRANCH  21  22
ENDBRANCH  11  21
TORSDOF 6
