REMARK  Name = ZINCpk00000y6tPP.0
REMARK                            x       y       z     vdW  Elec       q    Type
REMARK                         _______ _______ _______ _____ _____    ______ ____
ROOT
ATOM      1  C   LIG    1        1.431   3.003  -2.422  0.00  0.00    +0.290 C 
ENDROOT
BRANCH   1   6
ATOM      2  C   LIG    1        1.679   4.048  -0.149  0.00  0.00    +0.090 C 
ATOM      3  C   LIG    1        0.554   4.964   0.392  0.00  0.00    +0.010 C 
ATOM      4  C   LIG    1        0.418   6.015  -0.740  0.00  0.00    +0.210 C 
ATOM      5  O   LIG    1        0.623   5.243  -1.942  0.00  0.00    -0.340 OA
ATOM      6  C   LIG    1        1.681   4.310  -1.668  0.00  0.00    +0.150 C 
BRANCH   2  11
ATOM      7  C   LIG    1       -0.747  -0.302   0.696  0.00  0.00    +0.200 C 
ATOM      8  C   LIG    1        0.326   0.738   0.498  0.00  0.00    +0.180 A 
ATOM      9  N   LIG    1        1.615   0.540   0.549  0.00  0.00    -0.290 NA
ATOM     10  N   LIG    1        2.232   1.647   0.334  0.00  0.00    -0.280 NA
ATOM     11  C   LIG    1        1.365   2.602   0.136  0.00  0.00    +0.190 A 
ATOM     12  N   LIG    1        0.131   2.053   0.234  0.00  0.00    -0.580 N 
ATOM     13  H   LIG    1       -0.720   2.508   0.132  0.00  0.00    +0.430 HD
ENDBRANCH   2  11
ENDBRANCH   1   6
BRANCH   1  14
ATOM     14  N   LIG    1        1.554   3.239  -3.863  0.00  0.00    -0.610 N 
ATOM     15  C   LIG    1        0.471   3.597  -4.581  0.00  0.00    +0.600 C 
ATOM     16  O   LIG    1       -0.580   3.840  -4.018  0.00  0.00    -0.530 OA
ATOM     17  C   LIG    1        2.853   3.085  -4.522  0.00  0.00    +0.280 C 
BRANCH  15  18
ATOM     18  C   LIG    1        0.560   3.694  -6.041  0.00  0.00    -0.310 A 
ATOM     19  C   LIG    1       -0.423   4.208  -6.909  0.00  0.00    +0.170 A 
ATOM     20  C   LIG    1       -1.697   4.750  -6.693  0.00  0.00    +0.050 A 
ATOM     21  C   LIG    1       -2.431   5.175  -7.761  0.00  0.00    +0.080 A 
ATOM     22  C   LIG    1       -1.897   5.061  -9.052  0.00  0.00    +0.000 A 
ATOM     23  C   LIG    1       -0.665   4.535  -9.238  0.00  0.00    +0.280 A 
ATOM     24  N   LIG    1        0.075   4.108  -8.177  0.00  0.00    -0.270 N 
ATOM     25  N   LIG    1        1.352   3.538  -8.094  0.00  0.00    -0.320 NA
ATOM     26  C   LIG    1        1.645   3.298  -6.842  0.00  0.00    +0.310 A 
ENDBRANCH  15  18
ENDBRANCH   1  14
TORSDOF 4
