REMARK  Name = ZINCqH00000337Yq.0
REMARK                            x       y       z     vdW  Elec       q    Type
REMARK                         _______ _______ _______ _____ _____    ______ ____
ROOT
ATOM      1  N   LIG    1        4.020  -5.420   1.602  0.00  0.00    -0.720 N 
ATOM      2  H   LIG    1        4.198  -6.018   0.860  0.00  0.00    +0.400 HD
ATOM      3  C   LIG    1        3.627  -4.152   1.366  0.00  0.00    +0.500 C 
ATOM      4  O   LIG    1        3.404  -3.404   2.294  0.00  0.00    -0.510 OA
ENDROOT
BRANCH   1   5
ATOM      5  C   LIG    1        4.177  -5.894   2.979  0.00  0.00    +0.290 C 
BRANCH   5   6
ATOM      6  C   LIG    1        5.158  -7.037   3.008  0.00  0.00    -0.090 A 
ATOM      7  C   LIG    1        5.134  -7.994   2.010  0.00  0.00    +0.000 A 
ATOM      8  C   LIG    1        6.036  -9.040   2.034  0.00  0.00    +0.000 A 
ATOM      9  C   LIG    1        6.957  -9.136   3.061  0.00  0.00    +0.000 A 
ATOM     10  C   LIG    1        6.978  -8.182   4.061  0.00  0.00    +0.020 A 
ATOM     11  C   LIG    1        6.078  -7.133   4.035  0.00  0.00    +0.010 A 
ENDBRANCH   5   6
BRANCH   5  12
ATOM     12  C   LIG    1        2.824  -6.369   3.512  0.00  0.00    +0.020 C 
BRANCH  12  14
ATOM     13  C   LIG    1        0.511  -5.655   4.133  0.00  0.00    +0.000 C 
ATOM     14  C   LIG    1        1.864  -5.180   3.600  0.00  0.00    +0.000 C 
ENDBRANCH  12  14
ENDBRANCH   5  12
ENDBRANCH   1   5
BRANCH   3  15
ATOM     15  C   LIG    1        3.466  -3.664  -0.051  0.00  0.00    +0.330 C 
BRANCH  15  16
ATOM     16  N   LIG    1        3.035  -2.264  -0.039  0.00  0.00    -0.520 N 
ATOM     17  C   LIG    1        3.962  -1.272  -0.043  0.00  0.00    +0.600 A 
ATOM     18  N   LIG    1        3.624  -0.017  -0.033  0.00  0.00    -0.500 NA
ATOM     19  C   LIG    1        2.330   0.370  -0.018  0.00  0.00    +0.070 A 
ATOM     20  C   LIG    1        1.326  -0.594  -0.014  0.00  0.00    -0.220 A 
ATOM     21  C   LIG    1        0.002  -0.004   0.002  0.00  0.00    -0.040 A 
ATOM     22  C   LIG    1       -0.016   1.316   0.009  0.00  0.00    -0.200 A 
ATOM     23  C   LIG    1       -1.271   2.150   0.020  0.00  0.00    +0.150 C 
ATOM     24  C   LIG    1       -1.256  -0.833   0.009  0.00  0.00    +0.120 C 
ATOM     25  S   LIG    1        1.609   1.974  -0.003  0.00  0.00    +0.200 S 
ATOM     26  C   LIG    1        1.720  -1.968  -0.025  0.00  0.00    +0.570 A 
ATOM     27  O   LIG    1        0.884  -2.855  -0.022  0.00  0.00    -0.520 OA
ENDBRANCH  15  16
ENDBRANCH   3  15
TORSDOF 6
