REMARK  Name = ZINCnE000001QgmC.1
REMARK                            x       y       z     vdW  Elec       q    Type
REMARK                         _______ _______ _______ _____ _____    ______ ____
ROOT
ATOM      1  N   LIG    1        3.132   1.840   4.181  0.00  0.00    -0.650 NA
ATOM      2  C   LIG    1        3.506   2.158   5.436  0.00  0.00    +0.460 C 
ATOM      3  O   LIG    1        2.678   2.533   6.239  0.00  0.00    -0.570 OA
ENDROOT
BRANCH   1   8
ATOM      4  C   LIG    1       -0.013   1.086   0.008  0.00  0.00    +0.080 C 
ATOM      5  C   LIG    1       -0.718   1.572   1.248  0.00  0.00    -0.080 A 
ATOM      6  C   LIG    1        0.020   1.809   2.427  0.00  0.00    +0.140 A 
ATOM      7  N   LIG    1        1.343   1.661   2.638  0.00  0.00    -0.560 NA
ATOM      8  C   LIG    1        1.801   1.941   3.808  0.00  0.00    +0.410 A 
ATOM      9  S   LIG    1        0.500   2.467   4.866  0.00  0.00    -0.020 S 
ATOM     10  C   LIG    1       -0.664   2.260   3.560  0.00  0.00    -0.230 A 
ATOM     11  C   LIG    1       -2.041   2.466   3.517  0.00  0.00    +0.050 A 
ATOM     12  C   LIG    1       -2.741   2.227   2.354  0.00  0.00    -0.040 A 
ATOM     13  C   LIG    1       -2.073   1.786   1.221  0.00  0.00    +0.010 A 
ENDBRANCH   1   8
BRANCH   2  14
ATOM     14  C   LIG    1        4.953   2.049   5.842  0.00  0.00    +0.250 C 
BRANCH  14  15
ATOM     15  O   LIG    1        5.095   2.438   7.210  0.00  0.00    -0.290 OA
BRANCH  15  16
ATOM     16  C   LIG    1        6.346   2.396   7.735  0.00  0.00    +0.190 A 
ATOM     17  C   LIG    1        7.416   1.989   6.954  0.00  0.00    -0.070 A 
ATOM     18  C   LIG    1        8.688   1.947   7.490  0.00  0.00    +0.080 A 
ATOM     19  C   LIG    1        8.905   2.310   8.809  0.00  0.00    -0.040 A 
ATOM     20  C   LIG    1        7.852   2.717   9.600  0.00  0.00    +0.110 A 
ATOM     21  C   LIG    1        6.562   2.769   9.069  0.00  0.00    -0.070 A 
BRANCH  21  22
ATOM     22  C   LIG    1        5.464   3.197   9.884  0.00  0.00    +0.260 C 
ATOM     23  N   LIG    1        4.594   3.537  10.530  0.00  0.00    -0.420 NA
ENDBRANCH  21  22
ENDBRANCH  15  16
ENDBRANCH  14  15
ENDBRANCH   2  14
TORSDOF 5
