REMARK  Name = ZINCb80000002Isr.0
REMARK                            x       y       z     vdW  Elec       q    Type
REMARK                         _______ _______ _______ _____ _____    ______ ____
ROOT
ATOM      1  C   LIG    1       -4.303   0.979   1.442  0.00  0.00    +0.080 A 
ATOM      2  N   LIG    1       -3.153   1.278   2.023  0.00  0.00    -0.410 NA
ATOM      3  C   LIG    1       -2.202   1.296   1.109  0.00  0.00    +0.010 A 
ATOM      4  C   LIG    1       -2.762   0.998  -0.101  0.00  0.00    -0.030 A 
ATOM      5  C   LIG    1       -1.971   0.931  -1.383  0.00  0.00    +0.330 C 
ATOM      6  O   LIG    1       -0.702   1.558  -1.152  0.00  0.00    -0.370 OA
ATOM      7  C   LIG    1       -0.013   1.086   0.008  0.00  0.00    +0.230 C 
ATOM      8  C   LIG    1       -0.729   1.580   1.273  0.00  0.00    +0.110 C 
ATOM      9  N   LIG    1       -4.074   0.798   0.101  0.00  0.00    -0.510 N 
ATOM     10  H   LIG    1       -4.734   0.570  -0.572  0.00  0.00    +0.430 HD
ENDROOT
BRANCH   1  12
ATOM     11  O   LIG    1       -6.591   0.579   1.475  0.00  0.00    -0.460 OA
ATOM     12  C   LIG    1       -5.599   0.860   2.115  0.00  0.00    +0.580 C 
ENDBRANCH   1  12
TORSDOF 1
