REMARK  Name = ZINCb80000002Isr.1
REMARK                            x       y       z     vdW  Elec       q    Type
REMARK                         _______ _______ _______ _____ _____    ______ ____
ROOT
ATOM      1  C   LIG    1       -1.406   2.203  -3.191  0.00  0.00    +0.080 A 
ATOM      2  N   LIG    1       -2.397   2.449  -2.351  0.00  0.00    -0.400 NA
ATOM      3  C   LIG    1       -2.031   2.088  -1.135  0.00  0.00    -0.040 A 
ATOM      4  C   LIG    1       -0.759   1.594  -1.200  0.00  0.00    +0.020 A 
ATOM      5  C   LIG    1       -0.013   1.086   0.008  0.00  0.00    +0.110 C 
ATOM      6  C   LIG    1       -0.749   1.590   1.258  0.00  0.00    +0.240 C 
ATOM      7  O   LIG    1       -2.152   1.339   1.122  0.00  0.00    -0.370 OA
ATOM      8  C   LIG    1       -2.812   2.167   0.154  0.00  0.00    +0.350 C 
ATOM      9  N   LIG    1       -0.364   1.661  -2.480  0.00  0.00    -0.510 N 
ATOM     10  H   LIG    1        0.494   1.381  -2.836  0.00  0.00    +0.430 HD
ENDROOT
BRANCH   1  12
ATOM     11  O   LIG    1       -0.445   2.192  -5.306  0.00  0.00    -0.460 OA
ATOM     12  C   LIG    1       -1.418   2.462  -4.633  0.00  0.00    +0.580 C 
ENDBRANCH   1  12
TORSDOF 1
