REMARK  Name = ZINCtV00000L6jl4.0
REMARK                            x       y       z     vdW  Elec       q    Type
REMARK                         _______ _______ _______ _____ _____    ______ ____
ROOT
ATOM      1  C   LIG    1        0.206   6.050  -0.474  0.00  0.00    +0.070 C 
ATOM      2  S   LIG    1       -1.150   6.947  -1.231  0.00  0.00    -0.070 S 
ATOM      3  C   LIG    1       -0.481   7.691  -2.671  0.00  0.00    -0.170 A 
ATOM      4  C   LIG    1       -1.307   7.805  -3.793  0.00  0.00    +0.060 A 
ATOM      5  C   LIG    1       -0.802   8.249  -4.995  0.00  0.00    +0.000 A 
ATOM      6  C   LIG    1        0.545   8.552  -5.115  0.00  0.00    +0.040 A 
ATOM      7  C   LIG    1        1.362   8.495  -4.008  0.00  0.00    +0.020 A 
ATOM      8  C   LIG    1        0.827   8.150  -2.756  0.00  0.00    +0.190 A 
ATOM      9  N   LIG    1        1.526   8.458  -1.665  0.00  0.00    -0.580 NA
ATOM     10  C   LIG    1        1.658   8.169  -0.444  0.00  0.00    +0.340 C 
ATOM     11  C   LIG    1        2.377   9.159   0.406  0.00  0.00    -0.080 A 
ATOM     12  C   LIG    1        2.833  10.344  -0.179  0.00  0.00    +0.080 A 
ATOM     13  C   LIG    1        3.504  11.270   0.592  0.00  0.00    +0.000 A 
ATOM     14  C   LIG    1        3.723  11.025   1.936  0.00  0.00    +0.030 A 
ATOM     15  C   LIG    1        3.273   9.854   2.518  0.00  0.00    +0.000 A 
ATOM     16  C   LIG    1        2.598   8.916   1.758  0.00  0.00    -0.050 A 
ATOM     17  C   LIG    1        2.114   7.649   2.410  0.00  0.00    +0.080 C 
ATOM     18  C   LIG    1        0.903   7.106   1.657  0.00  0.00    +0.050 C 
ATOM     19  C   LIG    1        1.264   6.881   0.182  0.00  0.00    +0.000 C 
ENDROOT
BRANCH   1  23
ATOM     20  C   LIG    1       -1.419   3.403   2.465  0.00  0.00    +0.110 A 
ATOM     21  C   LIG    1       -0.387   2.981   1.643  0.00  0.00    -0.030 A 
ATOM     22  C   LIG    1        0.136   3.839   0.694  0.00  0.00    +0.030 A 
ATOM     23  C   LIG    1       -0.368   5.119   0.562  0.00  0.00    -0.060 A 
ATOM     24  C   LIG    1       -1.403   5.545   1.375  0.00  0.00    -0.020 A 
ATOM     25  C   LIG    1       -1.927   4.692   2.332  0.00  0.00    +0.110 A 
BRANCH  20  27
ATOM     26  C   LIG    1       -1.363   1.252   3.479  0.00  0.00    +0.240 C 
ATOM     27  O   LIG    1       -1.935   2.560   3.399  0.00  0.00    -0.300 OA
ENDBRANCH  20  27
BRANCH  25  28
ATOM     28  O   LIG    1       -2.941   5.111   3.136  0.00  0.00    -0.300 OA
ATOM     29  C   LIG    1       -3.412   6.446   2.943  0.00  0.00    +0.240 C 
ENDBRANCH  25  28
ENDBRANCH   1  23
TORSDOF 3
