REMARK  Name = ZINCkj000005jdmH.0
REMARK                            x       y       z     vdW  Elec       q    Type
REMARK                         _______ _______ _______ _____ _____    ______ ____
ROOT
ATOM      1  N   LIG    1        0.002  -0.004   0.002  0.00  0.00    -0.390 N 
ATOM      2  C   LIG    1        0.606  -0.492   1.249  0.00  0.00    +0.330 C 
ATOM      3  H   LIG    1        0.545  -0.329  -0.784  0.00  0.00    +0.420 HD
ENDROOT
BRANCH   1   5
ATOM      4  C   LIG    1       -2.001  -0.003  -1.407  0.00  0.00    +0.100 C 
ATOM      5  C   LIG    1       -1.372  -0.512  -0.108  0.00  0.00    +0.240 C 
BRANCH   5   6
ATOM      6  C   LIG    1       -1.351  -2.019  -0.117  0.00  0.00    -0.200 A 
ATOM      7  C   LIG    1       -2.311  -2.737   0.579  0.00  0.00    +0.110 A 
ATOM      8  C   LIG    1       -2.256  -4.122   0.539  0.00  0.00    -0.010 A 
ATOM      9  C   LIG    1       -1.248  -4.736  -0.179  0.00  0.00    +0.300 A 
ATOM     10  N   LIG    1       -0.348  -4.020  -0.825  0.00  0.00    -0.470 NA
ATOM     11  C   LIG    1       -0.372  -2.701  -0.813  0.00  0.00    +0.250 A 
ENDBRANCH   5   6
ENDBRANCH   1   5
BRANCH   1  12
ATOM     12  C   LIG    1       -0.018   1.465   0.010  0.00  0.00    +0.290 C 
BRANCH  12  13
ATOM     13  C   LIG    1        1.417   1.994  -0.001  0.00  0.00    +0.070 C 
BRANCH  13  14
ATOM     14  C   LIG    1        1.397   3.501   0.007  0.00  0.00    +0.520 C 
ATOM     15  N   LIG    1        2.555   4.191   0.000  0.00  0.00    -0.610 N 
ATOM     16  C   LIG    1        3.851   3.495  -0.010  0.00  0.00    +0.250 C 
ATOM     17  C   LIG    1        4.704   4.087  -1.143  0.00  0.00    +0.210 C 
ATOM     18  O   LIG    1        4.749   5.508  -1.003  0.00  0.00    -0.370 OA
ATOM     19  C   LIG    1        3.476   6.149  -1.121  0.00  0.00    +0.230 C 
ATOM     20  C   LIG    1        2.560   5.662   0.008  0.00  0.00    +0.270 C 
ATOM     21  O   LIG    1        0.339   4.093   0.021  0.00  0.00    -0.530 OA
ENDBRANCH  13  14
ENDBRANCH  12  13
ENDBRANCH   1  12
TORSDOF 5
