REMARK  Name = ZINCkj000005jdmH.1
REMARK                            x       y       z     vdW  Elec       q    Type
REMARK                         _______ _______ _______ _____ _____    ______ ____
ROOT
ATOM      1  N   LIG    1       -0.012   1.005   0.008  0.00  0.00    -0.390 N 
ATOM      2  C   LIG    1       -0.722   1.492  -1.183  0.00  0.00    +0.330 C 
ATOM      3  H   LIG    1        0.002  -0.004   0.002  0.00  0.00    +0.420 HD
ENDROOT
BRANCH   1   5
ATOM      4  C   LIG    1       -2.135   0.949   1.227  0.00  0.00    +0.100 C 
ATOM      5  C   LIG    1       -0.699   1.479   1.216  0.00  0.00    +0.240 C 
BRANCH   5   6
ATOM      6  C   LIG    1        0.030   0.979   2.437  0.00  0.00    -0.200 A 
ATOM      7  C   LIG    1        0.198   1.803   3.540  0.00  0.00    +0.110 A 
ATOM      8  C   LIG    1        0.870   1.299   4.643  0.00  0.00    +0.000 A 
ATOM      9  C   LIG    1        1.357   0.006   4.603  0.00  0.00    +0.300 A 
ATOM     10  N   LIG    1        1.183  -0.747   3.534  0.00  0.00    -0.470 NA
ATOM     11  C   LIG    1        0.544  -0.303   2.470  0.00  0.00    +0.250 A 
ENDBRANCH   5   6
ENDBRANCH   1   5
BRANCH   1  12
ATOM     12  C   LIG    1        1.367   1.513  -0.003  0.00  0.00    +0.280 C 
BRANCH  12  13
ATOM     13  C   LIG    1        2.120   0.920  -1.195  0.00  0.00    +0.070 C 
BRANCH  13  14
ATOM     14  C   LIG    1        3.534   1.442  -1.206  0.00  0.00    +0.520 C 
ATOM     15  N   LIG    1        4.389   1.052  -2.172  0.00  0.00    -0.610 N 
ATOM     16  C   LIG    1        3.966   0.113  -3.224  0.00  0.00    +0.250 C 
ATOM     17  C   LIG    1        4.345   0.717  -4.585  0.00  0.00    +0.220 C 
ATOM     18  O   LIG    1        5.729   1.073  -4.572  0.00  0.00    -0.370 OA
ATOM     19  C   LIG    1        6.066   2.078  -3.612  0.00  0.00    +0.230 C 
ATOM     20  C   LIG    1        5.774   1.548  -2.203  0.00  0.00    +0.270 C 
ATOM     21  O   LIG    1        3.902   2.212  -0.345  0.00  0.00    -0.530 OA
ENDBRANCH  13  14
ENDBRANCH  12  13
ENDBRANCH   1  12
TORSDOF 5
