REMARK  Name = ZINCvU0000000A7r.0
REMARK                            x       y       z     vdW  Elec       q    Type
REMARK                         _______ _______ _______ _____ _____    ______ ____
ROOT
ATOM      1  C   LIG    1       -1.259   3.410   0.128  0.00  0.00    +0.520 C 
ATOM      2  N   LIG    1       -1.237   2.067   0.019  0.00  0.00    -0.670 N 
ATOM      3  H   LIG    1       -2.069   1.572  -0.047  0.00  0.00    +0.410 HD
ATOM      4  O   LIG    1       -0.220   4.035   0.127  0.00  0.00    -0.520 OA
ENDROOT
BRANCH   2   5
ATOM      5  C   LIG    1       -0.017   1.387   0.001  0.00  0.00    +0.150 A 
ATOM      6  C   LIG    1        1.088   1.960  -0.618  0.00  0.00    +0.020 A 
ATOM      7  C   LIG    1        2.292   1.290  -0.642  0.00  0.00    +0.030 A 
ATOM      8  C   LIG    1        2.401   0.033  -0.045  0.00  0.00    -0.020 A 
ATOM      9  C   LIG    1        1.290  -0.540   0.576  0.00  0.00    +0.080 A 
ATOM     10  C   LIG    1        0.089   0.135   0.598  0.00  0.00    -0.010 A 
BRANCH   8  11
ATOM     11  C   LIG    1        3.691  -0.689  -0.069  0.00  0.00    +0.240 A 
ATOM     12  N   LIG    1        3.866  -1.967   0.200  0.00  0.00    -0.480 NA
ATOM     13  C   LIG    1        5.167  -2.272   0.076  0.00  0.00    +0.150 A 
ATOM     14  C   LIG    1        5.825  -1.160  -0.280  0.00  0.00    -0.020 A 
ATOM     15  C   LIG    1        7.299  -0.983  -0.544  0.00  0.00    +0.120 C 
ATOM     16  C   LIG    1        7.492   0.344  -1.290  0.00  0.00    +0.020 C 
ATOM     17  C   LIG    1        6.725   1.451  -0.563  0.00  0.00    +0.030 C 
ATOM     18  C   LIG    1        5.217   1.232  -0.734  0.00  0.00    +0.290 C 
ATOM     19  N   LIG    1        4.899  -0.152  -0.378  0.00  0.00    -0.450 N 
ENDBRANCH   8  11
ENDBRANCH   2   5
BRANCH   1  21
ATOM     20  C   LIG    1       -3.432   3.850  -0.983  0.00  0.00    +0.050 C 
ATOM     21  C   LIG    1       -2.574   4.135   0.252  0.00  0.00    +0.000 C 
BRANCH  21  22
ATOM     22  C   LIG    1       -2.319   5.639   0.360  0.00  0.00    +0.120 C 
BRANCH  22  23
ATOM     23  C   LIG    1       -3.623   6.354   0.607  0.00  0.00    -0.120 A 
ATOM     24  C   LIG    1       -4.333   6.882  -0.428  0.00  0.00    +0.230 A 
ATOM     25  N   LIG    1       -5.483   7.514  -0.239  0.00  0.00    -0.490 NA
ATOM     26  C   LIG    1       -6.017   7.677   0.949  0.00  0.00    +0.300 A 
ATOM     27  C   LIG    1       -5.365   7.170   2.084  0.00  0.00    -0.110 A 
ATOM     28  C   LIG    1       -5.894   7.319   3.376  0.00  0.00    +0.040 A 
ATOM     29  C   LIG    1       -5.217   6.807   4.441  0.00  0.00    +0.010 A 
ATOM     30  C   LIG    1       -4.007   6.138   4.271  0.00  0.00    +0.040 A 
ATOM     31  C   LIG    1       -3.463   5.975   3.032  0.00  0.00    +0.010 A 
ATOM     32  C   LIG    1       -4.135   6.483   1.911  0.00  0.00    -0.020 A 
ENDBRANCH  22  23
ENDBRANCH  21  22
ENDBRANCH   1  21
TORSDOF 5
