REMARK  Name = ZINCvU0000000HeQ.1
REMARK                            x       y       z     vdW  Elec       q    Type
REMARK                         _______ _______ _______ _____ _____    ______ ____
ROOT
ATOM      1  C   LIG    1       -1.259   8.047   0.287  0.00  0.00    -0.040 A 
ATOM      2  C   LIG    1       -2.368   8.862   0.416  0.00  0.00    +0.040 A 
ATOM      3  C   LIG    1       -1.860  10.171   0.494  0.00  0.00    +0.070 A 
ATOM      4  N   LIG    1       -0.548  10.094   0.415  0.00  0.00    -0.250 NA
ATOM      5  N   LIG    1       -0.170   8.872   0.299  0.00  0.00    -0.370 N 
ATOM      6  H   LIG    1        0.752   8.579   0.229  0.00  0.00    +0.450 HD
ENDROOT
BRANCH   3   7
ATOM      7  C   LIG    1       -2.658  11.415   0.642  0.00  0.00    -0.030 A 
ATOM      8  C   LIG    1       -4.048  11.348   0.709  0.00  0.00    +0.080 A 
ATOM      9  C   LIG    1       -4.786  12.504   0.852  0.00  0.00    -0.050 A 
ATOM     10  C   LIG    1       -4.146  13.734   0.917  0.00  0.00    +0.110 A 
ATOM     11  C   LIG    1       -2.762  13.804   0.844  0.00  0.00    +0.020 A 
ATOM     12  C   LIG    1       -2.018  12.651   0.707  0.00  0.00    +0.090 A 
BRANCH  10  13
ATOM     13  O   LIG    1       -4.877  14.872   1.051  0.00  0.00    -0.310 OA
BRANCH  13  14
ATOM     14  C   LIG    1       -6.297  14.727   1.120  0.00  0.00    +0.600 C 
ATOM     15  F   LIG    1       -6.760  14.120  -0.052  0.00  0.00    -0.160 F 
ATOM     16  F   LIG    1       -6.888  15.988   1.257  0.00  0.00    -0.130 F 
ATOM     17  F   LIG    1       -6.632  13.933   2.221  0.00  0.00    -0.160 F 
ENDBRANCH  13  14
ENDBRANCH  10  13
ENDBRANCH   3   7
BRANCH   1  19
ATOM     18  O   LIG    1       -2.302   5.965   0.174  0.00  0.00    -0.490 OA
ATOM     19  C   LIG    1       -1.253   6.581   0.166  0.00  0.00    +0.600 C 
ATOM     20  N   LIG    1       -0.084   5.920   0.046  0.00  0.00    -0.670 N 
ATOM     21  H   LIG    1        0.747   6.414  -0.028  0.00  0.00    +0.410 HD
BRANCH  20  22
ATOM     22  C   LIG    1       -0.070   4.520   0.028  0.00  0.00    +0.180 A 
ATOM     23  C   LIG    1       -1.109   3.823  -0.575  0.00  0.00    +0.020 A 
ATOM     24  C   LIG    1       -1.096   2.443  -0.592  0.00  0.00    +0.110 A 
ATOM     25  C   LIG    1       -0.043   1.751  -0.006  0.00  0.00    -0.160 A 
ATOM     26  C   LIG    1        0.993   2.448   0.602  0.00  0.00    +0.110 A 
ATOM     27  C   LIG    1        0.982   3.828   0.615  0.00  0.00    -0.010 A 
BRANCH  25  28
ATOM     28  S   LIG    1       -0.026  -0.011  -0.028  0.00  0.00    +0.140 S 
BRANCH  28  29
ATOM     29  C   LIG    1        0.693  -0.381  -1.593  0.00  0.00    -0.020 A 
ATOM     30  N   LIG    1        1.179   0.482  -2.440  0.00  0.00    -0.260 NA
ATOM     31  N   LIG    1        1.657   0.037  -3.518  0.00  0.00    -0.250 NA
ATOM     32  C   LIG    1        1.633  -1.242  -3.711  0.00  0.00    +0.220 A 
ATOM     33  S   LIG    1        0.891  -1.989  -2.294  0.00  0.00    +0.110 S 
ENDBRANCH  28  29
ENDBRANCH  25  28
ENDBRANCH  20  22
ENDBRANCH   1  19
TORSDOF 7
