REMARK  Name = ZINCvU0000000HEq.0
REMARK                            x       y       z     vdW  Elec       q    Type
REMARK                         _______ _______ _______ _____ _____    ______ ____
ROOT
ATOM      1  C   LIG    1       -1.271  -0.766   0.011  0.00  0.00    +0.150 C 
ATOM      2  C   LIG    1       -1.240  -2.112   0.003  0.00  0.00    -0.040 C 
ATOM      3  C   LIG    1       -2.558  -2.852   0.013  0.00  0.00    +0.330 C 
ATOM      4  N   LIG    1       -3.798  -2.033   0.030  0.00  0.00    -0.570 N 
ATOM      5  C   LIG    1       -5.058  -2.476   0.041  0.00  0.00    +0.560 A 
ATOM      6  C   LIG    1       -6.080  -1.539   0.057  0.00  0.00    -0.230 A 
ATOM      7  S   LIG    1       -5.258   0.032   0.057  0.00  0.00    +0.150 S 
ATOM      8  C   LIG    1       -7.453  -1.779   0.071  0.00  0.00    -0.060 C 
ATOM      9  S   LIG    1       -8.245  -3.352   0.064  0.00  0.00    +0.180 S 
ATOM     10  C   LIG    1       -9.926  -2.870   0.092  0.00  0.00    -0.180 C 
ATOM     11  C   LIG    1      -10.149  -1.595   0.101  0.00  0.00    -0.170 C 
ATOM     12  C   LIG    1      -11.545  -1.028   0.119  0.00  0.00    +0.180 C 
ATOM     13  C   LIG    1      -11.046  -3.877   0.099  0.00  0.00    +0.180 C 
ATOM     14  S   LIG    1       -8.732  -0.570   0.091  0.00  0.00    +0.120 S 
ATOM     15  O   LIG    1       -5.303  -3.673   0.037  0.00  0.00    -0.480 OA
ATOM     16  C   LIG    1       -3.629  -0.669   0.035  0.00  0.00    +0.360 A 
ATOM     17  N   LIG    1       -2.451  -0.098   0.032  0.00  0.00    -0.490 NA
ENDROOT
BRANCH   1  22
ATOM     18  C   LIG    1        3.671   2.192  -0.021  0.00  0.00    +0.090 C 
ATOM     19  C   LIG    1        2.377   1.418  -0.013  0.00  0.00    -0.080 A 
ATOM     20  C   LIG    1        1.170   2.093   0.002  0.00  0.00    +0.000 A 
ATOM     21  C   LIG    1       -0.017   1.389   0.010  0.00  0.00    +0.050 A 
ATOM     22  C   LIG    1        0.002  -0.004   0.002  0.00  0.00    -0.050 A 
ATOM     23  C   LIG    1        1.221  -0.679  -0.013  0.00  0.00    +0.030 A 
ATOM     24  C   LIG    1        2.402   0.035  -0.021  0.00  0.00    +0.010 A 
ENDBRANCH   1  22
BRANCH   3  25
ATOM     25  C   LIG    1       -2.577  -3.747   1.225  0.00  0.00    -0.090 A 
ATOM     26  C   LIG    1       -2.875  -3.220   2.468  0.00  0.00    +0.030 A 
ATOM     27  C   LIG    1       -2.897  -4.042   3.579  0.00  0.00    +0.020 A 
ATOM     28  C   LIG    1       -2.612  -5.389   3.449  0.00  0.00    -0.030 A 
ATOM     29  C   LIG    1       -2.309  -5.915   2.206  0.00  0.00    +0.030 A 
ATOM     30 CL   LIG    1       -2.632  -6.420   4.846  0.00  0.00    -0.070 Cl
ATOM     31  C   LIG    1       -2.292  -5.093   1.094  0.00  0.00    +0.050 A 
ENDBRANCH   3  25
TORSDOF 2
