REMARK  Name = ZINCqH00000070n5.0
REMARK                            x       y       z     vdW  Elec       q    Type
REMARK                         _______ _______ _______ _____ _____    ______ ____
ROOT
ATOM      1  C   LIG    1       -0.311   6.156   6.383  0.00  0.00    +0.380 C 
ENDROOT
BRANCH   1   5
ATOM      2  N   LIG    1        3.187   6.729   7.312  0.00  0.00    -0.310 N 
ATOM      3  C   LIG    1        2.804   8.003   7.068  0.00  0.00    +0.230 A 
ATOM      4  C   LIG    1        1.501   7.977   6.702  0.00  0.00    -0.090 A 
ATOM      5  C   LIG    1        1.074   6.645   6.723  0.00  0.00    +0.060 A 
ATOM      6  N   LIG    1        2.082   5.897   7.093  0.00  0.00    -0.270 NA
BRANCH   2  10
ATOM      7  C   LIG    1        6.987   5.499   8.517  0.00  0.00    +0.120 A 
ATOM      8  C   LIG    1        5.980   4.562   8.332  0.00  0.00    +0.010 A 
ATOM      9  C   LIG    1        4.723   4.968   7.933  0.00  0.00    +0.070 A 
ATOM     10  C   LIG    1        4.465   6.316   7.718  0.00  0.00    +0.120 A 
ATOM     11  C   LIG    1        5.474   7.252   7.898  0.00  0.00    +0.030 A 
ATOM     12  C   LIG    1        6.729   6.845   8.302  0.00  0.00    -0.040 A 
BRANCH   7  14
ATOM     13  C   LIG    1        9.213   6.116   9.081  0.00  0.00    +0.240 C 
ATOM     14  O   LIG    1        8.225   5.098   8.910  0.00  0.00    -0.310 OA
ENDBRANCH   7  14
ENDBRANCH   2  10
ENDBRANCH   1   5
BRANCH   1  15
ATOM     15  N   LIG    1       -0.352   5.745   4.978  0.00  0.00    -0.720 N 
ATOM     16  H   LIG    1        0.445   5.814   4.428  0.00  0.00    +0.400 HD
ATOM     17  C   LIG    1       -1.496   5.269   4.448  0.00  0.00    +0.550 C 
ATOM     18  O   LIG    1       -2.492   5.183   5.134  0.00  0.00    -0.530 OA
BRANCH  17  19
ATOM     19  C   LIG    1       -1.539   4.846   3.002  0.00  0.00    -0.060 C 
ATOM     20  C   LIG    1       -2.843   4.238   2.482  0.00  0.00    +0.040 C 
ATOM     21  C   LIG    1       -2.434   5.649   2.056  0.00  0.00    -0.080 C 
ATOM     22  C   LIG    1       -3.218   6.821   2.651  0.00  0.00    +0.060 C 
ATOM     23  C   LIG    1       -1.950   5.841   0.618  0.00  0.00    +0.080 C 
BRANCH  20  24
ATOM     24  C   LIG    1       -2.737   3.143   1.452  0.00  0.00    -0.030 C 
ATOM     25  C   LIG    1       -3.805   2.472   1.098  0.00  0.00    -0.120 C 
ATOM     26  C   LIG    1       -5.139   2.795   1.720  0.00  0.00    +0.080 C 
ATOM     27  C   LIG    1       -3.700   1.377   0.068  0.00  0.00    +0.080 C 
ENDBRANCH  20  24
ENDBRANCH  17  19
ENDBRANCH   1  15
TORSDOF 6
