REMARK  Name = ZINC660000002h9b.0
REMARK                            x       y       z     vdW  Elec       q    Type
REMARK                         _______ _______ _______ _____ _____    ______ ____
ROOT
ATOM      1  C   LIG    1        1.064   2.218   0.004  0.00  0.00    -0.060 C 
ATOM      2  C   LIG    1       -0.018   1.499   0.010  0.00  0.00    -0.070 C 
ATOM      3  C   LIG    1        0.002  -0.004   0.002  0.00  0.00    +0.220 C 
ATOM      4  O   LIG    1        1.302  -0.469  -0.371  0.00  0.00    -0.210 OA
ATOM      5  N   LIG    1        2.378   0.203   0.368  0.00  0.00    -0.480 NA
ATOM      6  H   LIG    1        2.246   0.108   1.364  0.00  0.00    +0.340 HD
ATOM      7  C   LIG    1        2.442   1.619  -0.022  0.00  0.00    +0.250 C 
ENDROOT
TORSDOF 0
