REMARK  Name = ZINCpk000000otX8.1
REMARK                            x       y       z     vdW  Elec       q    Type
REMARK                         _______ _______ _______ _____ _____    ______ ____
ROOT
ATOM      1  N   LIG    1       -2.719   4.378   0.053  0.00  0.00    -0.640 N 
ATOM      2  C   LIG    1       -3.803   3.383   0.051  0.00  0.00    +0.310 C 
ATOM      3  C   LIG    1       -4.679   4.421   0.772  0.00  0.00    +0.080 C 
ATOM      4  C   LIG    1       -3.753   5.423   0.069  0.00  0.00    +0.320 C 
ENDROOT
BRANCH   3   5
ATOM      5  C   LIG    1       -6.108   4.458   0.292  0.00  0.00    +0.110 A 
ATOM      6  C   LIG    1       -7.189   4.723   1.042  0.00  0.00    -0.260 A 
ATOM      7  C   LIG    1       -7.278   5.061   2.510  0.00  0.00    +0.300 C 
ATOM      8  O   LIG    1       -8.580   5.611   2.755  0.00  0.00    -0.380 OA
ATOM      9  C   LIG    1       -9.663   4.818   2.263  0.00  0.00    +0.230 C 
ATOM     10  C   LIG    1       -9.720   4.903   0.730  0.00  0.00    +0.130 C 
ATOM     11  C   LIG    1       -8.323   4.657   0.210  0.00  0.00    +0.090 A 
ATOM     12  N   LIG    1       -7.931   4.359  -0.990  0.00  0.00    -0.270 NA
ATOM     13  N   LIG    1       -6.533   4.226  -0.971  0.00  0.00    -0.480 N 
ATOM     14  H   LIG    1       -5.971   4.007  -1.731  0.00  0.00    +0.440 HD
ENDBRANCH   3   5
BRANCH   1  22
ATOM     15  C   LIG    1        0.781   5.442   0.024  0.00  0.00    +0.270 A 
ATOM     16  N   LIG    1        1.387   4.273   0.012  0.00  0.00    -0.500 NA
ATOM     17  C   LIG    1        0.691   3.131   0.012  0.00  0.00    +0.490 A 
ATOM     18  N   LIG    1        1.062   1.855   0.002  0.00  0.00    -0.540 NA
ATOM     19  C   LIG    1       -0.013   1.076   0.008  0.00  0.00    +0.490 A 
ATOM     20  N   LIG    1       -1.094   1.816   0.017  0.00  0.00    -0.360 NA
ATOM     21  N   LIG    1       -0.676   3.153   0.025  0.00  0.00    -0.360 N 
ATOM     22  C   LIG    1       -1.343   4.344   0.039  0.00  0.00    +0.530 A 
ATOM     23  C   LIG    1       -0.610   5.515   0.038  0.00  0.00    -0.160 A 
BRANCH  15  24
ATOM     24  C   LIG    1        1.597   6.709   0.023  0.00  0.00    +0.130 C 
BRANCH  24  26
ATOM     25  C   LIG    1        3.915   7.642   0.006  0.00  0.00    +0.000 C 
ATOM     26  C   LIG    1        3.086   6.356   0.007  0.00  0.00    +0.030 C 
ENDBRANCH  24  26
ENDBRANCH  15  24
ENDBRANCH   1  22
TORSDOF 4
