REMARK  Name = ZINCrD00000l6le6.0
REMARK                            x       y       z     vdW  Elec       q    Type
REMARK                         _______ _______ _______ _____ _____    ______ ____
ROOT
ATOM      1  C   LIG    1        1.190   7.430   0.247  0.00  0.00    +0.380 C 
ENDROOT
BRANCH   1   4
ATOM      2  N   LIG    1        4.566   8.628  -0.257  0.00  0.00    -0.540 N 
ATOM      3  C   LIG    1        3.357   8.243  -0.707  0.00  0.00    +0.690 A 
ATOM      4  N   LIG    1        2.574   7.901   0.334  0.00  0.00    -0.530 N 
ATOM      5  C   LIG    1        3.303   8.077   1.508  0.00  0.00    +0.090 A 
ATOM      6  C   LIG    1        3.007   7.890   2.849  0.00  0.00    +0.030 A 
ATOM      7  C   LIG    1        3.964   8.158   3.809  0.00  0.00    +0.020 A 
ATOM      8  C   LIG    1        5.217   8.614   3.437  0.00  0.00    +0.020 A 
ATOM      9  C   LIG    1        5.524   8.795   2.102  0.00  0.00    +0.030 A 
ATOM     10  O   LIG    1        3.022   8.208  -1.876  0.00  0.00    -0.550 OA
ATOM     11  C   LIG    1        4.569   8.533   1.132  0.00  0.00    +0.100 A 
BRANCH   2  12
ATOM     12  C   LIG    1        5.688   9.073  -1.088  0.00  0.00    +0.310 C 
BRANCH  12  14
ATOM     13  C   LIG    1        6.780  11.052  -2.151  0.00  0.00    +0.030 C 
ATOM     14  C   LIG    1        5.609  10.588  -1.283  0.00  0.00    +0.000 C 
ENDBRANCH  12  14
ENDBRANCH   2  12
ENDBRANCH   1   4
BRANCH   1  15
ATOM     15  C   LIG    1        1.177   5.928   0.125  0.00  0.00    +0.490 C 
ATOM     16  N   LIG    1        0.005   5.270   0.031  0.00  0.00    -0.660 N 
ATOM     17  H   LIG    1       -0.826   5.766  -0.039  0.00  0.00    +0.410 HD
ATOM     18  O   LIG    1        2.221   5.312   0.112  0.00  0.00    -0.490 OA
BRANCH  16  19
ATOM     19  C   LIG    1       -0.014   3.875   0.034  0.00  0.00    +0.160 A 
ATOM     20  C   LIG    1        1.011   3.166   0.623  0.00  0.00    +0.020 A 
ATOM     21  C   LIG    1        0.999   1.775   0.630  0.00  0.00    +0.060 A 
ATOM     22  C   LIG    1       -0.021   1.076   0.059  0.00  0.00    +0.030 A 
ATOM     23  C   LIG    1       -1.083   1.759  -0.558  0.00  0.00    +0.140 A 
ATOM     24  N   LIG    1       -2.096   1.091  -1.119  0.00  0.00    -0.470 NA
ATOM     25  C   LIG    1       -3.093   1.722  -1.692  0.00  0.00    +0.290 A 
ATOM     26  C   LIG    1       -3.150   3.112  -1.739  0.00  0.00    -0.030 A 
ATOM     27  C   LIG    1       -2.149   3.855  -1.178  0.00  0.00    +0.070 A 
ATOM     28  C   LIG    1       -1.083   3.175  -0.565  0.00  0.00    -0.120 A 
ENDBRANCH  16  19
ENDBRANCH   1  15
TORSDOF 5
