REMARK  Name = ZINCqH0000037zYh.0
REMARK                            x       y       z     vdW  Elec       q    Type
REMARK                         _______ _______ _______ _____ _____    ______ ____
ROOT
ATOM      1  C   LIG    1       -2.179   6.014   1.688  0.00  0.00    +0.610 C 
ATOM      2  N   LIG    1       -2.262   5.625   0.401  0.00  0.00    -0.590 N 
ATOM      3  C   LIG    1       -2.071   6.602  -0.674  0.00  0.00    +0.310 C 
ATOM      4  O   LIG    1       -2.411   5.220   2.580  0.00  0.00    -0.510 OA
ENDROOT
BRANCH   1   7
ATOM      5  C   LIG    1       -1.622   7.087   4.554  0.00  0.00    +0.140 C 
ATOM      6  C   LIG    1       -1.564   7.867   3.266  0.00  0.00    -0.070 A 
ATOM      7  C   LIG    1       -1.807   7.398   2.015  0.00  0.00    -0.040 A 
ATOM      8  O   LIG    1       -1.650   8.393   1.117  0.00  0.00    -0.180 OA
ATOM      9  C   LIG    1       -1.311   9.544   1.729  0.00  0.00    +0.070 A 
ATOM     10  C   LIG    1       -1.044  10.826   1.266  0.00  0.00    +0.030 A 
ATOM     11  C   LIG    1       -0.709  11.822   2.157  0.00  0.00    +0.060 A 
ATOM     12  C   LIG    1       -0.633  11.560   3.518  0.00  0.00    -0.010 A 
ATOM     13  C   LIG    1       -0.891  10.307   3.997  0.00  0.00    +0.070 A 
ATOM     14  C   LIG    1       -1.233   9.284   3.110  0.00  0.00    -0.140 A 
ENDBRANCH   1   7
BRANCH   2  15
ATOM     15  C   LIG    1       -2.544   4.224   0.076  0.00  0.00    +0.350 C 
BRANCH  15  16
ATOM     16  C   LIG    1       -1.247   3.465  -0.042  0.00  0.00    +0.500 C 
ATOM     17  N   LIG    1       -1.261   2.150  -0.337  0.00  0.00    -0.670 N 
ATOM     18  H   LIG    1       -2.098   1.710  -0.550  0.00  0.00    +0.420 HD
ATOM     19  O   LIG    1       -0.192   4.038   0.129  0.00  0.00    -0.500 OA
BRANCH  17  20
ATOM     20  C   LIG    1       -0.067   1.421  -0.336  0.00  0.00    +0.210 A 
ATOM     21  C   LIG    1        0.105   0.367  -1.223  0.00  0.00    -0.040 A 
ATOM     22  C   LIG    1        1.284  -0.357  -1.216  0.00  0.00    +0.150 A 
ATOM     23  C   LIG    1        2.293  -0.030  -0.326  0.00  0.00    -0.060 A 
ATOM     24  C   LIG    1        2.123   1.020   0.560  0.00  0.00    +0.160 A 
ATOM     25  F   LIG    1        3.109   1.336   1.429  0.00  0.00    -0.120 F 
ATOM     26  F   LIG    1        1.452  -1.382  -2.080  0.00  0.00    -0.130 F 
ATOM     27  C   LIG    1        0.946   1.746   0.557  0.00  0.00    -0.020 A 
ENDBRANCH  17  20
ENDBRANCH  15  16
ENDBRANCH   2  15
TORSDOF 4
