REMARK  Name = ZINCrD000000AtsN.0
REMARK                            x       y       z     vdW  Elec       q    Type
REMARK                         _______ _______ _______ _____ _____    ______ ____
ROOT
ATOM      1  O   LIG    1       -1.737  -1.717  -4.461  0.00  0.00    -0.500 OA
ATOM      2  C   LIG    1       -0.736  -1.629  -5.139  0.00  0.00    +0.540 C 
ATOM      3  N   LIG    1       -0.689  -2.218  -6.351  0.00  0.00    -0.660 N 
ATOM      4  H   LIG    1        0.134  -2.206  -6.865  0.00  0.00    +0.420 HD
ENDROOT
BRANCH   3   5
ATOM      5  C   LIG    1       -1.828  -2.849  -6.868  0.00  0.00    +0.150 A 
ATOM      6  C   LIG    1       -2.087  -2.804  -8.231  0.00  0.00    +0.010 A 
ATOM      7  C   LIG    1       -3.211  -3.425  -8.745  0.00  0.00    +0.040 A 
ATOM      8  C   LIG    1       -4.078  -4.091  -7.896  0.00  0.00    +0.050 A 
ATOM      9  O   LIG    1       -5.191  -4.706  -8.394  0.00  0.00    -0.320 OA
ATOM     10  C   LIG    1       -5.196  -6.134  -8.335  0.00  0.00    +0.230 C 
ATOM     11  C   LIG    1       -5.676  -6.615  -6.974  0.00  0.00    -0.010 C 
ATOM     12  C   LIG    1       -4.729  -6.217  -5.853  0.00  0.00    +0.230 C 
ATOM     13  O   LIG    1       -4.686  -4.796  -5.707  0.00  0.00    -0.320 OA
ATOM     14  C   LIG    1       -3.822  -4.137  -6.533  0.00  0.00    +0.090 A 
ATOM     15  C   LIG    1       -2.696  -3.522  -6.016  0.00  0.00    +0.030 A 
ENDBRANCH   3   5
BRANCH   2  16
ATOM     16  C   LIG    1        0.456  -0.862  -4.628  0.00  0.00    +0.090 C 
BRANCH  16  17
ATOM     17  S   LIG    1        0.086  -0.195  -2.987  0.00  0.00    +0.100 S 
BRANCH  17  18
ATOM     18  C   LIG    1        1.604   0.629  -2.641  0.00  0.00    +0.130 A 
ATOM     19  N   LIG    1        2.657   0.686  -3.424  0.00  0.00    -0.290 NA
ATOM     20  N   LIG    1        3.586   1.369  -2.856  0.00  0.00    -0.280 NA
ATOM     21  C   LIG    1        3.184   1.789  -1.690  0.00  0.00    +0.230 A 
ATOM     22  N   LIG    1        1.909   1.329  -1.509  0.00  0.00    -0.430 N 
BRANCH  21  23
ATOM     23  C   LIG    1        3.977   2.626  -0.720  0.00  0.00    +0.040 C 
ATOM     24  C   LIG    1        5.309   3.200  -1.207  0.00  0.00    +0.070 C 
ATOM     25  C   LIG    1        5.295   2.047  -0.201  0.00  0.00    +0.050 C 
ENDBRANCH  21  23
BRANCH  22  26
ATOM     26  C   LIG    1        1.047   1.546  -0.345  0.00  0.00    +0.200 C 
ATOM     27  C   LIG    1       -0.358   2.097  -0.599  0.00  0.00    +0.060 C 
ATOM     28  C   LIG    1       -0.172   0.635  -0.188  0.00  0.00    +0.070 C 
ENDBRANCH  22  26
ENDBRANCH  17  18
ENDBRANCH  16  17
ENDBRANCH   2  16
TORSDOF 6
