REMARK  Name = ZINCnE000001UbbF.0
REMARK                            x       y       z     vdW  Elec       q    Type
REMARK                         _______ _______ _______ _____ _____    ______ ____
ROOT
ATOM      1  C   LIG    1        4.313   0.026  -1.931  0.00  0.00    +0.220 A 
ATOM      2  C   LIG    1        4.669  -0.173  -3.263  0.00  0.00    +0.030 A 
ATOM      3  C   LIG    1        5.853  -0.835  -3.537  0.00  0.00    +0.000 A 
ATOM      4  C   LIG    1        6.642  -1.276  -2.482  0.00  0.00    +0.200 A 
ATOM      5  N   LIG    1        6.273  -1.070  -1.229  0.00  0.00    -0.490 NA
ATOM      6  C   LIG    1        5.154  -0.438  -0.930  0.00  0.00    +0.120 A 
ENDROOT
BRANCH   1   7
ATOM      7  N   LIG    1        3.125   0.692  -1.606  0.00  0.00    -1.080 NA
BRANCH   7   9
ATOM      8  O   LIG    1        3.678   1.814   0.521  0.00  0.00    -1.020 OA
ATOM      9  S   LIG    1        2.713   0.922  -0.019  0.00  0.00    +2.600 S 
ATOM     10  O   LIG    1        2.457  -0.367   0.521  0.00  0.00    -1.020 OA
BRANCH   9  11
ATOM     11  C   LIG    1        1.175   1.783   0.000  0.00  0.00    -0.610 A 
ATOM     12  C   LIG    1       -0.013   1.076   0.008  0.00  0.00    +0.140 A 
ATOM     13  C   LIG    1       -1.219   1.750   0.017  0.00  0.00    +0.000 A 
ATOM     14  C   LIG    1       -1.237   3.134   0.030  0.00  0.00    +0.000 A 
ATOM     15  C   LIG    1       -0.048   3.841   0.022  0.00  0.00    +0.000 A 
ATOM     16 CL   LIG    1       -2.752   3.982   0.049  0.00  0.00    -0.070 Cl
ATOM     17  C   LIG    1        1.157   3.165   0.008  0.00  0.00    +0.140 A 
ENDBRANCH   9  11
ENDBRANCH   7   9
ENDBRANCH   1   7
BRANCH   4  18
ATOM     18  O   LIG    1        7.805  -1.927  -2.741  0.00  0.00    -0.300 OA
BRANCH  18  19
ATOM     19  C   LIG    1        8.573  -2.356  -1.615  0.00  0.00    +0.230 C 
BRANCH  19  20
ATOM     20  C   LIG    1        9.839  -3.064  -2.101  0.00  0.00    +0.460 C 
ATOM     21  F   LIG    1        9.484  -4.175  -2.874  0.00  0.00    -0.180 F 
ATOM     22  F   LIG    1       10.590  -3.485  -0.998  0.00  0.00    -0.180 F 
ATOM     23  F   LIG    1       10.599  -2.181  -2.874  0.00  0.00    -0.180 F 
ENDBRANCH  19  20
ENDBRANCH  18  19
ENDBRANCH   4  18
TORSDOF 6
