REMARK  Name = ZINCrD000000CYWk.0
REMARK                            x       y       z     vdW  Elec       q    Type
REMARK                         _______ _______ _______ _____ _____    ______ ____
ROOT
ATOM      1  N   LIG    1       -2.852   1.610   0.036  0.00  0.00    -0.550 NA
ATOM      2  C   LIG    1       -2.207   1.109  -1.184  0.00  0.00    +0.160 C 
ATOM      3  C   LIG    1       -0.756   1.594  -1.230  0.00  0.00    +0.040 C 
ATOM      4  C   LIG    1       -0.013   1.086   0.008  0.00  0.00    +0.030 C 
ATOM      5  C   LIG    1       -0.732   1.581   1.266  0.00  0.00    +0.090 C 
ATOM      6  C   LIG    1       -2.185   1.096   1.239  0.00  0.00    +0.210 C 
ENDROOT
BRANCH   5   7
ATOM      7  C   LIG    1       -0.040   1.036   2.489  0.00  0.00    +0.100 A 
ATOM      8  N   LIG    1        0.092  -0.210   2.746  0.00  0.00    -0.460 NA
ATOM      9  C   LIG    1        0.738  -0.554   3.876  0.00  0.00    +0.080 A 
ATOM     10  C   LIG    1        1.024  -1.833   4.396  0.00  0.00    +0.070 A 
ATOM     11  C   LIG    1        1.694  -1.964   5.574  0.00  0.00    +0.030 A 
ATOM     12  C   LIG    1        2.106  -0.847   6.285  0.00  0.00    +0.040 A 
ATOM     13  C   LIG    1        1.840   0.415   5.802  0.00  0.00    +0.060 A 
ATOM     14  C   LIG    1        1.157   0.569   4.598  0.00  0.00    -0.180 A 
ATOM     15  S   LIG    1        0.660   2.004   3.707  0.00  0.00    +0.110 S 
ENDBRANCH   5   7
BRANCH   1  16
ATOM     16  C   LIG    1       -4.284   1.280   0.048  0.00  0.00    +0.450 C 
BRANCH  16  27
ATOM     17  O   LIG    1       -5.339   3.859   0.836  0.00  0.00    -0.460 OA
ATOM     18  C   LIG    1       -5.532   3.396  -0.268  0.00  0.00    +0.550 C 
ATOM     19  C   LIG    1       -6.392   3.980  -1.350  0.00  0.00    -0.010 C 
ATOM     20  C   LIG    1       -6.601   5.459  -1.326  0.00  0.00    +0.110 C 
ATOM     21  C   LIG    1       -5.524   6.230  -2.021  0.00  0.00    -0.030 C 
ATOM     22  C   LIG    1       -4.623   5.678  -2.763  0.00  0.00    -0.040 C 
ATOM     23  C   LIG    1       -4.493   4.212  -2.998  0.00  0.00    +0.090 C 
ATOM     24  C   LIG    1       -5.755   3.425  -2.635  0.00  0.00    +0.040 C 
ATOM     25  C   LIG    1       -5.238   2.085  -2.087  0.00  0.00    +0.530 C 
ATOM     26  O   LIG    1       -5.064   1.067  -2.723  0.00  0.00    -0.470 OA
ATOM     27  N   LIG    1       -5.015   2.252  -0.769  0.00  0.00    -0.580 N 
ENDBRANCH  16  27
ENDBRANCH   1  16
TORSDOF 3
