REMARK  Name = ZINCrH000004uH0U.0
REMARK                            x       y       z     vdW  Elec       q    Type
REMARK                         _______ _______ _______ _____ _____    ______ ____
ROOT
ATOM      1  C   LIG    1       -1.587   5.083   2.864  0.00  0.00    +0.180 A 
ATOM      2  C   LIG    1       -1.102   6.037   1.978  0.00  0.00    +0.010 A 
ATOM      3  C   LIG    1       -1.182   7.380   2.295  0.00  0.00    +0.050 A 
ATOM      4  C   LIG    1       -1.746   7.778   3.491  0.00  0.00    -0.030 A 
ATOM      5  C   LIG    1       -2.233   6.829   4.381  0.00  0.00    +0.160 A 
ATOM      6  C   LIG    1       -2.159   5.480   4.064  0.00  0.00    -0.010 A 
ENDROOT
BRANCH   1   9
ATOM      7  O   LIG    1        0.397   4.028   1.437  0.00  0.00    -0.570 OA
ATOM      8  C   LIG    1       -0.445   3.256   1.853  0.00  0.00    +0.710 C 
ATOM      9  N   LIG    1       -1.505   3.723   2.543  0.00  0.00    -0.680 N 
ATOM     10  H   LIG    1       -2.211   3.117   2.817  0.00  0.00    +0.410 HD
ATOM     11  N   LIG    1       -0.319   1.934   1.625  0.00  0.00    -0.740 N 
ATOM     12  H   LIG    1       -0.991   1.318   1.957  0.00  0.00    +0.400 HD
BRANCH  11  13
ATOM     13  C   LIG    1        0.833   1.427   0.875  0.00  0.00    +0.340 C 
BRANCH  13  14
ATOM     14  C   LIG    1        0.736  -0.073   0.760  0.00  0.00    -0.070 A 
ATOM     15  C   LIG    1        1.305  -0.896   1.719  0.00  0.00    -0.010 A 
ATOM     16  C   LIG    1        1.192  -2.267   1.582  0.00  0.00    +0.260 A 
ATOM     17  N   LIG    1        0.562  -2.792   0.550  0.00  0.00    -0.480 NA
ATOM     18  C   LIG    1        0.013  -2.040  -0.383  0.00  0.00    +0.260 A 
ATOM     19  C   LIG    1        0.081  -0.661  -0.311  0.00  0.00    -0.010 A 
ENDBRANCH  13  14
ENDBRANCH  11  13
ENDBRANCH   1   9
BRANCH   5  20
ATOM     20  N   LIG    1       -2.804   7.232   5.593  0.00  0.00    -0.670 N 
ATOM     21  H   LIG    1       -3.318   8.054   5.636  0.00  0.00    +0.410 HD
ATOM     22  C   LIG    1       -2.639   6.481   6.699  0.00  0.00    +0.560 C 
ATOM     23  O   LIG    1       -2.067   5.410   6.627  0.00  0.00    -0.510 OA
BRANCH  22  24
ATOM     24  C   LIG    1       -3.153   6.958   8.000  0.00  0.00    -0.110 A 
ATOM     25  C   LIG    1       -3.805   8.189   8.087  0.00  0.00    +0.030 A 
ATOM     26  C   LIG    1       -4.288   8.627   9.303  0.00  0.00    +0.050 A 
ATOM     27  C   LIG    1       -4.118   7.855  10.438  0.00  0.00    +0.020 A 
ATOM     28  C   LIG    1       -3.466   6.634  10.361  0.00  0.00    +0.100 A 
ATOM     29  F   LIG    1       -3.304   5.885  11.473  0.00  0.00    -0.130 F 
ATOM     30  C   LIG    1       -2.983   6.182   9.148  0.00  0.00    +0.060 A 
ENDBRANCH  22  24
ENDBRANCH   5  20
TORSDOF 5
