REMARK  Name = ZINCbw0000000HlA.0
REMARK                            x       y       z     vdW  Elec       q    Type
REMARK                         _______ _______ _______ _____ _____    ______ ____
ROOT
ATOM      1  C   LIG    1        4.904   1.752  -0.035  0.00  0.00    +0.130 C 
ATOM      2  C   LIG    1        3.476   2.233  -0.019  0.00  0.00    -0.070 A 
ATOM      3  C   LIG    1        3.158   3.513  -0.010  0.00  0.00    -0.020 A 
ATOM      4  S   LIG    1        1.419   3.742   0.008  0.00  0.00    +0.190 S 
ATOM      5  C   LIG    1        1.122   2.010   0.002  0.00  0.00    +0.100 A 
ATOM      6  N   LIG    1       -0.016   1.310   0.009  0.00  0.00    -0.470 NA
ATOM      7  C   LIG    1        0.002  -0.004   0.002  0.00  0.00    +0.380 A 
ATOM      8  N   LIG    1        1.132  -0.691  -0.012  0.00  0.00    -0.510 NA
ATOM      9  C   LIG    1        2.302  -0.085  -0.020  0.00  0.00    +0.420 A 
ATOM     10 CL   LIG    1       -1.505  -0.865   0.012  0.00  0.00    +0.040 Cl
ATOM     11  C   LIG    1        2.344   1.324  -0.013  0.00  0.00    -0.180 A 
ENDROOT
TORSDOF 0
