REMARK  Name = ZINCqH0000038uSQ.0
REMARK                            x       y       z     vdW  Elec       q    Type
REMARK                         _______ _______ _______ _____ _____    ______ ____
ROOT
ATOM      1  C   LIG    1       -0.067   5.801   1.448  0.00  0.00    +0.530 C 
ATOM      2  N   LIG    1       -0.047   7.125   1.699  0.00  0.00    -0.600 N 
ATOM      3  O   LIG    1       -0.161   5.011   2.363  0.00  0.00    -0.500 OA
ENDROOT
BRANCH   2   4
ATOM      4  C   LIG    1       -0.140   7.610   3.078  0.00  0.00    +0.320 C 
ATOM      5  C   LIG    1       -1.455   7.134   3.692  0.00  0.00    +0.030 C 
ATOM      6  C   LIG    1       -1.439   7.467   5.189  0.00  0.00    +0.040 C 
ATOM      7  C   LIG    1       -0.419   6.560   5.873  0.00  0.00    +0.080 C 
ATOM      8  C   LIG    1        0.901   6.612   5.153  0.00  0.00    -0.100 A 
ATOM      9  C   LIG    1        2.030   6.153   5.825  0.00  0.00    +0.050 A 
ATOM     10  C   LIG    1        3.253   6.187   5.177  0.00  0.00    -0.040 A 
ATOM     11  C   LIG    1        3.311   6.676   3.886  0.00  0.00    +0.250 A 
ATOM     12  N   LIG    1        2.223   7.103   3.283  0.00  0.00    -0.480 NA
ATOM     13  C   LIG    1        1.033   7.089   3.869  0.00  0.00    +0.120 A 
ENDBRANCH   2   4
BRANCH   1  14
ATOM     14  C   LIG    1        0.029   5.302   0.029  0.00  0.00    +0.120 C 
BRANCH  14  21
ATOM     15  C   LIG    1       -2.530   3.893   0.046  0.00  0.00    +0.100 C 
ATOM     16  C   LIG    1       -1.231   3.129   0.030  0.00  0.00    -0.020 A 
ATOM     17  C   LIG    1       -1.223   1.743   0.017  0.00  0.00    -0.030 A 
ATOM     18  C   LIG    1       -0.013   1.076   0.008  0.00  0.00    +0.260 A 
ATOM     19  N   LIG    1        1.125   1.743   0.001  0.00  0.00    -0.490 NA
ATOM     20  C   LIG    1        1.155   3.062   0.007  0.00  0.00    +0.270 A 
ATOM     21  C   LIG    1       -0.015   3.796   0.022  0.00  0.00    -0.120 A 
ENDBRANCH  14  21
ENDBRANCH   1  14
BRANCH   2  22
ATOM     22  C   LIG    1        0.067   8.079   0.593  0.00  0.00    +0.330 C 
BRANCH  22  23
ATOM     23  C   LIG    1       -1.331   8.454   0.096  0.00  0.00    +0.430 C 
ATOM     24  F   LIG    1       -1.992   7.303  -0.347  0.00  0.00    -0.180 F 
ATOM     25  F   LIG    1       -1.221   9.365  -0.960  0.00  0.00    -0.180 F 
ATOM     26  F   LIG    1       -2.056   9.036   1.141  0.00  0.00    -0.180 F 
ENDBRANCH  22  23
ENDBRANCH   2  22
TORSDOF 5
