REMARK  Name = ZINCrD000000C3xa.0
REMARK                            x       y       z     vdW  Elec       q    Type
REMARK                         _______ _______ _______ _____ _____    ______ ____
ROOT
ATOM      1  O   LIG    1       -1.256  -2.331  -0.717  0.00  0.00    -0.550 OA
ATOM      2  C   LIG    1       -0.748  -1.691  -1.617  0.00  0.00    +0.710 C 
ATOM      3  N   LIG    1       -0.249  -0.462  -1.373  0.00  0.00    -0.730 N 
ATOM      4  H   LIG    1        0.156   0.048  -2.091  0.00  0.00    +0.400 HD
ATOM      5  N   LIG    1       -0.683  -2.209  -2.859  0.00  0.00    -0.680 N 
ATOM      6  H   LIG    1       -0.349  -1.670  -3.593  0.00  0.00    +0.410 HD
ENDROOT
BRANCH   5   7
ATOM      7  C   LIG    1       -1.099  -3.525  -3.091  0.00  0.00    +0.160 A 
ATOM      8  C   LIG    1       -0.919  -4.494  -2.113  0.00  0.00    +0.020 A 
ATOM      9  C   LIG    1       -1.336  -5.790  -2.344  0.00  0.00    +0.030 A 
ATOM     10  C   LIG    1       -1.922  -6.130  -3.552  0.00  0.00    -0.110 A 
ATOM     11  C   LIG    1       -2.450  -7.461  -4.044  0.00  0.00    +0.070 C 
ATOM     12  C   LIG    1       -2.562  -7.310  -5.575  0.00  0.00    +0.030 C 
ATOM     13  C   LIG    1       -2.753  -5.788  -5.745  0.00  0.00    +0.070 C 
ATOM     14  C   LIG    1       -2.097  -5.168  -4.530  0.00  0.00    -0.080 A 
ATOM     15  C   LIG    1       -1.686  -3.868  -4.301  0.00  0.00    -0.010 A 
ENDBRANCH   5   7
BRANCH   3  16
ATOM     16  C   LIG    1       -0.320   0.101  -0.022  0.00  0.00    +0.270 C 
ATOM     17  C   LIG    1       -0.293   1.646  -0.079  0.00  0.00    +0.080 C 
ATOM     18  C   LIG    1        1.212   1.942   0.100  0.00  0.00    +0.270 C 
ATOM     19  N   LIG    1        1.755   0.787   0.825  0.00  0.00    -0.580 N 
ATOM     20  C   LIG    1        0.918  -0.263   0.768  0.00  0.00    +0.510 C 
ATOM     21  O   LIG    1        1.124  -1.344   1.277  0.00  0.00    -0.490 OA
BRANCH  19  22
ATOM     22  C   LIG    1        2.988   0.781   1.492  0.00  0.00    +0.070 A 
ATOM     23  C   LIG    1        3.061   1.161   2.827  0.00  0.00    +0.140 A 
ATOM     24  C   LIG    1        4.279   1.148   3.483  0.00  0.00    -0.010 A 
ATOM     25  C   LIG    1        5.425   0.768   2.809  0.00  0.00    +0.100 A 
ATOM     26  C   LIG    1        5.357   0.394   1.480  0.00  0.00    -0.010 A 
ATOM     27  F   LIG    1        1.942   1.538   3.484  0.00  0.00    -0.120 F 
ATOM     28  C   LIG    1        4.143   0.400   0.818  0.00  0.00    +0.140 A 
ATOM     29  F   LIG    1        4.078   0.034  -0.481  0.00  0.00    -0.120 F 
ENDBRANCH  19  22
ENDBRANCH   3  16
TORSDOF 3
