REMARK  Name = ZINCrg00000fSkLB.0
REMARK                            x       y       z     vdW  Elec       q    Type
REMARK                         _______ _______ _______ _____ _____    ______ ____
ROOT
ATOM      1  C   LIG    1       -1.234   5.111  -2.445  0.00  0.00    +0.090 C 
ATOM      2  N   LIG    1       -0.612   5.809  -1.545  0.00  0.00    -0.160 NA
ATOM      3  N   LIG    1       -0.553   7.204  -1.626  0.00  0.00    -0.450 N 
ATOM      4  C   LIG    1       -1.433   7.881  -2.389  0.00  0.00    +0.500 C 
ATOM      5  C   LIG    1       -2.484   7.129  -3.165  0.00  0.00    +0.100 C 
ATOM      6  O   LIG    1       -1.380   9.091  -2.451  0.00  0.00    -0.500 OA
ATOM      7  C   LIG    1       -1.909   5.780  -3.613  0.00  0.00    +0.120 C 
ENDROOT
BRANCH   3   8
ATOM      8  C   LIG    1        0.473   7.934  -0.876  0.00  0.00    +0.310 C 
ATOM      9  C   LIG    1        1.870   7.475  -1.330  0.00  0.00    +0.070 C 
ATOM     10  C   LIG    1        2.877   8.025  -0.288  0.00  0.00    -0.300 C 
ATOM     11  S   LIG    1        2.021   7.706   1.301  0.00  0.00    +2.390 S 
ATOM     12  O   LIG    1        2.154   8.843   2.144  0.00  0.00    -0.930 OA
ATOM     13  O   LIG    1        2.388   6.421   1.784  0.00  0.00    -0.920 OA
ATOM     14  C   LIG    1        0.321   7.640   0.630  0.00  0.00    -0.310 C 
ENDBRANCH   3   8
BRANCH   1  15
ATOM     15  C   LIG    1       -1.276   3.651  -2.325  0.00  0.00    +0.530 C 
ATOM     16  O   LIG    1       -1.857   2.989  -3.163  0.00  0.00    -0.480 OA
BRANCH  15  17
ATOM     17  O   LIG    1       -0.670   3.041  -1.286  0.00  0.00    -0.330 OA
BRANCH  17  18
ATOM     18  C   LIG    1       -0.753   1.593  -1.232  0.00  0.00    +0.260 C 
BRANCH  18  19
ATOM     19  C   LIG    1       -0.013   1.086   0.008  0.00  0.00    +0.230 C 
BRANCH  19  20
ATOM     20  O   LIG    1       -0.682   1.547   1.184  0.00  0.00    -0.310 OA
BRANCH  20  27
ATOM     21  C   LIG    1       -1.982   2.458   3.521  0.00  0.00    +0.100 C 
ATOM     22  C   LIG    1       -0.744   1.599   3.562  0.00  0.00    -0.110 A 
ATOM     23  C   LIG    1       -0.204   1.222   4.776  0.00  0.00    +0.050 A 
ATOM     24  C   LIG    1        0.936   0.440   4.814  0.00  0.00    -0.030 A 
ATOM     25  C   LIG    1        1.534   0.028   3.638  0.00  0.00    +0.030 A 
ATOM     26  C   LIG    1        0.994   0.397   2.421  0.00  0.00    -0.080 A 
ATOM     27  C   LIG    1       -0.149   1.182   2.380  0.00  0.00    +0.130 A 
ENDBRANCH  20  27
ENDBRANCH  19  20
ENDBRANCH  18  19
ENDBRANCH  17  18
ENDBRANCH  15  17
ENDBRANCH   1  15
TORSDOF 7
