REMARK  Name = ZINCpe000000YC1R.0
REMARK                            x       y       z     vdW  Elec       q    Type
REMARK                         _______ _______ _______ _____ _____    ______ ____
ROOT
ATOM      1  N   LIG    1       -1.005  -2.212  -0.000  0.00  0.00    -0.710 N 
ATOM      2  H   LIG    1       -0.990  -2.697  -0.840  0.00  0.00    +0.400 HD
ATOM      3  C   LIG    1       -0.762  -2.859   1.157  0.00  0.00    +0.580 C 
ATOM      4  O   LIG    1       -0.782  -2.250   2.209  0.00  0.00    -0.530 OA
ENDROOT
BRANCH   3   5
ATOM      5  C   LIG    1       -0.473  -4.306   1.146  0.00  0.00    -0.220 A 
ATOM      6  C   LIG    1       -0.219  -4.989   2.345  0.00  0.00    +0.160 A 
ATOM      7  C   LIG    1        0.044  -6.331   2.288  0.00  0.00    -0.040 A 
ATOM      8  C   LIG    1        0.052  -6.975   1.052  0.00  0.00    +0.340 A 
ATOM      9  N   LIG    1       -0.192  -6.305  -0.067  0.00  0.00    -0.520 NA
ATOM     10  C   LIG    1       -0.454  -5.015  -0.056  0.00  0.00    +0.330 A 
BRANCH   8  11
ATOM     11  N   LIG    1        0.318  -8.332   0.991  0.00  0.00    -0.480 N 
ATOM     12  C   LIG    1        1.613  -8.644   1.614  0.00  0.00    +0.180 C 
ATOM     13  C   LIG    1        1.839 -10.158   1.577  0.00  0.00    +0.240 C 
ATOM     14  O   LIG    1        1.767 -10.613   0.224  0.00  0.00    -0.380 OA
ATOM     15  C   LIG    1        0.519 -10.327  -0.414  0.00  0.00    +0.230 C 
ATOM     16  C   LIG    1        0.279  -8.815  -0.398  0.00  0.00    +0.190 C 
ENDBRANCH   8  11
ENDBRANCH   3   5
BRANCH   1  17
ATOM     17  C   LIG    1       -1.293  -0.775   0.010  0.00  0.00    +0.300 C 
BRANCH  17  18
ATOM     18  C   LIG    1       -2.099  -0.415  -1.211  0.00  0.00    -0.100 A 
ATOM     19  C   LIG    1       -1.799  -0.990  -2.432  0.00  0.00    +0.010 A 
ATOM     20  C   LIG    1       -2.542  -0.662  -3.551  0.00  0.00    +0.020 A 
ATOM     21  C   LIG    1       -3.579   0.245  -3.451  0.00  0.00    +0.020 A 
ATOM     22  C   LIG    1       -3.877   0.823  -2.231  0.00  0.00    +0.020 A 
ATOM     23  C   LIG    1       -3.136   0.493  -1.111  0.00  0.00    +0.030 A 
ENDBRANCH  17  18
BRANCH  17  27
ATOM     24  N   LIG    1       -0.016   1.344   0.009  0.00  0.00    -0.850 N 
ATOM     25  H   LIG    1       -0.863   1.817   0.016  0.00  0.00    +0.400 HD
ATOM     26  H   LIG    1        0.817   1.840   0.004  0.00  0.00    +0.410 HD
ATOM     27  C   LIG    1        0.002  -0.004   0.002  0.00  0.00    +0.510 C 
ATOM     28  O   LIG    1        1.060  -0.596  -0.011  0.00  0.00    -0.530 OA
ENDBRANCH  17  27
ENDBRANCH   1  17
TORSDOF 5
