REMARK  Name = ZINC9p0000001xmb.0
REMARK                            x       y       z     vdW  Elec       q    Type
REMARK                         _______ _______ _______ _____ _____    ______ ____
ROOT
ATOM      1  N   LIG    1        1.521   1.862  -0.086  0.00  0.00    -0.480 N 
ATOM      2  H   LIG    1        0.534   1.655  -0.124  0.00  0.00    +0.420 HD
ATOM      3  H   LIG    1        1.663   2.739   0.392  0.00  0.00    +0.430 HD
ENDROOT
BRANCH   1   4
ATOM      4  C   LIG    1        2.056   1.954  -1.451  0.00  0.00    +0.090 C 
ATOM      5  C   LIG    1        1.103   1.642  -2.606  0.00  0.00    +0.100 C 
ATOM      6  C   LIG    1        1.534   3.086  -2.338  0.00  0.00    +0.100 C 
ENDBRANCH   1   4
BRANCH   1   7
ATOM      7  C   LIG    1        2.217   0.791   0.641  0.00  0.00    +0.170 C 
BRANCH   7   9
ATOM      8  C   LIG    1        0.650  -0.963  -0.203  0.00  0.00    +0.030 C 
ATOM      9  C   LIG    1        2.112  -0.514  -0.150  0.00  0.00    +0.050 C 
ENDBRANCH   7   9
BRANCH   7  10
ATOM     10  C   LIG    1        3.690   1.166   0.814  0.00  0.00    +0.050 C 
ATOM     11  C   LIG    1        3.800   2.401   1.710  0.00  0.00    +0.030 C 
ENDBRANCH   7  10
ENDBRANCH   1   7
TORSDOF 4
