REMARK  Name = ZINCrD00000hQ68W.0
REMARK                            x       y       z     vdW  Elec       q    Type
REMARK                         _______ _______ _______ _____ _____    ______ ____
ROOT
ATOM      1  C   LIG    1       -0.019   1.420   0.196  0.00  0.00    +0.270 C 
ATOM      2  C   LIG    1        0.290   2.370   1.372  0.00  0.00    +0.020 C 
ATOM      3  C   LIG    1        0.141   1.478   2.630  0.00  0.00    +0.020 C 
ATOM      4  C   LIG    1       -1.066   0.577   2.269  0.00  0.00    +0.020 C 
ATOM      5  C   LIG    1       -0.881   0.280   0.767  0.00  0.00    +0.020 C 
ENDROOT
BRANCH   1   8
ATOM      6  N   LIG    1       -1.179   2.550  -3.105  0.00  0.00    -0.630 N 
ATOM      7  C   LIG    1       -0.499   1.891  -2.146  0.00  0.00    +0.710 C 
ATOM      8  N   LIG    1       -0.758   2.136  -0.846  0.00  0.00    -0.740 N 
ATOM      9  H   LIG    1       -1.434   2.787  -0.601  0.00  0.00    +0.390 HD
ATOM     10  O   LIG    1        0.349   1.075  -2.453  0.00  0.00    -0.570 OA
ATOM     11  C   LIG    1       -2.200   3.533  -2.735  0.00  0.00    +0.270 C 
BRANCH   6  12
ATOM     12  C   LIG    1       -0.896   2.283  -4.518  0.00  0.00    +0.410 C 
BRANCH  12  16
ATOM     13  C   LIG    1       -4.662  -0.315  -6.560  0.00  0.00    +0.370 C 
ATOM     14  N   LIG    1       -3.410   0.042  -5.887  0.00  0.00    -0.290 N 
ATOM     15  C   LIG    1       -2.974   1.299  -5.640  0.00  0.00    +0.150 A 
ATOM     16  C   LIG    1       -1.786   1.168  -5.006  0.00  0.00    -0.040 A 
ATOM     17  N   LIG    1       -1.553  -0.145  -4.902  0.00  0.00    -0.240 NA
ATOM     18  N   LIG    1       -2.537  -0.785  -5.429  0.00  0.00    -0.080 NA
ENDBRANCH  12  16
ENDBRANCH   6  12
ENDBRANCH   1   8
BRANCH   5  19
ATOM     19  C   LIG    1       -2.221   0.252   0.077  0.00  0.00    -0.050 A 
ATOM     20  C   LIG    1       -3.117   1.288   0.265  0.00  0.00    +0.040 A 
ATOM     21  C   LIG    1       -4.344   1.265  -0.372  0.00  0.00    +0.010 A 
ATOM     22  C   LIG    1       -4.680   0.200  -1.186  0.00  0.00    +0.050 A 
ATOM     23  C   LIG    1       -3.786  -0.839  -1.369  0.00  0.00    -0.170 A 
ATOM     24  C   LIG    1       -2.557  -0.813  -0.737  0.00  0.00    +0.070 A 
BRANCH  23  25
ATOM     25  C   LIG    1       -4.152  -2.001  -2.257  0.00  0.00    +0.510 C 
ATOM     26  F   LIG    1       -2.993  -2.529  -2.836  0.00  0.00    -0.160 F 
ATOM     27  F   LIG    1       -5.019  -1.562  -3.265  0.00  0.00    -0.180 F 
ATOM     28  F   LIG    1       -4.785  -2.989  -1.495  0.00  0.00    -0.180 F 
ENDBRANCH  23  25
ENDBRANCH   5  19
TORSDOF 5
