REMARK  Name = ZINCAx0000000cHY.0
REMARK                            x       y       z     vdW  Elec       q    Type
REMARK                         _______ _______ _______ _____ _____    ______ ____
ROOT
ATOM      1  N   LIG    1       -0.016   1.354   0.009  0.00  0.00    -0.510 N 
ATOM      2  C   LIG    1        1.137   2.051   0.002  0.00  0.00    +0.570 A 
ATOM      3  C   LIG    1        2.373   1.331  -0.014  0.00  0.00    -0.230 A 
ATOM      4  C   LIG    1        2.316  -0.056  -0.021  0.00  0.00    +0.070 A 
ATOM      5  S   LIG    1        3.945  -0.713  -0.039  0.00  0.00    +0.200 S 
ATOM      6  C   LIG    1        4.670   0.886  -0.039  0.00  0.00    -0.200 A 
ATOM      7  C   LIG    1        6.166   1.149  -0.053  0.00  0.00    +0.120 C 
ATOM      8  C   LIG    1        6.406   2.603  -0.466  0.00  0.00    -0.010 C 
ATOM      9  C   LIG    1        7.878   2.961  -0.248  0.00  0.00    +0.030 C 
ATOM     10  C   LIG    1        5.522   3.516   0.389  0.00  0.00    +0.020 C 
ATOM     11  C   LIG    1        4.061   3.329  -0.024  0.00  0.00    +0.110 C 
ATOM     12  N   LIG    1        1.115  -0.675  -0.012  0.00  0.00    -0.470 NA
ATOM     13  C   LIG    1        3.737   1.841  -0.026  0.00  0.00    -0.030 A 
ATOM     14  O   LIG    1        1.127   3.269   0.009  0.00  0.00    -0.520 OA
ATOM     15  C   LIG    1        0.002  -0.004   0.002  0.00  0.00    +0.410 A 
ENDROOT
BRANCH   1  16
ATOM     16  C   LIG    1       -1.297   2.065   0.019  0.00  0.00    +0.330 C 
BRANCH  16  19
ATOM     17  N   LIG    1       -2.887   2.943   1.699  0.00  0.00    -0.730 N 
ATOM     18  H   LIG    1       -3.441   3.253   0.966  0.00  0.00    +0.400 HD
ATOM     19  C   LIG    1       -1.730   2.301   1.444  0.00  0.00    +0.500 C 
ATOM     20  O   LIG    1       -1.036   1.913   2.360  0.00  0.00    -0.520 OA
BRANCH  17  21
ATOM     21  C   LIG    1       -3.307   3.172   3.083  0.00  0.00    +0.260 C 
BRANCH  21  22
ATOM     22  C   LIG    1       -4.645   3.915   3.094  0.00  0.00    +0.080 C 
BRANCH  22  26
ATOM     23  C   LIG    1       -5.872   4.585   7.132  0.00  0.00    +0.130 A 
ATOM     24  C   LIG    1       -5.089   5.526   6.478  0.00  0.00    -0.020 A 
ATOM     25  C   LIG    1       -4.694   5.307   5.173  0.00  0.00    +0.060 A 
ATOM     26  C   LIG    1       -5.077   4.151   4.518  0.00  0.00    -0.120 A 
ATOM     27  C   LIG    1       -5.862   3.215   5.165  0.00  0.00    +0.060 A 
ATOM     28  C   LIG    1       -6.255   3.426   6.473  0.00  0.00    -0.080 A 
BRANCH  23  30
ATOM     29  C   LIG    1       -7.067   3.787   9.026  0.00  0.00    +0.250 C 
ATOM     30  O   LIG    1       -6.262   4.798   8.416  0.00  0.00    -0.320 OA
ENDBRANCH  23  30
ENDBRANCH  22  26
ENDBRANCH  21  22
ENDBRANCH  17  21
ENDBRANCH  16  19
ENDBRANCH   1  16
BRANCH  15  31
ATOM     31  C   LIG    1       -1.305  -0.754   0.010  0.00  0.00    +0.280 C 
BRANCH  31  32
ATOM     32  N   LIG    1       -1.041  -2.199  -0.000  0.00  0.00    -0.510 NA
ATOM     33  C   LIG    1       -0.416  -2.611  -1.266  0.00  0.00    +0.160 C 
ATOM     34  C   LIG    1       -0.104  -4.109  -1.210  0.00  0.00    +0.230 C 
ATOM     35  O   LIG    1       -1.308  -4.832  -0.940  0.00  0.00    -0.390 OA
ATOM     36  C   LIG    1       -1.943  -4.456   0.285  0.00  0.00    +0.230 C 
ATOM     37  C   LIG    1       -2.273  -2.962   0.245  0.00  0.00    +0.160 C 
ENDBRANCH  31  32
ENDBRANCH  15  31
TORSDOF 8
