REMARK  Name = ZINCqH0000002W3P.0
REMARK                            x       y       z     vdW  Elec       q    Type
REMARK                         _______ _______ _______ _____ _____    ______ ____
ROOT
ATOM      1  S   LIG    1       -1.448  -1.075   0.644  0.00  0.00    +0.080 S 
ENDROOT
BRANCH   1   2
ATOM      2  C   LIG    1       -0.026  -0.037   0.581  0.00  0.00    +0.140 A 
ATOM      3  N   LIG    1       -0.011   1.253   0.336  0.00  0.00    -0.290 NA
ATOM      4  N   LIG    1        1.197   1.690   0.367  0.00  0.00    -0.280 NA
ATOM      5  C   LIG    1        2.019   0.714   0.631  0.00  0.00    +0.190 A 
ATOM      6  C   LIG    1        3.517   0.816   0.752  0.00  0.00    +0.200 C 
ATOM      7  N   LIG    1        1.270  -0.421   0.776  0.00  0.00    -0.450 N 
BRANCH   7   8
ATOM      8  C   LIG    1        1.756  -1.769   1.080  0.00  0.00    +0.370 C 
BRANCH   8   9
ATOM      9  C   LIG    1        2.054  -2.497  -0.206  0.00  0.00    -0.120 A 
ATOM     10  C   LIG    1        1.069  -3.247  -0.820  0.00  0.00    +0.040 A 
ATOM     11  C   LIG    1        1.341  -3.911  -2.002  0.00  0.00    +0.010 A 
ATOM     12  C   LIG    1        2.602  -3.833  -2.564  0.00  0.00    +0.020 A 
ATOM     13  C   LIG    1        3.589  -3.087  -1.946  0.00  0.00    +0.010 A 
ATOM     14  C   LIG    1        3.315  -2.419  -0.768  0.00  0.00    +0.020 A 
ENDBRANCH   8   9
ENDBRANCH   7   8
ENDBRANCH   1   2
BRANCH   1  15
ATOM     15  C   LIG    1       -2.741   0.141   0.291  0.00  0.00    +0.120 C 
BRANCH  15  17
ATOM     16  N   LIG    1       -5.203   0.173   0.052  0.00  0.00    -0.560 N 
ATOM     17  C   LIG    1       -4.085  -0.541   0.294  0.00  0.00    +0.540 C 
ATOM     18  O   LIG    1       -4.162  -1.731   0.513  0.00  0.00    -0.510 OA
BRANCH  16  19
ATOM     19  C   LIG    1       -6.439  -0.475  -0.045  0.00  0.00    +0.140 A 
ATOM     20  C   LIG    1       -6.698  -1.323  -1.114  0.00  0.00    +0.010 A 
ATOM     21  C   LIG    1       -7.918  -1.964  -1.206  0.00  0.00    +0.020 A 
ATOM     22  C   LIG    1       -8.885  -1.755  -0.239  0.00  0.00    +0.010 A 
ATOM     23  C   LIG    1       -8.632  -0.907   0.824  0.00  0.00    +0.020 A 
ATOM     24  C   LIG    1       -7.412  -0.267   0.923  0.00  0.00    +0.010 A 
ENDBRANCH  16  19
BRANCH  16  26
ATOM     25  C   LIG    1       -4.896   1.966  -1.583  0.00  0.00    +0.030 C 
ATOM     26  C   LIG    1       -5.123   1.627  -0.108  0.00  0.00    +0.280 C 
ENDBRANCH  16  26
ENDBRANCH  15  17
ENDBRANCH   1  15
TORSDOF 7
