REMARK  Name = ZINCqH0000008l8E.0
REMARK                            x       y       z     vdW  Elec       q    Type
REMARK                         _______ _______ _______ _____ _____    ______ ____
ROOT
ATOM      1  N   LIG    1       -1.250   6.149   0.935  0.00  0.00    -0.710 N 
ATOM      2  H   LIG    1       -1.988   5.549   1.124  0.00  0.00    +0.410 HD
ATOM      3  C   LIG    1       -1.213   7.372   1.502  0.00  0.00    +0.600 C 
ATOM      4  O   LIG    1       -0.287   8.123   1.265  0.00  0.00    -0.510 OA
ENDROOT
BRANCH   3   5
ATOM      5  C   LIG    1       -2.297   7.798   2.409  0.00  0.00    +0.050 C 
ATOM      6  N   LIG    1       -3.327   7.095   2.737  0.00  0.00    -0.240 NA
ATOM      7  O   LIG    1       -4.198   7.775   3.620  0.00  0.00    -0.170 OA
ATOM      8  C   LIG    1       -3.463   8.873   4.197  0.00  0.00    +0.190 C 
ATOM      9  C   LIG    1       -2.386   9.134   3.120  0.00  0.00    +0.100 C 
BRANCH   8  10
ATOM     10  C   LIG    1       -4.350  10.077   4.383  0.00  0.00    -0.100 A 
ATOM     11  C   LIG    1       -5.362  10.336   3.479  0.00  0.00    +0.040 A 
ATOM     12  C   LIG    1       -6.178  11.438   3.652  0.00  0.00    +0.010 A 
ATOM     13  C   LIG    1       -5.976  12.286   4.725  0.00  0.00    +0.020 A 
ATOM     14  C   LIG    1       -4.960  12.030   5.626  0.00  0.00    +0.010 A 
ATOM     15  C   LIG    1       -4.147  10.925   5.456  0.00  0.00    +0.030 A 
ENDBRANCH   8  10
ENDBRANCH   3   5
BRANCH   1  17
ATOM     16  C   LIG    1       -0.466   6.229  -1.380  0.00  0.00    +0.060 C 
ATOM     17  C   LIG    1       -0.174   5.726   0.035  0.00  0.00    +0.300 C 
BRANCH  17  18
ATOM     18  C   LIG    1       -0.089   4.222   0.026  0.00  0.00    -0.120 A 
ATOM     19  C   LIG    1        1.144   3.588   0.010  0.00  0.00    +0.100 A 
ATOM     20  C   LIG    1        1.173   2.202   0.003  0.00  0.00    +0.040 A 
ATOM     21  C   LIG    1       -0.018   1.503   0.010  0.00  0.00    +0.040 A 
ATOM     22  N   LIG    1       -1.174   2.139   0.019  0.00  0.00    -0.430 NA
ATOM     23  C   LIG    1       -1.240   3.456   0.033  0.00  0.00    +0.280 A 
BRANCH  21  24
ATOM     24  C   LIG    1        0.002  -0.004   0.002  0.00  0.00    +0.520 C 
ATOM     25  F   LIG    1        1.144  -0.451  -0.671  0.00  0.00    -0.170 F 
ATOM     26  F   LIG    1       -1.140  -0.482  -0.649  0.00  0.00    -0.160 F 
ATOM     27  F   LIG    1        0.021  -0.477   1.318  0.00  0.00    -0.170 F 
ENDBRANCH  21  24
ENDBRANCH  17  18
ENDBRANCH   1  17
TORSDOF 5
