REMARK  Name = ZINCkj00000cxSLu.0
REMARK                            x       y       z     vdW  Elec       q    Type
REMARK                         _______ _______ _______ _____ _____    ______ ____
ROOT
ATOM      1  C   LIG    1       -4.975  -0.533   0.048  0.00  0.00    +0.230 C 
ATOM      2  C   LIG    1       -5.455  -0.238  -1.387  0.00  0.00    +0.210 C 
ATOM      3  O   LIG    1       -6.592  -1.082  -1.641  0.00  0.00    -0.360 OA
ATOM      4  C   LIG    1       -7.186  -1.380  -0.368  0.00  0.00    +0.090 C 
ATOM      5  C   LIG    1       -8.015  -2.656  -0.447  0.00  0.00    +0.090 C 
ATOM      6  C   LIG    1       -9.236  -2.413  -1.339  0.00  0.00    +0.270 C 
ATOM      7  N   LIG    1      -10.037  -1.315  -0.785  0.00  0.00    -0.500 N 
ATOM      8  C   LIG    1       -9.261  -0.069  -0.803  0.00  0.00    +0.280 C 
ATOM      9  H   LIG    1      -10.873  -1.197  -1.339  0.00  0.00    +0.430 HD
ATOM     10  H   LIG    1      -10.295  -1.534   0.166  0.00  0.00    +0.430 HD
ATOM     11  C   LIG    1       -8.041  -0.212   0.111  0.00  0.00    +0.050 C 
ATOM     12  C   LIG    1       -5.984  -1.583   0.578  0.00  0.00    +0.050 C 
ENDROOT
BRANCH   1  14
ATOM     13  C   LIG    1       -2.554  -0.262   0.026  0.00  0.00    +0.580 C 
ATOM     14  N   LIG    1       -3.619  -1.088   0.032  0.00  0.00    -0.730 N 
ATOM     15  H   LIG    1       -3.489  -2.049   0.025  0.00  0.00    +0.400 HD
ATOM     16  O   LIG    1       -2.718   0.943   0.035  0.00  0.00    -0.510 OA
BRANCH  13  21
ATOM     17  C   LIG    1        0.002  -0.004   0.002  0.00  0.00    +0.160 A 
ATOM     18  C   LIG    1        1.122  -0.724  -0.018  0.00  0.00    -0.180 A 
ATOM     19  S   LIG    1        0.753  -2.439  -0.018  0.00  0.00    +0.250 S 
ATOM     20  C   LIG    1       -0.927  -2.154  -0.001  0.00  0.00    -0.020 A 
ATOM     21  C   LIG    1       -1.193  -0.819   0.009  0.00  0.00    -0.170 A 
BRANCH  17  23
ATOM     22  C   LIG    1        1.248   2.023   0.001  0.00  0.00    +0.250 C 
ATOM     23  O   LIG    1       -0.016   1.357   0.009  0.00  0.00    -0.280 OA
ENDBRANCH  17  23
ENDBRANCH  13  21
ENDBRANCH   1  14
TORSDOF 3
