REMARK  Name = ZINCvU0000000CFa.0
REMARK                            x       y       z     vdW  Elec       q    Type
REMARK                         _______ _______ _______ _____ _____    ______ ____
ROOT
ATOM      1  C   LIG    1        1.153  -0.515  -0.042  0.00  0.00    -0.150 A 
ATOM      2  C   LIG    1        2.334   0.228  -0.081  0.00  0.00    +0.110 A 
ATOM      3  C   LIG    1        2.277   1.607  -0.088  0.00  0.00    +0.000 A 
ATOM      4  C   LIG    1        1.054   2.252  -0.057  0.00  0.00    +0.160 A 
ATOM      5  C   LIG    1       -0.121   1.520  -0.018  0.00  0.00    -0.690 A 
ATOM      6  C   LIG    1       -0.078   0.142  -0.010  0.00  0.00    +0.210 A 
ENDROOT
BRANCH   1   9
ATOM      7  N   LIG    1        2.397  -2.624  -0.065  0.00  0.00    -0.660 N 
ATOM      8  H   LIG    1        3.216  -2.112  -0.157  0.00  0.00    +0.410 HD
ATOM      9  C   LIG    1        1.207  -1.993  -0.034  0.00  0.00    +0.560 C 
ATOM     10  O   LIG    1        0.177  -2.638  -0.001  0.00  0.00    -0.510 OA
BRANCH   7  18
ATOM     11  C   LIG    1        3.517  -4.631   0.696  0.00  0.00    +0.110 A 
ATOM     12  C   LIG    1        3.564  -6.012   0.798  0.00  0.00    -0.040 A 
ATOM     13  C   LIG    1        2.561  -6.782   0.235  0.00  0.00    -0.010 A 
ATOM     14  C   LIG    1        1.507  -6.176  -0.424  0.00  0.00    -0.090 A 
ATOM     15  C   LIG    1        1.450  -4.798  -0.525  0.00  0.00    +0.090 A 
ATOM     16  C   LIG    1        0.417  -7.019  -1.035  0.00  0.00    +0.100 C 
ATOM     17 CL   LIG    1        2.626  -8.512   0.357  0.00  0.00    -0.060 Cl
ATOM     18  C   LIG    1        2.452  -4.020   0.036  0.00  0.00    +0.120 A 
BRANCH  11  20
ATOM     19  C   LIG    1        5.564  -4.568   1.905  0.00  0.00    +0.250 C 
ATOM     20  O   LIG    1        4.504  -3.873   1.244  0.00  0.00    -0.310 OA
ENDBRANCH  11  20
ENDBRANCH   7  18
ENDBRANCH   1   9
BRANCH   5  21
ATOM     21  S   LIG    1       -1.674   2.352   0.015  0.00  0.00    +2.690 S 
ATOM     22  O   LIG    1       -2.630   1.436  -0.501  0.00  0.00    -0.940 OA
ATOM     23  O   LIG    1       -1.451   3.640  -0.543  0.00  0.00    -0.940 OA
BRANCH  21  24
ATOM     24  N   LIG    1       -2.067   2.593   1.605  0.00  0.00    -0.950 N 
ATOM     25  C   LIG    1       -1.738   3.864   2.256  0.00  0.00    +0.320 C 
BRANCH  24  26
ATOM     26  C   LIG    1       -2.713   1.586   2.325  0.00  0.00    +0.120 A 
ATOM     27  C   LIG    1       -3.957   1.124   1.914  0.00  0.00    +0.040 A 
ATOM     28  C   LIG    1       -4.590   0.124   2.626  0.00  0.00    +0.020 A 
ATOM     29  C   LIG    1       -3.993  -0.410   3.753  0.00  0.00    -0.080 A 
ATOM     30  C   LIG    1       -2.757   0.051   4.168  0.00  0.00    +0.020 A 
ATOM     31  C   LIG    1       -4.689  -1.497   4.530  0.00  0.00    +0.090 C 
ATOM     32  C   LIG    1       -2.115   1.047   3.458  0.00  0.00    +0.020 A 
ENDBRANCH  24  26
ENDBRANCH  21  24
ENDBRANCH   5  21
TORSDOF 6
