REMARK  Name = ZINCrH000004pzbk.0
REMARK                            x       y       z     vdW  Elec       q    Type
REMARK                         _______ _______ _______ _____ _____    ______ ____
ROOT
ATOM      1  C   LIG    1       -2.093   0.786  -3.919  0.00  0.00    +0.090 C 
ATOM      2  C   LIG    1       -0.887   1.682  -3.629  0.00  0.00    +0.010 C 
ENDROOT
BRANCH   2   3
ATOM      3  C   LIG    1       -0.211   1.220  -2.363  0.00  0.00    +0.480 C 
ATOM      4  O   LIG    1        0.783   0.536  -2.424  0.00  0.00    -0.480 OA
BRANCH   3   5
ATOM      5  O   LIG    1       -0.715   1.567  -1.168  0.00  0.00    -0.350 OA
BRANCH   5   6
ATOM      6  C   LIG    1       -0.013   1.086   0.008  0.00  0.00    +0.280 C 
BRANCH   6   7
ATOM      7  C   LIG    1       -0.718   1.572   1.248  0.00  0.00    -0.090 A 
ATOM      8  C   LIG    1       -0.360   2.779   1.819  0.00  0.00    +0.040 A 
ATOM      9  C   LIG    1       -1.010   3.227   2.953  0.00  0.00    +0.030 A 
ATOM     10  C   LIG    1       -2.012   2.463   3.523  0.00  0.00    -0.120 A 
ATOM     11  C   LIG    1       -2.366   1.254   2.955  0.00  0.00    +0.030 A 
ATOM     12  C   LIG    1       -1.719   0.808   1.818  0.00  0.00    +0.040 A 
BRANCH  10  13
ATOM     13  C   LIG    1       -2.717   2.949   4.763  0.00  0.00    +0.280 C 
ATOM     14  F   LIG    1       -2.041   2.486   5.896  0.00  0.00    -0.210 F 
ENDBRANCH  10  13
ENDBRANCH   6   7
ENDBRANCH   5   6
ENDBRANCH   3   5
ENDBRANCH   2   3
BRANCH   2  15
ATOM     15  S   LIG    1        0.285   1.585  -5.010  0.00  0.00    -0.060 S 
BRANCH  15  16
ATOM     16  C   LIG    1       -0.644   2.313  -6.386  0.00  0.00    +0.140 C 
BRANCH  16  17
ATOM     17  C   LIG    1        0.208   2.305  -7.628  0.00  0.00    +0.460 A 
ATOM     18  N   LIG    1        1.412   1.811  -7.548  0.00  0.00    -0.580 NA
ATOM     19  C   LIG    1        2.234   1.768  -8.615  0.00  0.00    +0.530 A 
ATOM     20  C   LIG    1        1.736   2.302  -9.895  0.00  0.00    -0.210 A 
ATOM     21  C   LIG    1        2.514   2.300 -11.050  0.00  0.00    +0.110 A 
ATOM     22  C   LIG    1        1.993   2.812 -12.219  0.00  0.00    -0.010 A 
ATOM     23  C   LIG    1        0.705   3.327 -12.249  0.00  0.00    +0.080 A 
ATOM     24  C   LIG    1       -0.077   3.336 -11.113  0.00  0.00    -0.020 A 
ATOM     25  C   LIG    1        0.430   2.824  -9.926  0.00  0.00    +0.180 A 
ATOM     26  O   LIG    1        3.357   1.303  -8.523  0.00  0.00    -0.470 OA
ATOM     27  N   LIG    1       -0.314   2.804  -8.763  0.00  0.00    -0.620 N 
ATOM     28  H   LIG    1       -1.218   3.155  -8.763  0.00  0.00    +0.420 HD
ENDBRANCH  16  17
ENDBRANCH  15  16
ENDBRANCH   2  15
TORSDOF 8
