REMARK  Name = ZINCvU0000000CAi.0
REMARK                            x       y       z     vdW  Elec       q    Type
REMARK                         _______ _______ _______ _____ _____    ______ ____
ROOT
ATOM      1  C   LIG    1        0.362   6.740  -0.952  0.00  0.00    +0.160 A 
ATOM      2  N   LIG    1        0.158   7.967  -0.533  0.00  0.00    -0.290 NA
ATOM      3  N   LIG    1       -0.374   7.947   0.637  0.00  0.00    -0.250 NA
ATOM      4  C   LIG    1       -0.546   6.717   1.031  0.00  0.00    +0.200 A 
ATOM      5  N   LIG    1       -0.078   5.901   0.035  0.00  0.00    -0.420 N 
ENDROOT
BRANCH   5   6
ATOM      6  C   LIG    1       -0.059   4.499   0.027  0.00  0.00    +0.110 A 
ATOM      7  C   LIG    1        1.152   3.820   0.012  0.00  0.00    +0.050 A 
ATOM      8  C   LIG    1        1.168   2.439   0.004  0.00  0.00    +0.060 A 
ATOM      9  C   LIG    1       -0.021   1.732   0.012  0.00  0.00    -0.020 A 
ATOM     10  C   LIG    1       -1.230   2.406   0.021  0.00  0.00    +0.050 A 
ATOM     11 CL   LIG    1        0.002  -0.004   0.002  0.00  0.00    -0.050 Cl
ATOM     12  C   LIG    1       -1.251   3.787   0.034  0.00  0.00    +0.050 A 
ENDBRANCH   5   6
BRANCH   4  13
ATOM     13  C   LIG    1       -1.146   6.274   2.340  0.00  0.00    +0.230 C 
ATOM     14  C   LIG    1       -2.663   6.467   2.298  0.00  0.00    +0.070 C 
BRANCH  13  15
ATOM     15  N   LIG    1       -0.580   7.075   3.434  0.00  0.00    -0.530 NA
ATOM     16  C   LIG    1        0.886   6.988   3.447  0.00  0.00    +0.190 C 
ATOM     17  C   LIG    1       -1.143   6.670   4.729  0.00  0.00    +0.210 C 
ENDBRANCH  13  15
ENDBRANCH   4  13
BRANCH   1  18
ATOM     18  S   LIG    1        1.067   6.263  -2.495  0.00  0.00    +0.020 S 
BRANCH  18  19
ATOM     19  C   LIG    1        1.378   7.894  -3.216  0.00  0.00    +0.170 C 
BRANCH  19  25
ATOM     20  C   LIG    1        1.186   7.644  -5.705  0.00  0.00    +0.190 A 
ATOM     21  C   LIG    1        1.752   7.493  -6.967  0.00  0.00    -0.080 A 
ATOM     22  C   LIG    1        3.120   7.430  -7.104  0.00  0.00    +0.120 A 
ATOM     23  C   LIG    1        3.937   7.517  -5.971  0.00  0.00    -0.210 A 
ATOM     24  C   LIG    1        3.358   7.674  -4.706  0.00  0.00    +0.140 A 
ATOM     25  C   LIG    1        1.999   7.731  -4.579  0.00  0.00    -0.130 A 
BRANCH  23  26
ATOM     26  C   LIG    1        5.398   7.450  -6.109  0.00  0.00    +0.400 C 
ATOM     27  O   LIG    1        6.104   7.526  -5.125  0.00  0.00    -0.460 OA
ATOM     28  C   LIG    1        6.019   7.287  -7.472  0.00  0.00    +0.080 C 
ENDBRANCH  23  26
BRANCH  20  29
ATOM     29  O   LIG    1       -0.162   7.707  -5.572  0.00  0.00    -0.300 OA
BRANCH  29  31
ATOM     30  C   LIG    1       -2.425   7.701  -6.421  0.00  0.00    +0.070 C 
ATOM     31  C   LIG    1       -0.938   7.611  -6.768  0.00  0.00    +0.190 C 
ENDBRANCH  29  31
ENDBRANCH  20  29
ENDBRANCH  19  25
ENDBRANCH  18  19
ENDBRANCH   1  18
TORSDOF 9
