REMARK  Name = ZINCpk00000FbDBa.0
REMARK                            x       y       z     vdW  Elec       q    Type
REMARK                         _______ _______ _______ _____ _____    ______ ____
ROOT
ATOM      1  C   LIG    1        1.500  -0.388   0.018  0.00  0.00    +0.270 C 
ATOM      2  C   LIG    1        0.002  -0.004   0.002  0.00  0.00    +0.080 C 
ATOM      3  C   LIG    1       -0.019   1.536   0.011  0.00  0.00    +0.210 C 
ATOM      4  N   LIG    1        1.389   1.989  -0.001  0.00  0.00    -0.450 N 
ATOM      5  C   LIG    1        2.176   0.880   0.598  0.00  0.00    +0.240 C 
ENDROOT
BRANCH   4   6
ATOM      6  C   LIG    1        1.541   3.155   0.730  0.00  0.00    +0.490 A 
ATOM      7  N   LIG    1        2.004   4.240   0.127  0.00  0.00    -0.460 NA
ATOM      8  C   LIG    1        2.156   5.372   0.795  0.00  0.00    +0.360 A 
ATOM      9  C   LIG    1        1.834   5.410   2.142  0.00  0.00    -0.010 A 
ATOM     10  C   LIG    1        1.357   4.255   2.743  0.00  0.00    +0.100 A 
ATOM     11  N   LIG    1        1.224   3.158   2.017  0.00  0.00    -0.500 NA
BRANCH  10  12
ATOM     12  C   LIG    1        0.994   4.250   4.205  0.00  0.00    +0.520 C 
ATOM     13  F   LIG    1       -0.093   5.104   4.419  0.00  0.00    -0.160 F 
ATOM     14  F   LIG    1        2.088   4.690   4.959  0.00  0.00    -0.160 F 
ATOM     15  F   LIG    1        0.650   2.951   4.596  0.00  0.00    -0.160 F 
ENDBRANCH  10  12
ENDBRANCH   4   6
BRANCH   1  16
ATOM     16  C   LIG    1        1.736  -1.579   0.910  0.00  0.00    +0.180 A 
ATOM     17  N   LIG    1        1.480  -1.649   2.182  0.00  0.00    -0.380 NA
ATOM     18  O   LIG    1        1.782  -2.742   2.612  0.00  0.00    +0.080 OA
ATOM     19  C   LIG    1        2.275  -3.496   1.624  0.00  0.00    +0.180 A 
ATOM     20  C   LIG    1        2.767  -4.916   1.739  0.00  0.00    +0.240 C 
ATOM     21  N   LIG    1        2.245  -2.766   0.536  0.00  0.00    -0.460 NA
ENDBRANCH   1  16
BRANCH   1  24
ATOM     22  C   LIG    1        3.759  -1.285  -2.939  0.00  0.00    +0.100 C 
ATOM     23  C   LIG    1        3.265  -1.009  -1.543  0.00  0.00    +0.520 C 
ATOM     24  N   LIG    1        1.980  -0.657  -1.340  0.00  0.00    -0.710 N 
ATOM     25  H   LIG    1        1.373  -0.581  -2.093  0.00  0.00    +0.410 HD
ATOM     26  O   LIG    1        4.024  -1.103  -0.601  0.00  0.00    -0.530 OA
ENDBRANCH   1  24
TORSDOF 4
