REMARK  Name = ZINCrD0000073dsg.0
REMARK                            x       y       z     vdW  Elec       q    Type
REMARK                         _______ _______ _______ _____ _____    ______ ____
ROOT
ATOM      1  C   LIG    1        5.281   1.245   4.069  0.00  0.00    +0.220 A 
ATOM      2  N   LIG    1        5.636   0.201   3.357  0.00  0.00    -0.270 NA
ATOM      3  N   LIG    1        5.092   0.277   2.194  0.00  0.00    -0.250 NA
ATOM      4  C   LIG    1        4.381   1.367   2.115  0.00  0.00    +0.160 A 
ATOM      5  O   LIG    1        4.479   2.003   3.295  0.00  0.00    -0.210 OA
ENDROOT
BRANCH   1   8
ATOM      6  C   LIG    1        6.901   0.927   7.446  0.00  0.00    +0.150 A 
ATOM      7  C   LIG    1        6.525   0.654   6.143  0.00  0.00    -0.020 A 
ATOM      8  C   LIG    1        5.684   1.535   5.461  0.00  0.00    +0.040 A 
ATOM      9  C   LIG    1        5.229   2.693   6.094  0.00  0.00    -0.050 A 
ATOM     10  C   LIG    1        5.604   2.959   7.399  0.00  0.00    +0.150 A 
ATOM     11  C   LIG    1        6.441   2.079   8.077  0.00  0.00    +0.060 A 
BRANCH   6  13
ATOM     12  C   LIG    1        8.153  -1.094   7.403  0.00  0.00    +0.250 C 
ATOM     13  O   LIG    1        7.720   0.069   8.111  0.00  0.00    -0.300 OA
ENDBRANCH   6  13
BRANCH  10  14
ATOM     14  O   LIG    1        5.157   4.085   8.018  0.00  0.00    -0.300 OA
ATOM     15  C   LIG    1        4.300   4.944   7.263  0.00  0.00    +0.250 C 
ENDBRANCH  10  14
BRANCH  11  16
ATOM     16  O   LIG    1        6.812   2.346   9.358  0.00  0.00    -0.310 OA
ATOM     17  C   LIG    1        8.005   3.111   9.543  0.00  0.00    +0.230 C 
ENDBRANCH  11  16
ENDBRANCH   1   8
BRANCH   4  18
ATOM     18  C   LIG    1        3.588   1.827   0.919  0.00  0.00    +0.410 C 
BRANCH  18  19
ATOM     19  O   LIG    1        2.241   1.289   0.994  0.00  0.00    -0.350 OA
BRANCH  19  20
ATOM     20  C   LIG    1        1.401   1.607  -0.003  0.00  0.00    +0.470 C 
ATOM     21  O   LIG    1        1.778   2.312  -0.909  0.00  0.00    -0.500 OA
BRANCH  20  22
ATOM     22  C   LIG    1       -0.013   1.086   0.008  0.00  0.00    +0.030 C 
ATOM     23  C   LIG    1       -0.729   1.579   1.267  0.00  0.00    +0.040 C 
ATOM     24  C   LIG    1       -2.164   1.050   1.278  0.00  0.00    +0.020 C 
ATOM     25  C   LIG    1       -2.904   1.556   0.038  0.00  0.00    +0.000 C 
ATOM     26  C   LIG    1       -2.188   1.063  -1.221  0.00  0.00    +0.020 C 
ATOM     27  C   LIG    1       -0.753   1.593  -1.232  0.00  0.00    +0.030 C 
ENDBRANCH  20  22
ENDBRANCH  19  20
ENDBRANCH  18  19
ENDBRANCH   4  18
TORSDOF 8
