REMARK  Name = ZINCrD00000hQ7gw.1
REMARK                            x       y       z     vdW  Elec       q    Type
REMARK                         _______ _______ _______ _____ _____    ______ ____
ROOT
ATOM      1  C   LIG    1        1.565   4.753   0.010  0.00  0.00    +0.370 C 
ATOM      2  C   LIG    1        1.493   5.444   1.375  0.00  0.00    +0.030 C 
ATOM      3  C   LIG    1        2.308   6.739   1.332  0.00  0.00    +0.020 C 
ATOM      4  C   LIG    1        1.715   7.681   0.282  0.00  0.00    +0.010 C 
ATOM      5  C   LIG    1        1.790   7.016  -1.096  0.00  0.00    +0.270 C 
ATOM      6  N   LIG    1        1.133   5.704  -1.024  0.00  0.00    -0.610 N 
ATOM      7  C   LIG    1        0.153   5.378  -1.890  0.00  0.00    +0.710 C 
ATOM      8  N   LIG    1       -0.158   6.213  -2.901  0.00  0.00    -0.640 N 
ATOM      9  H   LIG    1        0.372   7.011  -3.051  0.00  0.00    +0.420 HD
ATOM     10  O   LIG    1       -0.451   4.330  -1.758  0.00  0.00    -0.530 OA
ENDROOT
BRANCH   8  11
ATOM     11  C   LIG    1       -1.239   5.930  -3.728  0.00  0.00    +0.270 A 
ATOM     12  N   LIG    1       -1.623   6.663  -4.717  0.00  0.00    -0.510 NA
ATOM     13  C   LIG    1       -2.683   6.250  -5.419  0.00  0.00    +0.080 A 
ATOM     14  C   LIG    1       -3.203   5.105  -4.966  0.00  0.00    -0.310 A 
ATOM     15  C   LIG    1       -4.403   4.688  -5.797  0.00  0.00    +0.130 C 
ATOM     16  C   LIG    1       -4.285   5.509  -7.098  0.00  0.00    +0.060 C 
ATOM     17  C   LIG    1       -3.486   6.739  -6.622  0.00  0.00    +0.020 C 
ATOM     18  C   LIG    1       -4.439   7.862  -6.206  0.00  0.00    +0.050 C 
ATOM     19  C   LIG    1       -2.546   7.223  -7.727  0.00  0.00    +0.040 C 
ATOM     20  S   LIG    1       -2.255   4.566  -3.578  0.00  0.00    +0.260 S 
ENDBRANCH   8  11
BRANCH   1  23
ATOM     21  C   LIG    1       -0.016   1.511  -0.232  0.00  0.00    +0.280 A 
ATOM     22  N   LIG    1        1.012   2.313  -0.337  0.00  0.00    -0.530 NA
ATOM     23  C   LIG    1        0.656   3.551   0.003  0.00  0.00    +0.240 A 
ATOM     24  N   LIG    1       -0.609   3.554   0.330  0.00  0.00    -0.270 NA
ATOM     25  N   LIG    1       -1.070   2.236   0.179  0.00  0.00    -0.450 N 
ATOM     26  H   LIG    1       -1.970   1.913   0.341  0.00  0.00    +0.440 HD
BRANCH  21  27
ATOM     27  C   LIG    1       -0.019   0.033  -0.527  0.00  0.00    +0.320 C 
BRANCH  27  29
ATOM     28  C   LIG    1       -1.438  -1.898  -0.547  0.00  0.00    +0.230 C 
ATOM     29  O   LIG    1       -1.326  -0.496  -0.296  0.00  0.00    -0.400 OA
ENDBRANCH  27  29
ENDBRANCH  21  27
ENDBRANCH   1  23
TORSDOF 4
