REMARK  Name = ZINCrD00000hQ7gw.0
REMARK                            x       y       z     vdW  Elec       q    Type
REMARK                         _______ _______ _______ _____ _____    ______ ____
ROOT
ATOM      1  C   LIG    1        3.575   0.838  -0.046  0.00  0.00    +0.350 C 
ATOM      2  C   LIG    1        4.026   1.573  -1.312  0.00  0.00    +0.050 C 
ATOM      3  C   LIG    1        5.554   1.544  -1.397  0.00  0.00    +0.030 C 
ATOM      4  C   LIG    1        6.034   0.093  -1.484  0.00  0.00    +0.010 C 
ATOM      5  C   LIG    1        5.606  -0.659  -0.221  0.00  0.00    +0.270 C 
ATOM      6  N   LIG    1        4.153  -0.513  -0.052  0.00  0.00    -0.610 N 
ATOM      7  C   LIG    1        3.366  -1.598   0.093  0.00  0.00    +0.710 C 
ATOM      8  N   LIG    1        3.919  -2.824   0.180  0.00  0.00    -0.630 N 
ATOM      9  H   LIG    1        4.883  -2.920   0.218  0.00  0.00    +0.420 HD
ATOM     10  O   LIG    1        2.159  -1.470   0.146  0.00  0.00    -0.530 OA
ENDROOT
BRANCH   8  11
ATOM     11  C   LIG    1        3.106  -3.951   0.215  0.00  0.00    +0.260 A 
ATOM     12  N   LIG    1        3.531  -5.166   0.297  0.00  0.00    -0.510 NA
ATOM     13  C   LIG    1        2.618  -6.142   0.321  0.00  0.00    +0.080 A 
ATOM     14  C   LIG    1        1.361  -5.691   0.255  0.00  0.00    -0.300 A 
ATOM     15  C   LIG    1        0.371  -6.841   0.287  0.00  0.00    +0.130 C 
ATOM     16  C   LIG    1        1.179  -8.041   0.823  0.00  0.00    +0.060 C 
ATOM     17  C   LIG    1        2.614  -7.666   0.403  0.00  0.00    +0.020 C 
ATOM     18  C   LIG    1        3.617  -8.144   1.456  0.00  0.00    +0.040 C 
ATOM     19  C   LIG    1        2.945  -8.273  -0.962  0.00  0.00    +0.050 C 
ATOM     20  S   LIG    1        1.400  -3.928   0.164  0.00  0.00    +0.270 S 
ENDBRANCH   8  11
BRANCH   1  25
ATOM     21  C   LIG    1        0.033   0.387  -0.646  0.00  0.00    +0.240 A 
ATOM     22  N   LIG    1       -0.041   0.813   0.587  0.00  0.00    -0.290 NA
ATOM     23  N   LIG    1        1.275   1.052   1.014  0.00  0.00    -0.470 N 
ATOM     24  H   LIG    1        1.555   1.375   1.885  0.00  0.00    +0.440 HD
ATOM     25  C   LIG    1        2.071   0.743  -0.025  0.00  0.00    +0.300 A 
ATOM     26  N   LIG    1        1.312   0.346  -1.014  0.00  0.00    -0.500 NA
BRANCH  21  27
ATOM     27  C   LIG    1       -1.140  -0.001  -1.510  0.00  0.00    +0.310 C 
BRANCH  27  29
ATOM     28  C   LIG    1       -2.718   0.884  -3.082  0.00  0.00    +0.200 C 
ATOM     29  O   LIG    1       -1.603   1.145  -2.228  0.00  0.00    -0.390 OA
ENDBRANCH  27  29
ENDBRANCH  21  27
ENDBRANCH   1  25
TORSDOF 4
