REMARK  Name = ZINCrD000006UPZY.0
REMARK                            x       y       z     vdW  Elec       q    Type
REMARK                         _______ _______ _______ _____ _____    ______ ____
ROOT
ATOM      1  C   LIG    1        2.422   0.569   0.606  0.00  0.00    +0.520 C 
ATOM      2  N   LIG    1        3.682   1.007   0.795  0.00  0.00    -0.730 N 
ATOM      3  H   LIG    1        3.940   1.890   0.488  0.00  0.00    +0.410 HD
ATOM      4  O   LIG    1        2.124  -0.568   0.904  0.00  0.00    -0.520 OA
ENDROOT
BRANCH   1   5
ATOM      5  C   LIG    1        1.383   1.492   0.024  0.00  0.00    +0.250 C 
BRANCH   5   7
ATOM      6  C   LIG    1        2.818   2.046  -1.945  0.00  0.00    +0.030 C 
ATOM      7  C   LIG    1        1.474   1.464  -1.504  0.00  0.00    -0.020 C 
ATOM      8  C   LIG    1        1.358   0.019  -1.995  0.00  0.00    +0.030 C 
ENDBRANCH   5   7
BRANCH   5   9
ATOM      9  N   LIG    1        0.049   1.052   0.441  0.00  0.00    -1.100 NA
ATOM     10  H   LIG    1       -0.140   0.105   0.540  0.00  0.00    +0.430 HD
BRANCH   9  11
ATOM     11  S   LIG    1       -1.137   2.169   0.737  0.00  0.00    +2.720 S 
ATOM     12  O   LIG    1       -0.560   3.150   1.589  0.00  0.00    -0.950 OA
ATOM     13  O   LIG    1       -2.304   1.434   1.077  0.00  0.00    -0.940 OA
BRANCH  11  14
ATOM     14  C   LIG    1       -1.484   2.978  -0.789  0.00  0.00    -0.800 A 
ATOM     15  C   LIG    1       -2.397   2.583  -1.678  0.00  0.00    +0.180 A 
ATOM     16  C   LIG    1       -2.493   3.378  -2.807  0.00  0.00    -0.010 A 
ATOM     17  C   LIG    1       -1.659   4.419  -2.834  0.00  0.00    +0.010 A 
ATOM     18  S   LIG    1       -0.687   4.434  -1.369  0.00  0.00    +0.210 S 
ENDBRANCH  11  14
ENDBRANCH   9  11
ENDBRANCH   5   9
ENDBRANCH   1   5
BRANCH   2  19
ATOM     19  C   LIG    1        4.662   0.150   1.466  0.00  0.00    +0.330 C 
BRANCH  19  20
ATOM     20  C   LIG    1        5.984   0.869   1.551  0.00  0.00    -0.110 A 
ATOM     21  C   LIG    1        6.912   0.733   0.536  0.00  0.00    +0.070 A 
ATOM     22  C   LIG    1        8.122   1.396   0.612  0.00  0.00    +0.020 A 
ATOM     23  C   LIG    1        8.409   2.188   1.708  0.00  0.00    +0.080 A 
ATOM     24  C   LIG    1        7.482   2.321   2.726  0.00  0.00    -0.180 A 
ATOM     25  C   LIG    1        6.271   1.661   2.648  0.00  0.00    +0.090 A 
BRANCH  24  26
ATOM     26  C   LIG    1        7.795   3.184   3.921  0.00  0.00    +0.510 C 
ATOM     27  F   LIG    1        6.608   3.720   4.432  0.00  0.00    -0.180 F 
ATOM     28  F   LIG    1        8.648   4.224   3.535  0.00  0.00    -0.180 F 
ATOM     29  F   LIG    1        8.419   2.410   4.905  0.00  0.00    -0.170 F 
ENDBRANCH  24  26
ENDBRANCH  19  20
ENDBRANCH   2  19
TORSDOF 8
