REMARK  Name = ZINCpk000000nQ7f.1
REMARK                            x       y       z     vdW  Elec       q    Type
REMARK                         _______ _______ _______ _____ _____    ______ ____
ROOT
ATOM      1  N   LIG    1        1.285  -3.611   2.011  0.00  0.00    -0.530 NA
ATOM      2  C   LIG    1        2.063  -4.101   0.865  0.00  0.00    +0.190 C 
ATOM      3  C   LIG    1        3.496  -4.397   1.314  0.00  0.00    +0.190 C 
ATOM      4  N   LIG    1        3.473  -5.392   2.394  0.00  0.00    -0.520 NA
ATOM      5  C   LIG    1        2.694  -4.902   3.541  0.00  0.00    +0.190 C 
ATOM      6  C   LIG    1        1.261  -4.607   3.092  0.00  0.00    +0.200 C 
ENDROOT
BRANCH   1   7
ATOM      7  C   LIG    1       -0.078  -3.244   1.603  0.00  0.00    +0.310 C 
BRANCH   7  10
ATOM      8  C   LIG    1        0.002  -0.004   0.002  0.00  0.00    +0.290 A 
ATOM      9  N   LIG    1       -0.064  -0.779   1.054  0.00  0.00    -0.520 NA
ATOM     10  C   LIG    1       -0.023  -2.057   0.677  0.00  0.00    +0.240 A 
ATOM     11  N   LIG    1        0.079  -2.112  -0.625  0.00  0.00    -0.310 NA
ATOM     12  N   LIG    1        0.097  -0.786  -1.087  0.00  0.00    -0.480 N 
ATOM     13  H   LIG    1        0.166  -0.493  -2.009  0.00  0.00    +0.440 HD
BRANCH   8  15
ATOM     14  C   LIG    1        1.417   2.032  -0.001  0.00  0.00    +0.050 C 
ATOM     15  C   LIG    1       -0.018   1.503   0.010  0.00  0.00    +0.090 C 
ATOM     16  C   LIG    1       -0.758   2.010  -1.229  0.00  0.00    +0.040 C 
ENDBRANCH   8  15
ENDBRANCH   7  10
ENDBRANCH   1   7
BRANCH   4  17
ATOM     17  C   LIG    1        4.836  -5.759   2.802  0.00  0.00    +0.200 C 
BRANCH  17  18
ATOM     18  C   LIG    1        5.521  -6.480   1.670  0.00  0.00    +0.510 C 
ATOM     19  N   LIG    1        6.789  -6.914   1.818  0.00  0.00    -0.610 N 
ATOM     20  C   LIG    1        7.465  -6.667   3.072  0.00  0.00    +0.270 C 
ATOM     21  C   LIG    1        8.185  -5.304   3.021  0.00  0.00    -0.000 C 
ATOM     22  C   LIG    1        9.351  -5.376   2.127  0.00  0.00    +0.000 C 
ATOM     23  C   LIG    1        9.008  -5.678   0.671  0.00  0.00    +0.000 C 
ATOM     24  C   LIG    1        8.891  -7.171   0.484  0.00  0.00    +0.020 C 
ATOM     25  C   LIG    1        7.432  -7.616   0.690  0.00  0.00    +0.260 C 
ATOM     26  O   LIG    1        4.933  -6.669   0.627  0.00  0.00    -0.520 OA
ENDBRANCH  17  18
ENDBRANCH   4  17
TORSDOF 5
