REMARK  Name = ZINCpk000000nQ7f.0
REMARK                            x       y       z     vdW  Elec       q    Type
REMARK                         _______ _______ _______ _____ _____    ______ ____
ROOT
ATOM      1  N   LIG    1        2.075   3.577   1.381  0.00  0.00    -0.530 NA
ATOM      2  C   LIG    1        0.844   3.644   2.181  0.00  0.00    +0.180 C 
ATOM      3  C   LIG    1        1.198   4.000   3.627  0.00  0.00    +0.200 C 
ATOM      4  N   LIG    1        1.910   5.285   3.653  0.00  0.00    -0.520 NA
ATOM      5  C   LIG    1        3.141   5.218   2.853  0.00  0.00    +0.190 C 
ATOM      6  C   LIG    1        2.787   4.862   1.407  0.00  0.00    +0.200 C 
ENDROOT
BRANCH   1   7
ATOM      7  C   LIG    1        1.784   3.163   0.002  0.00  0.00    +0.310 C 
BRANCH   7  11
ATOM      8  C   LIG    1        0.002  -0.004   0.002  0.00  0.00    +0.190 A 
ATOM      9  N   LIG    1        1.253  -0.375  -0.012  0.00  0.00    -0.290 NA
ATOM     10  N   LIG    1        2.013   0.662  -0.014  0.00  0.00    -0.270 NA
ATOM     11  C   LIG    1        1.281   1.743  -0.001  0.00  0.00    +0.180 A 
ATOM     12  N   LIG    1       -0.016   1.351   0.009  0.00  0.00    -0.580 N 
ATOM     13  H   LIG    1       -0.799   1.924   0.017  0.00  0.00    +0.430 HD
BRANCH   8  15
ATOM     14  C   LIG    1       -1.667  -1.129   1.450  0.00  0.00    +0.030 C 
ATOM     15  C   LIG    1       -1.199  -0.914   0.009  0.00  0.00    +0.100 C 
ATOM     16  C   LIG    1       -2.328  -0.275  -0.803  0.00  0.00    +0.040 C 
ENDBRANCH   8  15
ENDBRANCH   7  11
ENDBRANCH   1   7
BRANCH   4  17
ATOM     17  C   LIG    1        2.200   5.699   5.032  0.00  0.00    +0.220 C 
BRANCH  17  18
ATOM     18  C   LIG    1        0.909   5.994   5.750  0.00  0.00    +0.510 C 
ATOM     19  N   LIG    1        0.930   6.394   7.037  0.00  0.00    -0.610 N 
ATOM     20  C   LIG    1        2.208   6.524   7.702  0.00  0.00    +0.270 C 
ATOM     21  C   LIG    1        2.599   5.183   8.356  0.00  0.00    -0.000 C 
ATOM     22  C   LIG    1        1.744   4.916   9.523  0.00  0.00    +0.000 C 
ATOM     23  C   LIG    1        0.262   4.760   9.194  0.00  0.00    +0.000 C 
ATOM     24  C   LIG    1       -0.386   6.121   9.148  0.00  0.00    +0.020 C 
ATOM     25  C   LIG    1       -0.352   6.675   7.712  0.00  0.00    +0.260 C 
ATOM     26  O   LIG    1       -0.149   5.872   5.171  0.00  0.00    -0.520 OA
ENDBRANCH  17  18
ENDBRANCH   4  17
TORSDOF 5
