REMARK  Name = ZINCah0000002IiF.0
REMARK                            x       y       z     vdW  Elec       q    Type
REMARK                         _______ _______ _______ _____ _____    ______ ____
ROOT
ATOM      1  C   LIG    1        1.203   2.075   0.002  0.00  0.00    -0.220 A 
ATOM      2  C   LIG    1       -0.017   1.380   0.010  0.00  0.00    +0.130 A 
ATOM      3  C   LIG    1        0.002  -0.004   0.002  0.00  0.00    +0.250 A 
ATOM      4  N   LIG    1        1.141  -0.666  -0.012  0.00  0.00    -0.410 NA
ATOM      5  C   LIG    1        2.309  -0.056  -0.020  0.00  0.00    +0.240 A 
ATOM      6  F   LIG    1       -1.190   2.050   0.019  0.00  0.00    -0.110 F 
ATOM      7  C   LIG    1        2.390   1.326  -0.013  0.00  0.00    +0.130 A 
ATOM      8  F   LIG    1        3.591   1.943  -0.020  0.00  0.00    -0.100 F 
ENDROOT
BRANCH   1  10
ATOM      9  O   LIG    1        2.299   4.129   0.002  0.00  0.00    -0.430 OA
ATOM     10  C   LIG    1        1.236   3.547   0.009  0.00  0.00    +0.510 C 
ENDBRANCH   1  10
TORSDOF 1
