REMARK  Name = ZINCrD0000072MDp.0
REMARK                            x       y       z     vdW  Elec       q    Type
REMARK                         _______ _______ _______ _____ _____    ______ ____
ROOT
ATOM      1  O   LIG    1       -2.396  -4.222   0.001  0.00  0.00    -0.320 OA
ENDROOT
BRANCH   1   2
ATOM      2  C   LIG    1       -2.424  -2.875   0.009  0.00  0.00    +0.520 C 
ATOM      3  O   LIG    1       -3.488  -2.290   0.022  0.00  0.00    -0.490 OA
BRANCH   2   4
ATOM      4  C   LIG    1       -1.159  -2.111   0.001  0.00  0.00    -0.060 A 
ATOM      5  C   LIG    1        0.067  -2.788  -0.014  0.00  0.00    +0.060 A 
ATOM      6  C   LIG    1        1.239  -2.095  -0.021  0.00  0.00    +0.120 A 
ATOM      7  C   LIG    1        1.231  -0.691  -0.013  0.00  0.00    +0.060 A 
ATOM      8  N   LIG    1        2.395  -0.012  -0.021  0.00  0.00    -0.410 NA
ATOM      9  C   LIG    1        2.414   1.289  -0.014  0.00  0.00    +0.320 A 
ATOM     10  C   LIG    1        1.156   2.048   0.002  0.00  0.00    +0.490 A 
ATOM     11  N   LIG    1       -0.017   1.377   0.010  0.00  0.00    -0.620 N 
ATOM     12  H   LIG    1       -0.859   1.859   0.016  0.00  0.00    +0.420 HD
ATOM     13  O   LIG    1        1.170   3.265   0.009  0.00  0.00    -0.500 OA
ATOM     14  C   LIG    1        0.002  -0.004   0.002  0.00  0.00    +0.140 A 
ATOM     15  C   LIG    1       -1.190  -0.719   0.009  0.00  0.00    +0.060 A 
ENDBRANCH   2   4
ENDBRANCH   1   2
BRANCH   1  16
ATOM     16  C   LIG    1       -3.676  -4.908   0.009  0.00  0.00    +0.290 C 
BRANCH  16  17
ATOM     17  C   LIG    1       -3.545  -6.226  -0.710  0.00  0.00    -0.090 A 
ATOM     18  C   LIG    1       -2.314  -6.847  -0.794  0.00  0.00    +0.090 A 
ATOM     19  C   LIG    1       -2.193  -8.056  -1.453  0.00  0.00    +0.040 A 
ATOM     20  C   LIG    1       -3.304  -8.645  -2.030  0.00  0.00    -0.010 A 
ATOM     21  C   LIG    1       -4.537  -8.023  -1.946  0.00  0.00    +0.050 A 
ATOM     22 CL   LIG    1       -3.152 -10.163  -2.858  0.00  0.00    -0.050 Cl
ATOM     23  C   LIG    1       -4.659  -6.815  -1.282  0.00  0.00    +0.000 A 
ATOM     24 CL   LIG    1       -6.207  -6.038  -1.171  0.00  0.00    -0.030 Cl
ENDBRANCH  16  17
BRANCH  16  25
ATOM     25  C   LIG    1       -4.106  -5.153   1.432  0.00  0.00    +0.460 C 
ATOM     26  O   LIG    1       -3.405  -4.787   2.346  0.00  0.00    -0.480 OA
BRANCH  25  28
ATOM     27  C   LIG    1       -5.617  -5.979   3.080  0.00  0.00    +0.280 C 
ATOM     28  O   LIG    1       -5.267  -5.777   1.685  0.00  0.00    -0.340 OA
ENDBRANCH  25  28
ENDBRANCH  16  25
ENDBRANCH   1  16
TORSDOF 6
