REMARK  Name = ZINCnE000001Nbic.0
REMARK                            x       y       z     vdW  Elec       q    Type
REMARK                         _______ _______ _______ _____ _____    ______ ____
ROOT
ATOM      1  C   LIG    1       -2.635   4.311   3.984  0.00  0.00    +0.030 A 
ATOM      2  C   LIG    1       -2.827   4.490   5.310  0.00  0.00    -0.020 A 
ATOM      3  S   LIG    1       -2.956   6.164   5.636  0.00  0.00    +0.180 S 
ATOM      4  C   LIG    1       -2.739   6.531   3.929  0.00  0.00    +0.080 A 
ATOM      5  N   LIG    1       -2.587   5.425   3.267  0.00  0.00    -0.420 NA
ENDROOT
BRANCH   1  11
ATOM      6  C   LIG    1       -2.142   1.603  -1.230  0.00  0.00    +0.040 C 
ATOM      7  C   LIG    1       -1.330   1.951   0.019  0.00  0.00    -0.150 C 
ATOM      8  C   LIG    1       -1.091   3.476   0.100  0.00  0.00    +0.050 C 
ATOM      9  C   LIG    1       -2.213   3.950   1.058  0.00  0.00    +0.260 C 
ATOM     10  N   LIG    1       -2.296   2.854   2.052  0.00  0.00    -0.590 N 
ATOM     11  C   LIG    1       -2.485   2.976   3.381  0.00  0.00    +0.600 C 
ATOM     12  O   LIG    1       -2.531   1.983   4.082  0.00  0.00    -0.540 OA
ATOM     13  C   LIG    1       -2.127   1.603   1.290  0.00  0.00    +0.270 C 
BRANCH   7  14
ATOM     14  C   LIG    1       -0.015   1.215   0.009  0.00  0.00    +0.510 C 
ATOM     15  O   LIG    1        1.033   1.839   0.002  0.00  0.00    -0.690 OA
ATOM     16  O   LIG    1        0.002  -0.004   0.002  0.00  0.00    -0.690 OA
ENDBRANCH   7  14
ENDBRANCH   1  11
BRANCH   4  17
ATOM     17  C   LIG    1       -2.727   7.889   3.341  0.00  0.00    -0.010 A 
ATOM     18  C   LIG    1       -2.540   8.056   1.969  0.00  0.00    +0.080 A 
ATOM     19  C   LIG    1       -2.535   9.324   1.425  0.00  0.00    +0.040 A 
ATOM     20  C   LIG    1       -2.703  10.430   2.239  0.00  0.00    +0.040 A 
ATOM     21  C   LIG    1       -2.883  10.271   3.603  0.00  0.00    -0.030 A 
ATOM     22 CL   LIG    1       -3.094  11.665   4.617  0.00  0.00    -0.070 Cl
ATOM     23  C   LIG    1       -2.896   9.007   4.158  0.00  0.00    +0.050 A 
ENDBRANCH   4  17
TORSDOF 3
