REMARK  Name = ZINCpe000000TC0i.0
REMARK                            x       y       z     vdW  Elec       q    Type
REMARK                         _______ _______ _______ _____ _____    ______ ____
ROOT
ATOM      1  C   LIG    1       -0.648   1.228   1.393  0.00  0.00    -0.470 C 
ATOM      2  C   LIG    1       -1.221   2.488   0.689  0.00  0.00    +0.100 C 
ATOM      3  C   LIG    1       -1.458   2.001  -0.756  0.00  0.00    +0.260 C 
ATOM      4  N   LIG    1       -0.588   0.835  -0.972  0.00  0.00    -0.630 N 
ATOM      5  C   LIG    1       -0.516   0.109  -2.105  0.00  0.00    +0.730 C 
ATOM      6  N   LIG    1       -1.284   0.433  -3.164  0.00  0.00    -0.660 N 
ATOM      7  H   LIG    1       -1.889   1.189  -3.111  0.00  0.00    +0.410 HD
ATOM      8  O   LIG    1        0.243  -0.839  -2.172  0.00  0.00    -0.550 OA
ATOM      9  C   LIG    1        0.191   0.593   0.256  0.00  0.00    +0.330 C 
ENDROOT
BRANCH   6  10
ATOM     10  C   LIG    1       -1.208  -0.319  -4.336  0.00  0.00    +0.320 A 
ATOM     11  C   LIG    1       -0.408  -1.399  -4.549  0.00  0.00    -0.080 A 
ATOM     12  C   LIG    1       -0.641  -1.855  -5.849  0.00  0.00    +0.090 A 
ATOM     13  N   LIG    1       -1.543  -1.084  -6.400  0.00  0.00    -0.260 NA
ATOM     14  N   LIG    1       -1.922  -0.111  -5.466  0.00  0.00    -0.390 N 
ATOM     15  C   LIG    1       -2.912   0.947  -5.678  0.00  0.00    +0.360 C 
BRANCH  12  16
ATOM     16  C   LIG    1        0.033  -3.033  -6.505  0.00  0.00    +0.260 C 
ATOM     17  C   LIG    1       -1.027  -4.018  -7.060  0.00  0.00    +0.030 C 
ATOM     18  C   LIG    1       -0.214  -4.722  -8.182  0.00  0.00    +0.000 C 
ATOM     19  C   LIG    1        0.700  -3.586  -8.689  0.00  0.00    +0.190 C 
ATOM     20  O   LIG    1        0.784  -2.603  -7.651  0.00  0.00    -0.370 OA
ENDBRANCH  12  16
ENDBRANCH   6  10
BRANCH   1  21
ATOM     21  S   LIG    1        0.404   1.687   2.798  0.00  0.00    +2.630 S 
ATOM     22  O   LIG    1        1.316   2.710   2.425  0.00  0.00    -0.950 OA
ATOM     23  O   LIG    1        0.846   0.527   3.489  0.00  0.00    -0.940 OA
BRANCH  21  24
ATOM     24  N   LIG    1       -0.628   2.426   3.861  0.00  0.00    -1.120 NA
ATOM     25  H   LIG    1       -0.504   3.362   4.086  0.00  0.00    +0.420 HD
BRANCH  24  27
ATOM     26  C   LIG    1       -2.269   2.430   5.674  0.00  0.00    +0.040 C 
ATOM     27  C   LIG    1       -1.728   1.668   4.463  0.00  0.00    +0.250 C 
ENDBRANCH  24  27
ENDBRANCH  21  24
ENDBRANCH   1  21
TORSDOF 5
