REMARK  Name = ZINCrg000000mRlp.0
REMARK                            x       y       z     vdW  Elec       q    Type
REMARK                         _______ _______ _______ _____ _____    ______ ____
ROOT
ATOM      1  S   LIG    1       -0.017   1.417   0.010  0.00  0.00    +2.690 S 
ATOM      2  O   LIG    1        1.162   2.210   0.003  0.00  0.00    -0.950 OA
ATOM      3  O   LIG    1        0.002  -0.004   0.002  0.00  0.00    -0.950 OA
ENDROOT
BRANCH   1  11
ATOM      4  C   LIG    1       -4.635   3.399  -6.632  0.00  0.00    +0.120 C 
ATOM      5  C   LIG    1       -4.022   2.670  -5.464  0.00  0.00    +0.520 C 
ATOM      6  N   LIG    1       -3.073   3.268  -4.718  0.00  0.00    -0.560 N 
ATOM      7  C   LIG    1       -2.557   4.621  -4.943  0.00  0.00    +0.280 C 
ATOM      8  C   LIG    1       -1.506   4.840  -3.843  0.00  0.00    +0.110 C 
ATOM      9  C   LIG    1       -1.508   3.551  -3.053  0.00  0.00    -0.160 A 
ATOM     10  C   LIG    1       -0.771   3.163  -1.950  0.00  0.00    +0.160 A 
ATOM     11  C   LIG    1       -0.957   1.909  -1.397  0.00  0.00    -0.700 A 
ATOM     12  C   LIG    1       -1.877   1.041  -1.954  0.00  0.00    +0.160 A 
ATOM     13  C   LIG    1       -2.618   1.426  -3.052  0.00  0.00    +0.000 A 
ATOM     14  C   LIG    1       -2.437   2.690  -3.615  0.00  0.00    +0.200 A 
ATOM     15  O   LIG    1       -4.384   1.544  -5.196  0.00  0.00    -0.510 OA
ENDBRANCH   1  11
BRANCH   1  16
ATOM     16  N   LIG    1       -0.875   1.865   1.354  0.00  0.00    -1.000 NA
ATOM     17  C   LIG    1       -0.677   3.186   1.972  0.00  0.00    +0.280 C 
ATOM     18  C   LIG    1       -2.056   3.839   2.158  0.00  0.00    +0.220 C 
ATOM     19  O   LIG    1       -2.914   2.933   2.857  0.00  0.00    -0.370 OA
ATOM     20  C   LIG    1       -3.170   1.713   2.157  0.00  0.00    +0.230 C 
ATOM     21  C   LIG    1       -1.852   0.953   1.968  0.00  0.00    +0.290 C 
BRANCH  20  22
ATOM     22  C   LIG    1       -4.129   0.867   2.954  0.00  0.00    -0.240 A 
ATOM     23  C   LIG    1       -5.088   0.058   2.447  0.00  0.00    +0.250 A 
ATOM     24  N   LIG    1       -5.726  -0.524   3.484  0.00  0.00    -0.370 N 
ATOM     25  N   LIG    1       -5.146  -0.050   4.668  0.00  0.00    -0.300 NA
ATOM     26  C   LIG    1       -6.834  -1.478   3.388  0.00  0.00    +0.360 C 
ATOM     27  C   LIG    1       -4.189   0.783   4.349  0.00  0.00    +0.270 A 
ENDBRANCH  20  22
ENDBRANCH   1  16
TORSDOF 3
