REMARK  Name = ZINCrH000004p20u.0
REMARK                            x       y       z     vdW  Elec       q    Type
REMARK                         _______ _______ _______ _____ _____    ______ ____
ROOT
ATOM      1  N   LIG    1        3.905   7.699   0.984  0.00  0.00    -0.500 NA
ATOM      2  C   LIG    1        2.579   7.767   0.355  0.00  0.00    +0.210 C 
ENDROOT
BRANCH   1   4
ATOM      3  C   LIG    1        4.462   5.734  -0.368  0.00  0.00    +0.020 C 
ATOM      4  C   LIG    1        4.388   6.313   1.046  0.00  0.00    +0.190 C 
BRANCH   4   5
ATOM      5  C   LIG    1        3.440   5.488   1.878  0.00  0.00    +0.520 C 
ATOM      6  N   LIG    1        3.682   4.177   2.075  0.00  0.00    -0.670 N 
ATOM      7  H   LIG    1        4.502   3.780   1.740  0.00  0.00    +0.410 HD
ATOM      8  O   LIG    1        2.459   6.004   2.370  0.00  0.00    -0.490 OA
BRANCH   6   9
ATOM      9  C   LIG    1        2.752   3.389   2.762  0.00  0.00    +0.140 A 
ATOM     10  C   LIG    1        2.547   2.068   2.384  0.00  0.00    +0.020 A 
ATOM     11  C   LIG    1        1.629   1.285   3.059  0.00  0.00    +0.040 A 
ATOM     12  C   LIG    1        0.914   1.808   4.116  0.00  0.00    +0.060 A 
ATOM     13  C   LIG    1        1.109   3.137   4.501  0.00  0.00    -0.010 A 
ATOM     14  C   LIG    1        2.035   3.927   3.820  0.00  0.00    +0.080 A 
BRANCH  13  15
ATOM     15  C   LIG    1        0.364   3.685   5.595  0.00  0.00    +0.250 C 
ATOM     16  N   LIG    1       -0.226   4.119   6.463  0.00  0.00    -0.410 NA
ENDBRANCH  13  15
ENDBRANCH   6   9
ENDBRANCH   4   5
ENDBRANCH   1   4
BRANCH   1  17
ATOM     17  C   LIG    1        4.866   8.560   0.280  0.00  0.00    +0.220 C 
BRANCH  17  18
ATOM     18  C   LIG    1        4.463  10.002   0.447  0.00  0.00    +0.510 C 
ATOM     19  N   LIG    1        5.203  10.978  -0.117  0.00  0.00    -0.680 N 
ATOM     20  H   LIG    1        5.947  10.749  -0.696  0.00  0.00    +0.410 HD
ATOM     21  O   LIG    1        3.474  10.286   1.089  0.00  0.00    -0.470 OA
BRANCH  19  22
ATOM     22  C   LIG    1        4.898  12.321   0.133  0.00  0.00    +0.160 A 
ATOM     23  C   LIG    1        3.604  12.790  -0.060  0.00  0.00    -0.020 A 
ATOM     24  C   LIG    1        3.305  14.115   0.193  0.00  0.00    +0.050 A 
ATOM     25  C   LIG    1        4.295  14.977   0.628  0.00  0.00    +0.050 A 
ATOM     26  C   LIG    1        5.585  14.516   0.817  0.00  0.00    +0.050 A 
ATOM     27 CL   LIG    1        2.363  11.710  -0.614  0.00  0.00    -0.030 Cl
ATOM     28  C   LIG    1        5.889  13.191   0.571  0.00  0.00    -0.040 A 
ATOM     29 CL   LIG    1        7.509  12.613   0.807  0.00  0.00    -0.050 Cl
ENDBRANCH  19  22
ENDBRANCH  17  18
ENDBRANCH   1  17
TORSDOF 7
