REMARK  Name = ZINCpk00001AZizU.1
REMARK                            x       y       z     vdW  Elec       q    Type
REMARK                         _______ _______ _______ _____ _____    ______ ____
ROOT
ATOM      1  C   LIG    1        5.049   1.309   0.026  0.00  0.00    +0.220 C 
ATOM      2  C   LIG    1        5.884   2.615   0.097  0.00  0.00    +0.090 C 
ATOM      3  C   LIG    1        7.183   2.193  -0.634  0.00  0.00    +0.300 C 
ATOM      4  N   LIG    1        6.734   1.305  -1.721  0.00  0.00    -0.610 N 
ATOM      5  C   LIG    1        7.404   1.062  -2.865  0.00  0.00    +0.580 C 
ATOM      6  O   LIG    1        8.423   1.676  -3.114  0.00  0.00    -0.520 OA
ATOM      7  C   LIG    1        5.433   0.722  -1.349  0.00  0.00    +0.270 C 
ENDROOT
BRANCH   5   8
ATOM      8  C   LIG    1        6.899   0.052  -3.816  0.00  0.00    -0.160 A 
ATOM      9  C   LIG    1        5.653  -0.550  -3.602  0.00  0.00    +0.080 A 
ATOM     10  C   LIG    1        5.174  -1.489  -4.488  0.00  0.00    -0.020 A 
ATOM     11  C   LIG    1        5.928  -1.856  -5.595  0.00  0.00    +0.190 A 
ATOM     12  C   LIG    1        7.184  -1.263  -5.817  0.00  0.00    -0.230 A 
ATOM     13  C   LIG    1        7.666  -0.307  -4.922  0.00  0.00    +0.170 A 
BRANCH  12  14
ATOM     14  C   LIG    1        7.984  -1.647  -6.987  0.00  0.00    +0.500 C 
ATOM     15  O   LIG    1        9.067  -1.134  -7.176  0.00  0.00    -0.450 OA
ENDBRANCH  12  14
BRANCH  11  16
ATOM     16  O   LIG    1        5.454  -2.785  -6.459  0.00  0.00    -0.490 OA
ATOM     17  H   LIG    1        5.702  -3.692  -6.236  0.00  0.00    +0.400 HD
ENDBRANCH  11  16
ENDBRANCH   5   8
BRANCH   1  21
ATOM     18  C   LIG    1        1.465   1.468   0.149  0.00  0.00    +0.180 A 
ATOM     19  N   LIG    1        1.807   2.721   0.169  0.00  0.00    -0.370 NA
ATOM     20  O   LIG    1        3.015   2.827   0.132  0.00  0.00    +0.090 OA
ATOM     21  C   LIG    1        3.575   1.615   0.083  0.00  0.00    +0.150 A 
ATOM     22  N   LIG    1        2.596   0.742   0.098  0.00  0.00    -0.470 NA
BRANCH  18  24
ATOM     23  C   LIG    1       -0.718   1.447  -1.028  0.00  0.00    +0.040 C 
ATOM     24  C   LIG    1        0.059   0.926   0.183  0.00  0.00    +0.090 C 
ATOM     25  C   LIG    1       -0.634   1.385   1.468  0.00  0.00    +0.040 C 
ENDBRANCH  18  24
ENDBRANCH   1  21
BRANCH   1  26
ATOM     26  O   LIG    1        5.419   0.415   1.078  0.00  0.00    -0.520 OA
ATOM     27  H   LIG    1        4.952  -0.432   1.056  0.00  0.00    +0.390 HD
ENDBRANCH   1  26
TORSDOF 6
