REMARK  Name = ZINCrH000004nhHk.0
REMARK                            x       y       z     vdW  Elec       q    Type
REMARK                         _______ _______ _______ _____ _____    ______ ____
ROOT
ATOM      1  S   LIG    1       -0.860   1.669   1.497  0.00  0.00    +0.110 S 
ENDROOT
BRANCH   1   6
ATOM      2  N   LIG    1        0.003   1.080   4.083  0.00  0.00    -0.400 N 
ATOM      3  C   LIG    1        1.026   0.378   4.682  0.00  0.00    +0.140 A 
ATOM      4  C   LIG    1        1.777  -0.139   3.694  0.00  0.00    +0.170 A 
ATOM      5  N   LIG    1        1.238   0.223   2.518  0.00  0.00    -0.490 NA
ATOM      6  C   LIG    1        0.174   0.961   2.735  0.00  0.00    +0.170 A 
BRANCH   2  11
ATOM      7  C   LIG    1       -2.762   1.868   6.385  0.00  0.00    +0.150 A 
ATOM      8  C   LIG    1       -3.041   3.177   6.019  0.00  0.00    -0.060 A 
ATOM      9  C   LIG    1       -2.312   3.786   5.016  0.00  0.00    +0.080 A 
ATOM     10  C   LIG    1       -1.300   3.095   4.377  0.00  0.00    -0.010 A 
ATOM     11  C   LIG    1       -1.020   1.783   4.735  0.00  0.00    +0.150 A 
ATOM     12  C   LIG    1       -1.751   1.170   5.742  0.00  0.00    -0.010 A 
BRANCH   7  14
ATOM     13  C   LIG    1       -4.506   2.049   7.991  0.00  0.00    +0.250 C 
ATOM     14  O   LIG    1       -3.479   1.270   7.372  0.00  0.00    -0.310 OA
ENDBRANCH   7  14
ENDBRANCH   2  11
ENDBRANCH   1   6
BRANCH   1  15
ATOM     15  C   LIG    1       -0.013   1.086   0.008  0.00  0.00    +0.160 C 
BRANCH  15  16
ATOM     16  C   LIG    1       -0.742   1.585  -1.213  0.00  0.00    +0.470 A 
ATOM     17  N   LIG    1       -1.810   2.313  -1.040  0.00  0.00    -0.590 NA
ATOM     18  C   LIG    1       -2.512   2.799  -2.081  0.00  0.00    +0.540 A 
ATOM     19  C   LIG    1       -2.047   2.477  -3.442  0.00  0.00    -0.210 A 
ATOM     20  C   LIG    1       -2.712   2.931  -4.578  0.00  0.00    +0.110 A 
ATOM     21  C   LIG    1       -2.229   2.597  -5.825  0.00  0.00    +0.000 A 
ATOM     22  C   LIG    1       -1.091   1.815  -5.953  0.00  0.00    +0.080 A 
ATOM     23  C   LIG    1       -0.421   1.358  -4.837  0.00  0.00    -0.130 A 
ATOM     24  C   LIG    1        0.814   0.509  -4.989  0.00  0.00    +0.100 C 
ATOM     25  C   LIG    1       -0.892   1.684  -3.572  0.00  0.00    +0.180 A 
ATOM     26  O   LIG    1       -3.506   3.482  -1.903  0.00  0.00    -0.470 OA
ATOM     27  N   LIG    1       -0.259   1.252  -2.423  0.00  0.00    -0.620 N 
ATOM     28  H   LIG    1        0.538   0.705  -2.489  0.00  0.00    +0.420 HD
ENDBRANCH  15  16
ENDBRANCH   1  15
TORSDOF 5
