REMARK  Name = ZINCrD00000741nz.0
REMARK                            x       y       z     vdW  Elec       q    Type
REMARK                         _______ _______ _______ _____ _____    ______ ____
ROOT
ATOM      1  C   LIG    1        2.381   1.409  -0.013  0.00  0.00    +0.200 A 
ATOM      2  C   LIG    1        2.396   0.020  -0.021  0.00  0.00    -0.020 A 
ATOM      3  C   LIG    1        1.207  -0.682  -0.013  0.00  0.00    +0.190 A 
ATOM      4  C   LIG    1        0.002  -0.004   0.002  0.00  0.00    -0.680 A 
ATOM      5  C   LIG    1       -0.017   1.379   0.010  0.00  0.00    +0.190 A 
ATOM      6  C   LIG    1        1.169   2.087   0.002  0.00  0.00    -0.180 A 
ENDROOT
BRANCH   1  10
ATOM      7  C   LIG    1        6.477   2.391   2.416  0.00  0.00    +0.070 C 
ATOM      8  C   LIG    1        5.631   2.711   1.183  0.00  0.00    +0.160 C 
ATOM      9  C   LIG    1        4.354   1.866   1.204  0.00  0.00    +0.190 C 
ATOM     10  N   LIG    1        3.582   2.122  -0.020  0.00  0.00    -0.520 N 
ATOM     11  C   LIG    1        4.378   1.802  -1.214  0.00  0.00    +0.180 C 
ATOM     12  C   LIG    1        5.654   2.647  -1.212  0.00  0.00    +0.220 C 
ATOM     13  O   LIG    1        6.376   2.409  -0.000  0.00  0.00    -0.370 OA
BRANCH  12  14
ATOM     14  C   LIG    1        6.512   2.268  -2.391  0.00  0.00    -0.090 A 
ATOM     15  C   LIG    1        7.305   1.137  -2.334  0.00  0.00    +0.030 A 
ATOM     16  C   LIG    1        8.088   0.786  -3.418  0.00  0.00    +0.000 A 
ATOM     17  C   LIG    1        8.087   1.573  -4.555  0.00  0.00    +0.010 A 
ATOM     18  C   LIG    1        7.298   2.706  -4.610  0.00  0.00    +0.010 A 
ATOM     19  C   LIG    1        6.510   3.054  -3.529  0.00  0.00    +0.020 A 
ENDBRANCH  12  14
ENDBRANCH   1  10
BRANCH   6  20
ATOM     20  C   LIG    1        1.147   3.594   0.010  0.00  0.00    +0.520 C 
ATOM     21  F   LIG    1        1.789   4.075  -1.136  0.00  0.00    -0.170 F 
ATOM     22  F   LIG    1        1.811   4.064   1.148  0.00  0.00    -0.170 F 
ATOM     23  F   LIG    1       -0.178   4.041   0.025  0.00  0.00    -0.180 F 
ENDBRANCH   6  20
BRANCH   4  24
ATOM     24  S   LIG    1       -1.513  -0.904   0.012  0.00  0.00    +2.710 S 
ATOM     25  O   LIG    1       -2.490  -0.037   0.571  0.00  0.00    -0.950 OA
ATOM     26  O   LIG    1       -1.214  -2.186   0.547  0.00  0.00    -0.960 OA
BRANCH  24  27
ATOM     27  N   LIG    1       -1.950  -1.146  -1.567  0.00  0.00    -1.250 NA
ATOM     28  H   LIG    1       -2.765  -1.627  -1.776  0.00  0.00    +0.420 HD
ATOM     29  H   LIG    1       -1.391  -0.805  -2.282  0.00  0.00    +0.420 HD
ENDBRANCH  24  27
ENDBRANCH   4  24
TORSDOF 5
