REMARK  Name = ZINCpe00000VVGlo.0
REMARK                            x       y       z     vdW  Elec       q    Type
REMARK                         _______ _______ _______ _____ _____    ______ ____
ROOT
ATOM      1  C   LIG    1       -1.187   1.624   0.017  0.00  0.00    +0.500 C 
ATOM      2  N   LIG    1       -0.011   0.966   0.007  0.00  0.00    -0.520 N 
ATOM      3  H   LIG    1        0.002  -0.004   0.002  0.00  0.00    +0.430 HD
ATOM      4  O   LIG    1       -1.204   2.837   0.023  0.00  0.00    -0.510 OA
ENDROOT
BRANCH   1  13
ATOM      5  C   LIG    1       -3.810   2.863   2.233  0.00  0.00    +0.080 C 
ATOM      6  C   LIG    1       -4.372   1.856   1.228  0.00  0.00    +0.170 C 
ATOM      7  C   LIG    1       -5.808   2.192   0.792  0.00  0.00    +0.090 C 
ATOM      8  C   LIG    1       -5.530   3.099  -0.432  0.00  0.00    +0.100 C 
ATOM      9  C   LIG    1       -4.176   2.652  -0.925  0.00  0.00    +0.550 C 
ATOM     10  O   LIG    1       -3.669   3.016  -1.965  0.00  0.00    -0.500 OA
ATOM     11  S   LIG    1       -4.258   0.122   1.820  0.00  0.00    -0.230 S 
ATOM     12  C   LIG    1       -2.512  -0.059   1.264  0.00  0.00    +0.170 C 
ATOM     13  C   LIG    1       -2.482   0.853   0.018  0.00  0.00    +0.270 C 
ATOM     14  N   LIG    1       -3.596   1.806  -0.036  0.00  0.00    -0.610 N 
ENDBRANCH   1  13
BRANCH   2  15
ATOM     15  N   LIG    1        1.193   1.683  -0.000  0.00  0.00    -0.520 N 
ATOM     16  H   LIG    1        1.179   2.653   0.005  0.00  0.00    +0.430 HD
ATOM     17  C   LIG    1        2.369   1.025  -0.015  0.00  0.00    +0.520 C 
ATOM     18  O   LIG    1        2.385  -0.188  -0.022  0.00  0.00    -0.510 OA
BRANCH  17  19
ATOM     19  C   LIG    1        3.663   1.796  -0.023  0.00  0.00    +0.250 C 
BRANCH  19  20
ATOM     20  O   LIG    1        4.762   0.882  -0.039  0.00  0.00    -0.280 OA
BRANCH  20  21
ATOM     21  C   LIG    1        6.011   1.419  -0.048  0.00  0.00    +0.090 A 
ATOM     22  C   LIG    1        6.176   2.795  -0.042  0.00  0.00    -0.040 A 
ATOM     23  C   LIG    1        7.446   3.339  -0.051  0.00  0.00    +0.050 A 
ATOM     24  C   LIG    1        8.554   2.512  -0.066  0.00  0.00    +0.020 A 
ATOM     25  C   LIG    1        8.394   1.138  -0.072  0.00  0.00    +0.030 A 
ATOM     26  C   LIG    1        7.125   0.589  -0.057  0.00  0.00    +0.080 A 
ATOM     27  F   LIG    1        6.969  -0.753  -0.057  0.00  0.00    -0.130 F 
ENDBRANCH  20  21
ENDBRANCH  19  20
ENDBRANCH  17  19
ENDBRANCH   2  15
TORSDOF 5
