REMARK  Name = ZINCqH0000004yR6.0
REMARK                            x       y       z     vdW  Elec       q    Type
REMARK                         _______ _______ _______ _____ _____    ______ ____
ROOT
ATOM      1  C   LIG    1        2.345   4.317   5.613  0.00  0.00    +0.210 A 
ATOM      2  C   LIG    1        2.513   4.300   4.242  0.00  0.00    -0.150 A 
ATOM      3  C   LIG    1        1.603   5.005   3.449  0.00  0.00    +0.450 A 
ATOM      4  N   LIG    1        0.605   5.655   4.037  0.00  0.00    -0.570 NA
ATOM      5  C   LIG    1        0.476   5.643   5.356  0.00  0.00    +0.400 A 
ATOM      6  N   LIG    1        1.327   4.987   6.132  0.00  0.00    -0.540 NA
ENDROOT
BRANCH   5   7
ATOM      7  C   LIG    1       -0.650   6.381   5.980  0.00  0.00    +0.000 A 
ATOM      8  C   LIG    1       -0.824   6.387   7.367  0.00  0.00    +0.030 A 
ATOM      9  C   LIG    1       -1.883   7.090   7.906  0.00  0.00    +0.250 A 
ATOM     10  N   LIG    1       -2.728   7.741   7.130  0.00  0.00    -0.470 NA
ATOM     11  C   LIG    1       -2.603   7.756   5.817  0.00  0.00    +0.250 A 
ATOM     12  C   LIG    1       -1.569   7.084   5.197  0.00  0.00    +0.020 A 
ENDBRANCH   5   7
BRANCH   1  14
ATOM     13  C   LIG    1        3.877   4.539   7.550  0.00  0.00    +0.040 C 
ATOM     14  C   LIG    1        3.305   3.576   6.508  0.00  0.00    +0.100 C 
ENDBRANCH   1  14
BRANCH   3  15
ATOM     15  N   LIG    1        1.735   5.019   2.070  0.00  0.00    -0.710 N 
ATOM     16  H   LIG    1        1.097   5.508   1.527  0.00  0.00    +0.400 HD
BRANCH  15  17
ATOM     17  C   LIG    1        2.840   4.298   1.433  0.00  0.00    +0.220 C 
ATOM     18  C   LIG    1        4.086   5.185   1.415  0.00  0.00    +0.030 C 
BRANCH  17  19
ATOM     19  C   LIG    1        2.451   3.936  -0.002  0.00  0.00    +0.280 C 
BRANCH  19  20
ATOM     20  C   LIG    1        1.156   3.166   0.007  0.00  0.00    -0.130 A 
ATOM     21  C   LIG    1        1.175   1.783   0.000  0.00  0.00    +0.060 A 
ATOM     22  C   LIG    1       -0.013   1.076   0.008  0.00  0.00    -0.010 A 
ATOM     23  C   LIG    1       -1.221   1.752   0.017  0.00  0.00    +0.100 A 
ATOM     24  C   LIG    1       -1.238   3.136   0.030  0.00  0.00    -0.010 A 
ATOM     25  F   LIG    1       -2.382   1.062   0.019  0.00  0.00    -0.140 F 
ATOM     26  C   LIG    1       -0.050   3.842   0.022  0.00  0.00    +0.050 A 
ENDBRANCH  19  20
BRANCH  19  27
ATOM     27  O   LIG    1        2.289   5.132  -0.768  0.00  0.00    -0.540 OA
ATOM     28  H   LIG    1        1.606   5.726  -0.429  0.00  0.00    +0.370 HD
ENDBRANCH  19  27
ENDBRANCH  17  19
ENDBRANCH  15  17
ENDBRANCH   3  15
TORSDOF 7
