REMARK  Name = ZINCpk00000xYKUR.0
REMARK                            x       y       z     vdW  Elec       q    Type
REMARK                         _______ _______ _______ _____ _____    ______ ____
ROOT
ATOM      1  N   LIG    1       -0.011   1.180  -2.438  0.00  0.00    -0.470 N 
ATOM      2  C   LIG    1       -0.729   1.626  -1.235  0.00  0.00    +0.180 C 
ATOM      3  C   LIG    1        0.004   1.117   0.009  0.00  0.00    +0.180 C 
ATOM      4  O   LIG    1        1.357   1.583  -0.018  0.00  0.00    -0.360 OA
ATOM      5  C   LIG    1        2.086   1.167  -1.176  0.00  0.00    +0.120 C 
ATOM      6  C   LIG    1        2.158  -0.361  -1.212  0.00  0.00    +0.030 C 
ATOM      7  C   LIG    1        3.502   1.744  -1.122  0.00  0.00    +0.060 C 
ATOM      8  C   LIG    1        1.373   1.675  -2.431  0.00  0.00    +0.200 C 
ENDROOT
BRANCH   1  14
ATOM      9  C   LIG    1       -0.787   4.514  -5.791  0.00  0.00    +0.170 C 
ATOM     10  C   LIG    1       -1.075   3.151  -5.216  0.00  0.00    +0.330 A 
ATOM     11  N   LIG    1       -1.949   2.373  -5.820  0.00  0.00    -0.520 NA
ATOM     12  C   LIG    1       -2.232   1.167  -5.347  0.00  0.00    +0.180 A 
ATOM     13  C   LIG    1       -1.596   0.726  -4.203  0.00  0.00    -0.180 A 
ATOM     14  C   LIG    1       -0.675   1.576  -3.587  0.00  0.00    +0.350 A 
ATOM     15  C   LIG    1       -1.889  -0.638  -3.634  0.00  0.00    +0.120 C 
ATOM     16  C   LIG    1       -3.234   0.287  -6.050  0.00  0.00    +0.150 C 
ATOM     17  N   LIG    1       -0.449   2.774  -4.119  0.00  0.00    -0.550 NA
ENDBRANCH   1  14
BRANCH   3  18
ATOM     18  C   LIG    1       -0.692   1.644   1.265  0.00  0.00    +0.200 C 
BRANCH  18  19
ATOM     19  O   LIG    1       -0.077   1.078   2.424  0.00  0.00    -0.350 OA
BRANCH  19  20
ATOM     20  C   LIG    1       -0.656   1.507   3.658  0.00  0.00    +0.210 C 
BRANCH  20  21
ATOM     21  C   LIG    1        0.067   0.852   4.807  0.00  0.00    +0.510 C 
ATOM     22  N   LIG    1       -0.309   1.110   6.075  0.00  0.00    -0.620 N 
ATOM     23  C   LIG    1       -1.421   2.027   6.337  0.00  0.00    +0.290 C 
ATOM     24  C   LIG    1        0.393   0.473   7.191  0.00  0.00    +0.300 C 
ATOM     25  O   LIG    1        0.987   0.092   4.590  0.00  0.00    -0.510 OA
ENDBRANCH  20  21
ENDBRANCH  19  20
ENDBRANCH  18  19
ENDBRANCH   3  18
TORSDOF 5
