REMARK  Name = ZINCpe000000WmEH.0
REMARK                            x       y       z     vdW  Elec       q    Type
REMARK                         _______ _______ _______ _____ _____    ______ ____
ROOT
ATOM      1  C   LIG    1       -5.802  -0.589   1.907  0.00  0.00    +0.570 C 
ATOM      2  N   LIG    1       -6.143  -1.630   1.122  0.00  0.00    -0.610 N 
ATOM      3  C   LIG    1       -7.471  -2.248   1.234  0.00  0.00    +0.280 C 
ATOM      4  C   LIG    1       -8.118  -2.270  -0.160  0.00  0.00    +0.000 C 
ATOM      5  C   LIG    1       -7.178  -2.974  -1.141  0.00  0.00    +0.250 C 
ATOM      6  C   LIG    1       -5.862  -2.199  -1.234  0.00  0.00    +0.030 C 
ATOM      7  C   LIG    1       -5.191  -2.173   0.143  0.00  0.00    +0.270 C 
ATOM      8  O   LIG    1       -6.564  -0.206   2.773  0.00  0.00    -0.520 OA
ENDROOT
BRANCH   1  12
ATOM      9  C   LIG    1       -2.064   1.356   1.345  0.00  0.00    +0.150 A 
ATOM     10  C   LIG    1       -2.763   0.859   0.251  0.00  0.00    -0.060 A 
ATOM     11  C   LIG    1       -3.971   0.224   0.429  0.00  0.00    +0.100 A 
ATOM     12  C   LIG    1       -4.506   0.085   1.714  0.00  0.00    -0.180 A 
ATOM     13  C   LIG    1       -3.805   0.591   2.818  0.00  0.00    +0.180 A 
ATOM     14  C   LIG    1       -2.585   1.225   2.628  0.00  0.00    +0.030 A 
BRANCH   9  16
ATOM     15  C   LIG    1       -0.393   2.077  -0.183  0.00  0.00    +0.250 C 
ATOM     16  O   LIG    1       -0.870   1.977   1.160  0.00  0.00    -0.300 OA
ENDBRANCH   9  16
BRANCH  13  17
ATOM     17  O   LIG    1       -4.317   0.461   4.069  0.00  0.00    -0.320 OA
ATOM     18  C   LIG    1       -5.051   1.572   4.588  0.00  0.00    +0.260 C 
ENDBRANCH  13  17
BRANCH  14  19
ATOM     19  O   LIG    1       -1.900   1.718   3.695  0.00  0.00    -0.320 OA
ATOM     20  C   LIG    1       -1.045   0.810   4.393  0.00  0.00    +0.240 C 
ENDBRANCH  14  19
ENDBRANCH   1  12
BRANCH   5  21
ATOM     21  N   LIG    1       -7.807  -3.030  -2.463  0.00  0.00    -1.120 NA
ATOM     22  H   LIG    1       -7.726  -2.278  -3.071  0.00  0.00    +0.420 HD
BRANCH  21  23
ATOM     23  S   LIG    1       -8.655  -4.376  -2.921  0.00  0.00    +2.610 S 
ATOM     24  O   LIG    1       -7.767  -5.455  -2.662  0.00  0.00    -0.950 OA
ATOM     25  O   LIG    1       -9.088  -4.085  -4.243  0.00  0.00    -0.960 OA
ATOM     26  C   LIG    1      -10.069  -4.428  -1.786  0.00  0.00    -0.290 C 
ENDBRANCH  21  23
ENDBRANCH   5  21
TORSDOF 6
