REMARK  Name = ZINCrD0000072b37.0
REMARK                            x       y       z     vdW  Elec       q    Type
REMARK                         _______ _______ _______ _____ _____    ______ ____
ROOT
ATOM      1  N   LIG    1       -3.939   6.210  -1.119  0.00  0.00    -0.740 N 
ATOM      2  H   LIG    1       -4.645   6.747  -1.512  0.00  0.00    +0.390 HD
ATOM      3  C   LIG    1       -2.648   6.494  -1.385  0.00  0.00    +0.710 C 
ATOM      4  N   LIG    1       -2.340   7.455  -2.278  0.00  0.00    -0.630 N 
ATOM      5  C   LIG    1       -0.943   7.704  -2.659  0.00  0.00    +0.300 C 
ATOM      6  C   LIG    1       -0.627   9.184  -2.453  0.00  0.00    +0.030 C 
ATOM      7  C   LIG    1       -1.647  10.032  -3.216  0.00  0.00    +0.010 C 
ATOM      8  C   LIG    1       -3.051   9.756  -2.673  0.00  0.00    +0.050 C 
ATOM      9  C   LIG    1       -3.395   8.279  -2.885  0.00  0.00    +0.260 C 
ATOM     10  O   LIG    1       -1.762   5.884  -0.819  0.00  0.00    -0.580 OA
ENDROOT
BRANCH   7  11
ATOM     11  C   LIG    1       -1.318  11.492  -3.039  0.00  0.00    +0.510 C 
ATOM     12  N   LIG    1       -0.126  11.969  -3.448  0.00  0.00    -0.660 N 
ATOM     13  H   LIG    1        0.492  11.389  -3.921  0.00  0.00    +0.420 HD
ATOM     14  O   LIG    1       -2.127  12.239  -2.529  0.00  0.00    -0.460 OA
BRANCH  12  15
ATOM     15  C   LIG    1        0.221  13.294  -3.190  0.00  0.00    +0.310 A 
ATOM     16  C   LIG    1        1.491  13.760  -3.517  0.00  0.00    +0.190 A 
ATOM     17  N   LIG    1        1.815  15.015  -3.272  0.00  0.00    -0.410 NA
ATOM     18  C   LIG    1        0.935  15.831  -2.717  0.00  0.00    +0.180 A 
ATOM     19  C   LIG    1       -0.328  15.372  -2.391  0.00  0.00    +0.260 A 
ATOM     20  N   LIG    1       -0.661  14.117  -2.638  0.00  0.00    -0.440 NA
ENDBRANCH  12  15
ENDBRANCH   7  11
BRANCH   1  21
ATOM     21  C   LIG    1       -4.275   5.090  -0.237  0.00  0.00    +0.320 C 
BRANCH  21  22
ATOM     22  C   LIG    1       -5.627   5.328   0.385  0.00  0.00    -0.100 A 
ATOM     23  C   LIG    1       -6.649   5.847  -0.297  0.00  0.00    -0.060 A 
ATOM     24  S   LIG    1       -8.054   5.977   0.753  0.00  0.00    +0.110 S 
ATOM     25  C   LIG    1       -7.147   5.299   2.099  0.00  0.00    -0.170 A 
ATOM     26  C   LIG    1       -7.694   5.064   3.484  0.00  0.00    +0.140 C 
ATOM     27  C   LIG    1       -5.901   5.030   1.709  0.00  0.00    +0.000 A 
ENDBRANCH  21  22
BRANCH  21  29
ATOM     28  C   LIG    1       -2.907   3.486  -1.578  0.00  0.00    +0.020 C 
ATOM     29  C   LIG    1       -4.309   3.793  -1.049  0.00  0.00    +0.000 C 
ENDBRANCH  21  29
ENDBRANCH   1  21
TORSDOF 5
