REMARK  Name = ZINCvU00000003YX.0
REMARK                            x       y       z     vdW  Elec       q    Type
REMARK                         _______ _______ _______ _____ _____    ______ ____
ROOT
ATOM      1  N   LIG    1       -2.087   0.991  -1.284  0.00  0.00    -0.740 N 
ATOM      2  H   LIG    1       -2.237   0.188  -1.807  0.00  0.00    +0.400 HD
ATOM      3  C   LIG    1       -3.107   1.552  -0.604  0.00  0.00    +0.520 C 
ATOM      4  O   LIG    1       -2.920   2.556   0.050  0.00  0.00    -0.520 OA
ENDROOT
BRANCH   1   5
ATOM      5  C   LIG    1       -0.753   1.593  -1.232  0.00  0.00    +0.370 C 
BRANCH   5   6
ATOM      6  C   LIG    1        0.019   1.211  -2.468  0.00  0.00    +0.270 A 
ATOM      7  N   LIG    1        1.266   1.510  -2.691  0.00  0.00    -0.470 NA
ATOM      8  C   LIG    1        1.647   1.012  -3.895  0.00  0.00    +0.050 A 
ATOM      9  C   LIG    1        2.846   1.035  -4.611  0.00  0.00    +0.070 A 
ATOM     10  C   LIG    1        2.920   0.433  -5.836  0.00  0.00    +0.000 A 
ATOM     11  C   LIG    1        1.813  -0.205  -6.378  0.00  0.00    +0.030 A 
ATOM     12  C   LIG    1        0.619  -0.240  -5.689  0.00  0.00    +0.010 A 
ATOM     13  C   LIG    1        0.526   0.366  -4.444  0.00  0.00    +0.050 A 
ATOM     14  N   LIG    1       -0.488   0.509  -3.518  0.00  0.00    -0.600 N 
ATOM     15  H   LIG    1       -1.393   0.172  -3.600  0.00  0.00    +0.420 HD
ENDBRANCH   5   6
BRANCH   5  16
ATOM     16  C   LIG    1       -0.013   1.086   0.008  0.00  0.00    +0.070 C 
BRANCH  16  17
ATOM     17  C   LIG    1       -0.729   1.579   1.267  0.00  0.00    +0.100 C 
BRANCH  17  19
ATOM     18  C   LIG    1       -0.834   1.655   4.103  0.00  0.00    +0.140 C 
ATOM     19  S   LIG    1        0.148   0.978   2.736  0.00  0.00    -0.270 S 
ENDBRANCH  17  19
ENDBRANCH  16  17
ENDBRANCH   5  16
ENDBRANCH   1   5
BRANCH   3  20
ATOM     20  C   LIG    1       -4.480   0.933  -0.658  0.00  0.00    +0.060 C 
BRANCH  20  21
ATOM     21  C   LIG    1       -5.446   1.759   0.193  0.00  0.00    +0.060 C 
BRANCH  21  22
ATOM     22  C   LIG    1       -6.840   1.131   0.139  0.00  0.00    +0.180 C 
BRANCH  22  23
ATOM     23  O   LIG    1       -7.742   1.903   0.934  0.00  0.00    -0.310 OA
BRANCH  23  24
ATOM     24  C   LIG    1       -9.031   1.477   0.993  0.00  0.00    +0.120 A 
ATOM     25  C   LIG    1       -9.421   0.343   0.296  0.00  0.00    -0.080 A 
ATOM     26  C   LIG    1      -10.731  -0.091   0.362  0.00  0.00    +0.050 A 
ATOM     27  C   LIG    1      -11.655   0.610   1.114  0.00  0.00    -0.110 A 
ATOM     28  C   LIG    1      -11.271   1.744   1.805  0.00  0.00    +0.050 A 
ATOM     29  C   LIG    1       -9.961   2.179   1.746  0.00  0.00    -0.020 A 
BRANCH  27  30
ATOM     30  C   LIG    1      -13.085   0.138   1.179  0.00  0.00    -0.030 C 
ATOM     31  C   LIG    1      -13.454  -0.171   2.632  0.00  0.00    +0.040 C 
ATOM     32  C   LIG    1      -13.244  -1.127   0.333  0.00  0.00    +0.030 C 
ATOM     33  C   LIG    1      -14.009   1.232   0.640  0.00  0.00    +0.040 C 
ENDBRANCH  27  30
ENDBRANCH  23  24
ENDBRANCH  22  23
ENDBRANCH  21  22
ENDBRANCH  20  21
ENDBRANCH   3  20
TORSDOF 11
