REMARK  Name = ZINCbw0000001MYN.0
REMARK                            x       y       z     vdW  Elec       q    Type
REMARK                         _______ _______ _______ _____ _____    ______ ____
ROOT
ATOM      1 CL   LIG    1        1.748   3.477   0.004  0.00  0.00    -0.030 Cl
ATOM      2  C   LIG    1        1.262   1.811  -0.000  0.00  0.00    -0.070 A 
ATOM      3  C   LIG    1       -0.016   1.352   0.009  0.00  0.00    +0.190 A 
ATOM      4  N   LIG    1        0.002  -0.004   0.002  0.00  0.00    -0.330 N 
ATOM      5  C   LIG    1       -0.993  -0.955   0.007  0.00  0.00    +0.190 A 
ATOM      6  C   LIG    1       -0.670  -2.261  -0.004  0.00  0.00    +0.240 A 
ATOM      7  N   LIG    1        0.606  -2.666  -0.018  0.00  0.00    -0.470 NA
ATOM      8  C   LIG    1        1.597  -1.805  -0.023  0.00  0.00    +0.260 A 
ATOM      9 CL   LIG    1        3.240  -2.364  -0.041  0.00  0.00    +0.010 Cl
ATOM     10  C   LIG    1        1.319  -0.423  -0.013  0.00  0.00    -0.020 A 
ATOM     11  C   LIG    1        2.117   0.706  -0.014  0.00  0.00    +0.040 A 
ENDROOT
TORSDOF 0
