REMARK  Name = ZINCtV000002PoCB.0
REMARK                            x       y       z     vdW  Elec       q    Type
REMARK                         _______ _______ _______ _____ _____    ______ ____
ROOT
ATOM      1  O   LIG    1       -5.257   4.688  -0.554  0.00  0.00    -0.450 OA
ATOM      2  C   LIG    1       -4.499   3.824  -0.157  0.00  0.00    +0.570 C 
ATOM      3  N   LIG    1       -3.431   4.159   0.594  0.00  0.00    -0.510 N 
ENDROOT
BRANCH   2   4
ATOM      4  C   LIG    1       -4.750   2.408  -0.495  0.00  0.00    -0.100 A 
ATOM      5  C   LIG    1       -5.008   2.038  -1.816  0.00  0.00    +0.090 A 
ATOM      6  C   LIG    1       -5.236   0.713  -2.127  0.00  0.00    +0.040 A 
ATOM      7  C   LIG    1       -5.220  -0.247  -1.132  0.00  0.00    +0.050 A 
ATOM      8  C   LIG    1       -4.971   0.113   0.182  0.00  0.00    -0.040 A 
ATOM      9 CL   LIG    1       -4.953  -1.099   1.425  0.00  0.00    -0.060 Cl
ATOM     10  C   LIG    1       -4.736   1.434   0.506  0.00  0.00    +0.050 A 
ENDBRANCH   2   4
BRANCH   3  11
ATOM     11  C   LIG    1       -3.264   5.470   1.018  0.00  0.00    +0.310 A 
ATOM     12  N   LIG    1       -4.069   6.452   0.755  0.00  0.00    -0.440 NA
ATOM     13  C   LIG    1       -3.750   7.641   1.245  0.00  0.00    +0.130 A 
ATOM     14  C   LIG    1       -2.614   7.681   1.965  0.00  0.00    -0.070 A 
ATOM     15  S   LIG    1       -1.929   6.058   2.006  0.00  0.00    +0.080 S 
BRANCH  13  16
ATOM     16  C   LIG    1       -4.586   8.844   1.016  0.00  0.00    -0.020 A 
ATOM     17  C   LIG    1       -4.207  10.072   1.553  0.00  0.00    +0.060 A 
ATOM     18  C   LIG    1       -4.988  11.189   1.337  0.00  0.00    +0.030 A 
ATOM     19  C   LIG    1       -6.147  11.091   0.587  0.00  0.00    -0.020 A 
ATOM     20  C   LIG    1       -6.530   9.873   0.050  0.00  0.00    +0.040 A 
ATOM     21 CL   LIG    1       -7.125  12.500   0.318  0.00  0.00    -0.060 Cl
ATOM     22  C   LIG    1       -5.752   8.751   0.256  0.00  0.00    -0.010 A 
ATOM     23 CL   LIG    1       -6.229   7.226  -0.423  0.00  0.00    +0.010 Cl
ENDBRANCH  13  16
ENDBRANCH   3  11
BRANCH   3  24
ATOM     24  C   LIG    1       -2.445   3.139   0.961  0.00  0.00    +0.310 C 
BRANCH  24  25
ATOM     25  C   LIG    1       -1.282   3.172  -0.033  0.00  0.00    +0.140 C 
ATOM     26  C   LIG    1       -0.271   2.032   0.264  0.00  0.00    +0.020 C 
ATOM     27  C   LIG    1        0.400   1.831  -1.117  0.00  0.00    +0.010 C 
ATOM     28  C   LIG    1       -0.603   2.433  -2.120  0.00  0.00    +0.200 C 
ATOM     29  O   LIG    1       -1.745   2.876  -1.368  0.00  0.00    -0.360 OA
ENDBRANCH  24  25
ENDBRANCH   3  24
TORSDOF 5
