REMARK  Name = ZINCvU0000000DqA.0
REMARK                            x       y       z     vdW  Elec       q    Type
REMARK                         _______ _______ _______ _____ _____    ______ ____
ROOT
ATOM      1  C   LIG    1        3.871  -1.247   0.766  0.00  0.00    +0.200 A 
ATOM      2  C   LIG    1        5.073  -0.558   0.670  0.00  0.00    +0.020 A 
ATOM      3  C   LIG    1        5.975  -0.877  -0.325  0.00  0.00    +0.050 A 
ATOM      4  C   LIG    1        5.686  -1.875  -1.240  0.00  0.00    -0.010 A 
ATOM      5  C   LIG    1        4.495  -2.566  -1.163  0.00  0.00    +0.060 A 
ATOM      6  C   LIG    1        3.575  -2.259  -0.159  0.00  0.00    -0.160 A 
ENDROOT
BRANCH   6   7
ATOM      7  C   LIG    1        2.299  -2.995  -0.071  0.00  0.00    +0.560 C 
ATOM      8  N   LIG    1        2.299  -4.342  -0.043  0.00  0.00    -0.610 N 
ATOM      9  C   LIG    1        3.551  -5.101  -0.185  0.00  0.00    +0.290 C 
ATOM     10  C   LIG    1        3.639  -6.108   0.972  0.00  0.00    +0.190 C 
ATOM     11  N   LIG    1        2.418  -6.925   0.996  0.00  0.00    -0.480 N 
ATOM     12  C   LIG    1        1.231  -6.102   1.263  0.00  0.00    +0.180 C 
ATOM     13  C   LIG    1        1.046  -5.094   0.124  0.00  0.00    +0.300 C 
ATOM     14  O   LIG    1        1.248  -2.386  -0.024  0.00  0.00    -0.530 OA
BRANCH  11  15
ATOM     15  C   LIG    1        2.528  -7.962   1.925  0.00  0.00    +0.120 A 
ATOM     16  C   LIG    1        3.587  -8.857   1.847  0.00  0.00    -0.010 A 
ATOM     17  C   LIG    1        3.693  -9.882   2.768  0.00  0.00    +0.060 A 
ATOM     18  C   LIG    1        2.747 -10.017   3.767  0.00  0.00    -0.010 A 
ATOM     19  C   LIG    1        1.690  -9.126   3.848  0.00  0.00    -0.010 A 
ATOM     20 CL   LIG    1        0.504  -9.299   5.104  0.00  0.00    -0.070 Cl
ATOM     21  C   LIG    1        1.581  -8.096   2.933  0.00  0.00    -0.020 A 
ENDBRANCH  11  15
ENDBRANCH   6   7
BRANCH   1  24
ATOM     22  O   LIG    1        3.616   1.192   1.791  0.00  0.00    -0.480 OA
ATOM     23  C   LIG    1        2.864   0.337   2.218  0.00  0.00    +0.550 C 
ATOM     24  N   LIG    1        2.962  -0.931   1.773  0.00  0.00    -0.660 N 
ATOM     25  H   LIG    1        2.400  -1.624   2.153  0.00  0.00    +0.410 HD
BRANCH  23  26
ATOM     26  C   LIG    1        1.841   0.690   3.224  0.00  0.00    -0.120 A 
ATOM     27  C   LIG    1        0.975  -0.289   3.716  0.00  0.00    +0.050 A 
ATOM     28  C   LIG    1        0.019   0.048   4.651  0.00  0.00    +0.030 A 
ATOM     29  C   LIG    1       -0.077   1.350   5.110  0.00  0.00    +0.060 A 
ATOM     30  C   LIG    1        0.777   2.325   4.627  0.00  0.00    +0.040 A 
ATOM     31  C   LIG    1        1.735   2.003   3.687  0.00  0.00    -0.040 A 
ATOM     32 BR   LIG    1        2.903   3.337   3.029  0.00  0.00    -0.010 Br
ENDBRANCH  23  26
ENDBRANCH   1  24
TORSDOF 4
