REMARK  Name = ZINCpe000000Y73q.0
REMARK                            x       y       z     vdW  Elec       q    Type
REMARK                         _______ _______ _______ _____ _____    ______ ____
ROOT
ATOM      1  N   LIG    1        5.989  -0.950  -1.446  0.00  0.00    -0.550 NA
ATOM      2  C   LIG    1        5.387  -2.096  -2.163  0.00  0.00    +0.190 C 
ATOM      3  C   LIG    1        5.351  -1.773  -3.636  0.00  0.00    +0.020 C 
ATOM      4  C   LIG    1        6.601  -2.284  -4.370  0.00  0.00    +0.190 C 
ATOM      5  N   LIG    1        7.843  -2.060  -3.596  0.00  0.00    -0.540 NA
ATOM      6  C   LIG    1        7.904  -0.769  -2.949  0.00  0.00    +0.190 C 
ATOM      7  C   LIG    1        7.387  -0.911  -1.504  0.00  0.00    +0.180 C 
ENDROOT
BRANCH   1   8
ATOM      8  C   LIG    1        5.517  -0.892  -0.056  0.00  0.00    +0.240 C 
BRANCH   8  16
ATOM      9  C   LIG    1        1.597   3.312   0.005  0.00  0.00    +0.170 C 
ATOM     10  C   LIG    1        1.200   1.858   0.001  0.00  0.00    +0.110 A 
ATOM     11  N   LIG    1       -0.017   1.394   0.010  0.00  0.00    -0.240 NA
ATOM     12  N   LIG    1        0.002  -0.004   0.002  0.00  0.00    -0.400 N 
ATOM     13  C   LIG    1        1.300  -0.437  -0.013  0.00  0.00    +0.310 A 
ATOM     14  N   LIG    1        1.864  -1.639  -0.025  0.00  0.00    -0.500 NA
ATOM     15  C   LIG    1        3.171  -1.784  -0.039  0.00  0.00    +0.340 A 
ATOM     16  C   LIG    1        4.024  -0.689  -0.040  0.00  0.00    -0.170 A 
ATOM     17  C   LIG    1        3.501   0.578  -0.028  0.00  0.00    +0.170 A 
ATOM     18  C   LIG    1       -1.181  -0.869   0.009  0.00  0.00    +0.360 C 
ATOM     19  C   LIG    1        2.109   0.717  -0.014  0.00  0.00    -0.220 A 
ENDBRANCH   8  16
ENDBRANCH   1   8
BRANCH   5  20
ATOM     20  C   LIG    1        9.031  -2.288  -4.430  0.00  0.00    +0.210 C 
BRANCH  20  21
ATOM     21  C   LIG    1        9.056  -3.723  -4.889  0.00  0.00    +0.510 C 
ATOM     22  N   LIG    1       10.061  -4.163  -5.671  0.00  0.00    -0.630 N 
ATOM     23  C   LIG    1       11.130  -3.247  -6.076  0.00  0.00    +0.280 C 
ATOM     24  C   LIG    1       10.085  -5.559  -6.117  0.00  0.00    +0.280 C 
ATOM     25  O   LIG    1        8.171  -4.482  -4.554  0.00  0.00    -0.520 OA
ENDBRANCH  20  21
ENDBRANCH   5  20
TORSDOF 4
