REMARK  Name = ZINC550000003ZOH.0
REMARK                            x       y       z     vdW  Elec       q    Type
REMARK                         _______ _______ _______ _____ _____    ______ ____
ROOT
ATOM      1  C   LIG    1       -0.013   1.086   0.008  0.00  0.00    -0.240 C 
ATOM      2  S   LIG    1       -0.862   1.671   1.500  0.00  0.00    +2.590 S 
ATOM      3  F   LIG    1       -2.398   1.243   1.282  0.00  0.00    -0.480 F 
ATOM      4  O   LIG    1       -0.894   3.091   1.531  0.00  0.00    -0.930 OA
ATOM      5  O   LIG    1       -0.448   0.922   2.635  0.00  0.00    -0.930 OA
ENDROOT
TORSDOF 0
