REMARK  Name = ZINCtV000002vMkA.0
REMARK                            x       y       z     vdW  Elec       q    Type
REMARK                         _______ _______ _______ _____ _____    ______ ____
ROOT
ATOM      1  C   LIG    1       -1.338  -0.698  -0.030  0.00  0.00    +0.290 C 
ENDROOT
BRANCH   1   2
ATOM      2  C   LIG    1       -0.031   0.052  -0.028  0.00  0.00    -0.090 A 
ATOM      3  C   LIG    1       -0.027   1.434  -0.077  0.00  0.00    +0.040 A 
ATOM      4  C   LIG    1        1.170   2.123  -0.075  0.00  0.00    +0.000 A 
ATOM      5  C   LIG    1        2.369   1.428  -0.023  0.00  0.00    +0.090 A 
ATOM      6  C   LIG    1        2.363   0.041   0.027  0.00  0.00    +0.010 A 
ATOM      7  C   LIG    1        1.163  -0.644   0.024  0.00  0.00    +0.040 A 
BRANCH   5   8
ATOM      8  O   LIG    1        3.548   2.103  -0.020  0.00  0.00    -0.260 OA
BRANCH   8   9
ATOM      9  C   LIG    1        3.848   2.859   1.069  0.00  0.00    +0.120 A 
ATOM     10  C   LIG    1        3.022   2.830   2.183  0.00  0.00    -0.060 A 
ATOM     11  C   LIG    1        3.331   3.596   3.291  0.00  0.00    +0.050 A 
ATOM     12  C   LIG    1        4.457   4.398   3.285  0.00  0.00    -0.020 A 
ATOM     13  C   LIG    1        5.279   4.434   2.174  0.00  0.00    +0.050 A 
ATOM     14  C   LIG    1        4.977   3.666   1.066  0.00  0.00    -0.010 A 
ENDBRANCH   8   9
ENDBRANCH   5   8
ENDBRANCH   1   2
BRANCH   1  15
ATOM     15  N   LIG    1       -1.256  -1.826   0.901  0.00  0.00    -0.730 N 
ATOM     16  H   LIG    1       -0.393  -2.213   1.119  0.00  0.00    +0.400 HD
BRANCH  15  17
ATOM     17  C   LIG    1       -2.428  -2.349   1.479  0.00  0.00    +0.090 A 
ATOM     18  C   LIG    1       -2.495  -3.385   2.351  0.00  0.00    +0.140 A 
ATOM     19  N   LIG    1       -3.808  -3.572   2.666  0.00  0.00    -0.330 N 
ATOM     20  N   LIG    1       -4.557  -2.621   1.963  0.00  0.00    -0.260 NA
ATOM     21  C   LIG    1       -3.735  -1.886   1.259  0.00  0.00    +0.220 A 
BRANCH  19  22
ATOM     22  C   LIG    1       -4.316  -4.542   3.537  0.00  0.00    +0.220 A 
ATOM     23  C   LIG    1       -3.467  -5.442   4.178  0.00  0.00    -0.060 A 
ATOM     24  C   LIG    1       -4.007  -6.381   5.033  0.00  0.00    +0.300 A 
ATOM     25  N   LIG    1       -5.309  -6.439   5.238  0.00  0.00    -0.500 NA
ATOM     26  C   LIG    1       -6.146  -5.607   4.646  0.00  0.00    +0.300 A 
ATOM     27  C   LIG    1       -5.684  -4.636   3.781  0.00  0.00    -0.030 A 
ENDBRANCH  19  22
ENDBRANCH  15  17
ENDBRANCH   1  15
BRANCH   1  28
ATOM     28  C   LIG    1       -1.625  -1.219  -1.439  0.00  0.00    +0.010 C 
BRANCH  28  30
ATOM     29  C   LIG    1       -3.295  -2.393  -2.880  0.00  0.00    +0.000 C 
ATOM     30  C   LIG    1       -3.008  -1.871  -1.470  0.00  0.00    +0.000 C 
ENDBRANCH  28  30
ENDBRANCH   1  28
TORSDOF 8
