REMARK  Name = ZINCrH000004uvfW.0
REMARK                            x       y       z     vdW  Elec       q    Type
REMARK                         _______ _______ _______ _____ _____    ______ ____
ROOT
ATOM      1  O   LIG    1       -2.083   6.711   0.288  0.00  0.00    -0.570 OA
ATOM      2  C   LIG    1       -1.589   6.894  -0.808  0.00  0.00    +0.710 C 
ATOM      3  N   LIG    1       -0.352   6.429  -1.076  0.00  0.00    -0.730 N 
ATOM      4  H   LIG    1        0.042   6.574  -1.950  0.00  0.00    +0.400 HD
ATOM      5  N   LIG    1       -2.277   7.561  -1.755  0.00  0.00    -0.740 N 
ATOM      6  H   LIG    1       -1.883   7.707  -2.629  0.00  0.00    +0.400 HD
ENDROOT
BRANCH   3   7
ATOM      7  C   LIG    1        0.396   5.703  -0.046  0.00  0.00    +0.270 C 
ATOM      8  C   LIG    1        1.911   5.735  -0.356  0.00  0.00    +0.070 C 
ATOM      9  C   LIG    1        2.356   4.330   0.114  0.00  0.00    +0.270 C 
ATOM     10  N   LIG    1        1.159   3.487   0.009  0.00  0.00    -0.560 N 
ATOM     11  C   LIG    1        0.043   4.232  -0.073  0.00  0.00    +0.500 C 
ATOM     12  O   LIG    1       -1.083   3.790  -0.156  0.00  0.00    -0.480 OA
BRANCH  10  13
ATOM     13  C   LIG    1        1.176   2.087   0.002  0.00  0.00    +0.170 A 
ATOM     14  C   LIG    1       -0.016   1.377   0.025  0.00  0.00    +0.050 A 
ATOM     15  C   LIG    1        0.002  -0.004   0.017  0.00  0.00    +0.040 A 
ATOM     16  C   LIG    1        1.209  -0.681  -0.013  0.00  0.00    +0.080 A 
ATOM     17  C   LIG    1        2.402   0.025  -0.036  0.00  0.00    -0.050 A 
ATOM     18 CL   LIG    1        3.914  -0.826  -0.074  0.00  0.00    -0.040 Cl
ATOM     19  F   LIG    1        1.225  -2.032  -0.021  0.00  0.00    -0.130 F 
ATOM     20  C   LIG    1        2.387   1.407  -0.029  0.00  0.00    +0.020 A 
ENDBRANCH  10  13
ENDBRANCH   3   7
BRANCH   5  21
ATOM     21  C   LIG    1       -3.621   8.067  -1.463  0.00  0.00    +0.280 C 
BRANCH  21  22
ATOM     22  C   LIG    1       -4.176   8.781  -2.698  0.00  0.00    -0.010 C 
ATOM     23  C   LIG    1       -4.361   7.770  -3.831  0.00  0.00    +0.020 C 
ATOM     24  C   LIG    1       -5.833   7.731  -4.245  0.00  0.00    -0.020 C 
ATOM     25  C   LIG    1       -6.265   9.119  -4.724  0.00  0.00    +0.010 C 
ATOM     26  C   LIG    1       -6.080  10.130  -3.590  0.00  0.00    +0.010 C 
ATOM     27  C   LIG    1       -6.689   7.316  -3.047  0.00  0.00    +0.010 C 
ATOM     28  C   LIG    1       -6.504   8.327  -1.913  0.00  0.00    +0.010 C 
ATOM     29  C   LIG    1       -5.525   9.416  -2.356  0.00  0.00    -0.010 C 
ENDBRANCH  21  22
ENDBRANCH   5  21
TORSDOF 4
