REMARK  Name = ZINCrH000004lrZM.0
REMARK                            x       y       z     vdW  Elec       q    Type
REMARK                         _______ _______ _______ _____ _____    ______ ____
ROOT
ATOM      1  N   LIG    1       -0.690   1.551  -1.209  0.00  0.00    -0.470 N 
ATOM      2  C   LIG    1       -1.711   0.886  -1.843  0.00  0.00    +0.130 A 
ATOM      3  C   LIG    1       -2.354  -0.327  -1.605  0.00  0.00    +0.000 A 
ATOM      4  C   LIG    1       -3.368  -0.738  -2.418  0.00  0.00    +0.060 A 
ATOM      5  C   LIG    1       -3.781   0.051  -3.500  0.00  0.00    -0.170 A 
ATOM      6  C   LIG    1       -3.156   1.269  -3.754  0.00  0.00    +0.150 A 
ATOM      7  C   LIG    1       -2.122   1.692  -2.924  0.00  0.00    -0.110 A 
ATOM      8  C   LIG    1       -1.263   2.879  -2.892  0.00  0.00    -0.160 A 
ATOM      9  C   LIG    1       -1.305   4.042  -3.850  0.00  0.00    +0.130 C 
ATOM     10  C   LIG    1       -0.433   2.733  -1.848  0.00  0.00    +0.070 A 
ATOM     11  C   LIG    1        0.625   3.726  -1.439  0.00  0.00    +0.140 C 
ENDROOT
BRANCH   5  12
ATOM     12  C   LIG    1       -4.880  -0.410  -4.372  0.00  0.00    +0.570 C 
ATOM     13  N   LIG    1       -5.485  -1.589  -4.127  0.00  0.00    -0.670 N 
ATOM     14  H   LIG    1       -5.157  -2.165  -3.419  0.00  0.00    +0.400 HD
ATOM     15  O   LIG    1       -5.239   0.274  -5.311  0.00  0.00    -0.520 OA
BRANCH  13  16
ATOM     16  C   LIG    1       -6.588  -1.983  -4.896  0.00  0.00    +0.110 A 
ATOM     17  C   LIG    1       -6.654  -1.649  -6.239  0.00  0.00    +0.040 A 
ATOM     18  C   LIG    1       -7.745  -2.045  -6.999  0.00  0.00    +0.090 A 
ATOM     19  C   LIG    1       -8.775  -2.764  -6.413  0.00  0.00    -0.040 A 
ATOM     20  C   LIG    1       -8.716  -3.095  -5.072  0.00  0.00    -0.010 A 
ATOM     21  C   LIG    1       -7.626  -2.707  -4.309  0.00  0.00    +0.160 A 
BRANCH  21  22
ATOM     22  N   LIG    1       -7.566  -3.042  -2.949  0.00  0.00    -0.880 N 
ATOM     23  H   LIG    1       -8.289  -3.545  -2.541  0.00  0.00    +0.400 HD
ATOM     24  H   LIG    1       -6.803  -2.770  -2.415  0.00  0.00    +0.390 HD
ENDBRANCH  21  22
BRANCH  18  25
ATOM     25  O   LIG    1       -7.806  -1.722  -8.319  0.00  0.00    -0.320 OA
ATOM     26  C   LIG    1       -8.961  -2.156  -9.039  0.00  0.00    +0.230 C 
ENDBRANCH  18  25
ENDBRANCH  13  16
ENDBRANCH   5  12
BRANCH   1  27
ATOM     27  C   LIG    1        0.024   1.063  -0.026  0.00  0.00    +0.310 C 
BRANCH  27  28
ATOM     28  C   LIG    1       -0.682   1.560   1.237  0.00  0.00    +0.170 C 
BRANCH  28  30
ATOM     29  C   LIG    1       -0.567   1.493   3.630  0.00  0.00    +0.200 C 
ATOM     30  O   LIG    1        0.014   1.083   2.391  0.00  0.00    -0.390 OA
ENDBRANCH  28  30
ENDBRANCH  27  28
ENDBRANCH   1  27
TORSDOF 7
