REMARK  Name = ZINCrH000004sQ3R.0
REMARK                            x       y       z     vdW  Elec       q    Type
REMARK                         _______ _______ _______ _____ _____    ______ ____
ROOT
ATOM      1  C   LIG    1       -5.774   5.122   0.046  0.00  0.00    +0.210 C 
ATOM      2  C   LIG    1       -5.173   3.740   0.038  0.00  0.00    +0.160 A 
ATOM      3  N   LIG    1       -5.785   2.637  -0.270  0.00  0.00    -0.270 NA
ATOM      4  O   LIG    1       -4.890   1.549  -0.161  0.00  0.00    -0.080 OA
ATOM      5  C   LIG    1       -3.680   2.000   0.229  0.00  0.00    +0.300 A 
ATOM      6  N   LIG    1       -2.528   1.398   0.471  0.00  0.00    -0.460 NA
ATOM      7  C   LIG    1       -1.453   2.069   0.852  0.00  0.00    +0.250 A 
ATOM      8  C   LIG    1       -1.483   3.455   1.024  0.00  0.00    -0.020 A 
ATOM      9  C   LIG    1       -2.669   4.142   0.779  0.00  0.00    +0.000 A 
ATOM     10  C   LIG    1       -3.793   3.394   0.374  0.00  0.00    -0.210 A 
ENDROOT
BRANCH   7  11
ATOM     11  C   LIG    1       -0.191   1.334   1.108  0.00  0.00    -0.070 A 
ATOM     12  C   LIG    1        0.953   2.025   1.505  0.00  0.00    +0.040 A 
ATOM     13  C   LIG    1        2.127   1.336   1.736  0.00  0.00    +0.010 A 
ATOM     14  C   LIG    1        2.169  -0.037   1.575  0.00  0.00    +0.030 A 
ATOM     15  C   LIG    1        1.037  -0.728   1.181  0.00  0.00    +0.000 A 
ATOM     16  C   LIG    1       -0.142  -0.050   0.947  0.00  0.00    +0.070 A 
ENDBRANCH   7  11
BRANCH   9  17
ATOM     17  C   LIG    1       -2.748   5.611   0.943  0.00  0.00    +0.560 C 
ATOM     18  N   LIG    1       -1.638   6.317   1.237  0.00  0.00    -0.710 N 
ATOM     19  H   LIG    1       -0.787   5.862   1.341  0.00  0.00    +0.400 HD
ATOM     20  O   LIG    1       -3.813   6.181   0.813  0.00  0.00    -0.510 OA
BRANCH  18  21
ATOM     21  C   LIG    1       -1.716   7.771   1.400  0.00  0.00    +0.290 C 
BRANCH  21  22
ATOM     22  C   LIG    1       -0.327   8.323   1.727  0.00  0.00    +0.180 C 
BRANCH  22  23
ATOM     23  O   LIG    1        0.544   8.113   0.614  0.00  0.00    -0.380 OA
BRANCH  23  24
ATOM     24  C   LIG    1        1.873   8.595   0.817  0.00  0.00    +0.170 C 
BRANCH  24  25
ATOM     25  C   LIG    1        2.712   8.319  -0.433  0.00  0.00    -0.010 C 
ATOM     26  C   LIG    1        3.342   6.916  -0.454  0.00  0.00    +0.020 C 
ATOM     27  C   LIG    1        4.604   7.579  -1.034  0.00  0.00    +0.010 C 
ATOM     28  C   LIG    1        4.143   8.877  -0.349  0.00  0.00    +0.020 C 
ENDBRANCH  24  25
ENDBRANCH  23  24
ENDBRANCH  22  23
ENDBRANCH  21  22
ENDBRANCH  18  21
ENDBRANCH   9  17
TORSDOF 7
