REMARK  Name = ZINCrg00000SjSKw.0
REMARK                            x       y       z     vdW  Elec       q    Type
REMARK                         _______ _______ _______ _____ _____    ______ ____
ROOT
ATOM      1  N   LIG    1        0.544   4.014   0.018  0.00  0.00    -0.540 N 
ATOM      2  C   LIG    1        1.574   3.142   0.004  0.00  0.00    +0.610 A 
ATOM      3  C   LIG    1        1.308   1.763  -0.001  0.00  0.00    -0.190 A 
ATOM      4  C   LIG    1       -0.016   1.326   0.009  0.00  0.00    +0.380 A 
ATOM      5  N   LIG    1       -1.031   2.271   0.019  0.00  0.00    -0.510 N 
ATOM      6  C   LIG    1       -2.432   1.841   0.023  0.00  0.00    +0.350 C 
ATOM      7  N   LIG    1        0.002  -0.004   0.002  0.00  0.00    -0.500 NA
ATOM      8  C   LIG    1        1.254  -0.439  -0.012  0.00  0.00    +0.450 A 
ATOM      9  N   LIG    1        2.021  -1.573  -0.026  0.00  0.00    -0.450 N 
ATOM     10  C   LIG    1        3.348  -1.187  -0.038  0.00  0.00    +0.070 A 
ATOM     11  C   LIG    1        4.538  -2.112  -0.055  0.00  0.00    +0.180 C 
ATOM     12  C   LIG    1        3.393   0.142  -0.030  0.00  0.00    +0.010 A 
ATOM     13  C   LIG    1        4.644   0.982  -0.038  0.00  0.00    +0.180 C 
ATOM     14  N   LIG    1        2.095   0.621  -0.015  0.00  0.00    -0.350 N 
ATOM     15  O   LIG    1        2.723   3.548  -0.005  0.00  0.00    -0.520 OA
ATOM     16  C   LIG    1       -0.729   3.583   0.028  0.00  0.00    +0.720 A 
ATOM     17  O   LIG    1       -1.631   4.399   0.041  0.00  0.00    -0.530 OA
ENDROOT
BRANCH   9  18
ATOM     18  C   LIG    1        1.524  -2.951  -0.029  0.00  0.00    +0.260 C 
ATOM     19  C   LIG    1        0.609  -3.180  -1.250  0.00  0.00    +0.020 C 
ATOM     20  C   LIG    1       -0.508  -4.113  -0.717  0.00  0.00    +0.030 C 
ATOM     21  C   LIG    1       -0.747  -3.576   0.717  0.00  0.00    +0.030 C 
ATOM     22  C   LIG    1        0.662  -3.204   1.221  0.00  0.00    +0.020 C 
ENDBRANCH   9  18
BRANCH   1  23
ATOM     23  C   LIG    1        0.818   5.453   0.024  0.00  0.00    +0.430 C 
BRANCH  23  24
ATOM     24  C   LIG    1        0.899   5.954  -1.395  0.00  0.00    +0.450 C 
ATOM     25  O   LIG    1        0.744   5.188  -2.316  0.00  0.00    -0.500 OA
BRANCH  24  27
ATOM     26  C   LIG    1        1.208   7.664  -3.026  0.00  0.00    +0.270 C 
ATOM     27  O   LIG    1        1.144   7.252  -1.635  0.00  0.00    -0.350 OA
ENDBRANCH  24  27
ENDBRANCH  23  24
ENDBRANCH   1  23
TORSDOF 4
