REMARK  Name = ZINCkj00000GeRlq.0
REMARK                            x       y       z     vdW  Elec       q    Type
REMARK                         _______ _______ _______ _____ _____    ______ ____
ROOT
ATOM      1  C   LIG    1        0.894   6.009  -2.282  0.00  0.00    +0.160 C 
ATOM      2  C   LIG    1        1.612   5.192  -3.358  0.00  0.00    +0.120 C 
ENDROOT
BRANCH   1   9
ATOM      3  C   LIG    1       -0.263  11.784  -4.162  0.00  0.00    +0.040 C 
ATOM      4  C   LIG    1       -0.534  10.349  -3.706  0.00  0.00    -0.020 C 
ATOM      5  C   LIG    1       -1.594   9.717  -4.610  0.00  0.00    +0.030 C 
ATOM      6  C   LIG    1       -1.890   8.293  -4.134  0.00  0.00    -0.030 C 
ATOM      7  C   LIG    1       -0.609   7.451  -4.230  0.00  0.00    +0.270 C 
ATOM      8  N   LIG    1        0.454   8.130  -3.477  0.00  0.00    -0.580 N 
ATOM      9  C   LIG    1        1.141   7.477  -2.518  0.00  0.00    +0.500 C 
ATOM     10  O   LIG    1        1.956   8.071  -1.845  0.00  0.00    -0.530 OA
ATOM     11  C   LIG    1       -2.974   7.673  -5.019  0.00  0.00    +0.040 C 
ATOM     12  C   LIG    1        0.759   9.532  -3.793  0.00  0.00    +0.290 C 
ENDBRANCH   1   9
BRANCH   1  13
ATOM     13  N   LIG    1        1.409   5.633  -0.958  0.00  0.00    -0.490 N 
ATOM     14  H   LIG    1        2.412   5.742  -0.944  0.00  0.00    +0.440 HD
ATOM     15  H   LIG    1        0.996   6.229  -0.255  0.00  0.00    +0.440 HD
BRANCH  13  16
ATOM     16  C   LIG    1        1.063   4.233  -0.678  0.00  0.00    +0.270 C 
BRANCH  16  17
ATOM     17  C   LIG    1        1.599   3.842   0.701  0.00  0.00    +0.350 C 
BRANCH  17  18
ATOM     18  N   LIG    1        1.254   2.446   0.980  0.00  0.00    -0.390 N 
ATOM     19  C   LIG    1        2.120   1.466   1.315  0.00  0.00    +0.240 A 
ATOM     20  C   LIG    1        1.408   0.328   1.488  0.00  0.00    -0.090 A 
ATOM     21  C   LIG    1        0.061   0.623   1.252  0.00  0.00    +0.260 A 
ATOM     22  N   LIG    1       -0.032   1.892   0.947  0.00  0.00    -0.300 NA
ENDBRANCH  17  18
ENDBRANCH  16  17
ENDBRANCH  13  16
ENDBRANCH   1  13
TORSDOF 5
