REMARK  Name = ZINCqH000000756Y.0
REMARK                            x       y       z     vdW  Elec       q    Type
REMARK                         _______ _______ _______ _____ _____    ______ ____
ROOT
ATOM      1  C   LIG    1       -4.092   4.857   0.375  0.00  0.00    +0.530 C 
ATOM      2  N   LIG    1       -3.575   3.636   0.134  0.00  0.00    -0.620 N 
ATOM      3  C   LIG    1       -3.415   2.647   1.210  0.00  0.00    +0.320 C 
ATOM      4  C   LIG    1       -2.074   1.983   1.074  0.00  0.00    -0.050 C 
ATOM      5  C   LIG    1       -1.305   2.116   0.020  0.00  0.00    -0.070 C 
ATOM      6  C   LIG    1       -1.643   2.959  -1.174  0.00  0.00    +0.070 C 
ATOM      7  C   LIG    1       -3.149   3.238  -1.219  0.00  0.00    +0.280 C 
ATOM      8  O   LIG    1       -4.213   5.654  -0.531  0.00  0.00    -0.530 OA
ENDROOT
BRANCH   5   9
ATOM      9  C   LIG    1       -0.017   1.391   0.010  0.00  0.00    -0.060 A 
ATOM     10  C   LIG    1        1.185   2.099   0.002  0.00  0.00    +0.010 A 
ATOM     11  C   LIG    1        2.385   1.417  -0.014  0.00  0.00    +0.000 A 
ATOM     12  C   LIG    1        2.396   0.034  -0.021  0.00  0.00    +0.000 A 
ATOM     13  C   LIG    1        1.208  -0.675  -0.013  0.00  0.00    +0.000 A 
ATOM     14  C   LIG    1        0.002  -0.004   0.002  0.00  0.00    +0.010 A 
ENDBRANCH   5   9
BRANCH   1  15
ATOM     15  C   LIG    1       -4.518   5.233   1.770  0.00  0.00    +0.120 C 
BRANCH  15  21
ATOM     16  C   LIG    1       -6.387   6.873   1.437  0.00  0.00    +0.180 A 
ATOM     17  C   LIG    1       -6.893   8.168   1.438  0.00  0.00    -0.080 A 
ATOM     18  C   LIG    1       -6.073   9.226   1.760  0.00  0.00    +0.110 A 
ATOM     19  C   LIG    1       -4.733   8.992   2.090  0.00  0.00    -0.210 A 
ATOM     20  C   LIG    1       -4.235   7.683   2.090  0.00  0.00    +0.130 A 
ATOM     21  C   LIG    1       -5.057   6.640   1.770  0.00  0.00    -0.110 A 
BRANCH  19  22
ATOM     22  C   LIG    1       -3.852  10.115   2.436  0.00  0.00    +0.400 C 
ATOM     23  O   LIG    1       -2.691   9.910   2.721  0.00  0.00    -0.460 OA
ATOM     24  C   LIG    1       -4.390  11.523   2.435  0.00  0.00    +0.070 C 
ENDBRANCH  19  22
BRANCH  16  26
ATOM     25  C   LIG    1       -8.550   6.141   0.783  0.00  0.00    +0.240 C 
ATOM     26  O   LIG    1       -7.195   5.832   1.115  0.00  0.00    -0.310 OA
ENDBRANCH  16  26
ENDBRANCH  15  21
ENDBRANCH   1  15
TORSDOF 5
