REMARK  Name = ZINCrH000004qMcb.0
REMARK                            x       y       z     vdW  Elec       q    Type
REMARK                         _______ _______ _______ _____ _____    ______ ____
ROOT
ATOM      1  C   LIG    1       -0.391   2.660   1.960  0.00  0.00    +0.140 A 
ATOM      2  N   LIG    1       -1.277   2.734   2.928  0.00  0.00    -0.290 NA
ATOM      3  N   LIG    1       -2.086   1.738   2.861  0.00  0.00    -0.250 NA
ATOM      4  C   LIG    1       -1.771   0.971   1.844  0.00  0.00    +0.220 A 
ATOM      5  N   LIG    1       -0.677   1.540   1.233  0.00  0.00    -0.450 N 
ENDROOT
BRANCH   4   6
ATOM      6  C   LIG    1       -2.460  -0.270   1.432  0.00  0.00    -0.060 A 
ATOM      7  C   LIG    1       -1.724  -1.422   1.153  0.00  0.00    +0.060 A 
ATOM      8  C   LIG    1       -2.374  -2.579   0.774  0.00  0.00    +0.010 A 
ATOM      9  C   LIG    1       -3.752  -2.596   0.660  0.00  0.00    +0.070 A 
ATOM     10  C   LIG    1       -4.490  -1.458   0.930  0.00  0.00    +0.000 A 
ATOM     11  C   LIG    1       -3.853  -0.294   1.315  0.00  0.00    +0.140 A 
ATOM     12  F   LIG    1       -4.574   0.818   1.579  0.00  0.00    -0.120 F 
ENDBRANCH   4   6
BRANCH   1  13
ATOM     13  S   LIG    1        0.919   3.798   1.654  0.00  0.00    +0.100 S 
BRANCH  13  14
ATOM     14  C   LIG    1        0.640   4.970   3.006  0.00  0.00    +0.130 C 
BRANCH  14  17
ATOM     15  N   LIG    1        1.663   7.055   3.857  0.00  0.00    -0.620 N 
ATOM     16  H   LIG    1        0.989   7.064   4.554  0.00  0.00    +0.440 HD
ATOM     17  C   LIG    1        1.675   6.064   2.943  0.00  0.00    +0.530 C 
ATOM     18  O   LIG    1        2.517   6.053   2.071  0.00  0.00    -0.480 OA
BRANCH  15  23
ATOM     19  C   LIG    1        4.431  11.104   4.708  0.00  0.00    +0.160 C 
ATOM     20  C   LIG    1        3.848   9.833   4.149  0.00  0.00    +0.040 A 
ATOM     21  N   LIG    1        4.273   9.171   3.110  0.00  0.00    -0.360 NA
ATOM     22  O   LIG    1        3.603   8.186   2.899  0.00  0.00    +0.110 OA
ATOM     23  C   LIG    1        2.615   8.062   3.799  0.00  0.00    +0.210 A 
ATOM     24  C   LIG    1        2.730   9.130   4.643  0.00  0.00    -0.080 A 
ENDBRANCH  15  23
ENDBRANCH  14  17
ENDBRANCH  13  14
ENDBRANCH   1  13
BRANCH   5  25
ATOM     25  C   LIG    1        0.035   1.044   0.053  0.00  0.00    +0.300 C 
BRANCH  25  26
ATOM     26  C   LIG    1       -0.675   1.528  -1.212  0.00  0.00    -0.030 C 
ATOM     27  C   LIG    1       -0.006   0.909  -2.441  0.00  0.00    +0.040 C 
ATOM     28  C   LIG    1       -0.586   3.053  -1.297  0.00  0.00    +0.030 C 
ENDBRANCH  25  26
ENDBRANCH   5  25
TORSDOF 7
