REMARK  Name = ZINCvU0000000FsX.0
REMARK                            x       y       z     vdW  Elec       q    Type
REMARK                         _______ _______ _______ _____ _____    ______ ____
ROOT
ATOM      1  O   LIG    1       -6.378  -6.852   0.033  0.00  0.00    -0.430 OA
ATOM      2  C   LIG    1       -5.818  -5.771   0.030  0.00  0.00    +0.440 A 
ATOM      3  C   LIG    1       -6.602  -4.517   0.040  0.00  0.00    -0.130 A 
ATOM      4  C   LIG    1       -7.999  -4.584   0.052  0.00  0.00    +0.090 A 
ATOM      5  C   LIG    1       -8.745  -3.427   0.061  0.00  0.00    +0.030 A 
ATOM      6  C   LIG    1       -8.125  -2.187   0.059  0.00  0.00    +0.050 A 
ATOM      7  C   LIG    1       -6.749  -2.096   0.048  0.00  0.00    +0.050 A 
ATOM      8  C   LIG    1       -5.974  -3.253   0.040  0.00  0.00    +0.020 A 
ATOM      9  C   LIG    1       -4.501  -3.168   0.028  0.00  0.00    +0.160 A 
ATOM     10  N   LIG    1       -3.587  -2.228   0.024  0.00  0.00    -0.200 NA
ATOM     11  N   LIG    1       -2.299  -2.802   0.009  0.00  0.00    -0.370 N 
ATOM     12  C   LIG    1       -2.406  -4.173  -0.003  0.00  0.00    +0.120 A 
ATOM     13  C   LIG    1       -1.570  -5.285  -0.024  0.00  0.00    +0.080 A 
ATOM     14  C   LIG    1       -2.121  -6.556  -0.029  0.00  0.00    +0.060 A 
ATOM     15  C   LIG    1       -3.491  -6.783  -0.014  0.00  0.00    +0.090 A 
ATOM     16  C   LIG    1       -1.141  -2.112   0.002  0.00  0.00    +0.590 C 
ATOM     17  O   LIG    1       -0.079  -2.706  -0.012  0.00  0.00    -0.490 OA
ATOM     18  C   LIG    1       -3.771  -4.423   0.015  0.00  0.00    -0.150 A 
ATOM     19  C   LIG    1       -4.351  -5.688   0.015  0.00  0.00    -0.100 A 
ENDROOT
BRANCH  16  20
ATOM     20  C   LIG    1       -1.160  -0.697   0.009  0.00  0.00    -0.080 C 
ATOM     21  C   LIG    1        0.002  -0.004   0.002  0.00  0.00    +0.160 C 
BRANCH  21  22
ATOM     22  C   LIG    1       -0.018   1.464   0.010  0.00  0.00    -0.080 A 
ATOM     23  C   LIG    1       -1.240   2.150   0.020  0.00  0.00    +0.070 A 
ATOM     24  C   LIG    1       -1.254   3.515   0.033  0.00  0.00    +0.000 A 
ATOM     25  C   LIG    1       -0.055   4.226   0.025  0.00  0.00    -0.080 A 
ATOM     26  C   LIG    1        1.162   3.548   0.010  0.00  0.00    +0.050 A 
ATOM     27  C   LIG    1        1.185   2.183   0.003  0.00  0.00    +0.070 A 
BRANCH  25  28
ATOM     28  S   LIG    1       -0.079   5.988   0.035  0.00  0.00    -0.080 S 
BRANCH  28  29
ATOM     29  C   LIG    1       -1.852   6.372   0.053  0.00  0.00    +0.430 C 
ATOM     30  F   LIG    1       -2.437   5.820   1.198  0.00  0.00    -0.180 F 
ATOM     31  F   LIG    1       -2.458   5.832  -1.087  0.00  0.00    -0.180 F 
ENDBRANCH  28  29
ENDBRANCH  25  28
ENDBRANCH  21  22
ENDBRANCH  16  20
TORSDOF 4
