REMARK  Name = ZINCrg00000IYxjj.0
REMARK                            x       y       z     vdW  Elec       q    Type
REMARK                         _______ _______ _______ _____ _____    ______ ____
ROOT
ATOM      1  N   LIG    1       -1.091   0.369  -0.001  0.00  0.00    -0.710 N 
ATOM      2  H   LIG    1       -0.858  -0.559  -0.159  0.00  0.00    +0.410 HD
ENDROOT
BRANCH   1   5
ATOM      3  C   LIG    1        0.620   3.590   0.378  0.00  0.00    +0.370 A 
ATOM      4  C   LIG    1       -0.417   2.665   0.306  0.00  0.00    -0.160 A 
ATOM      5  C   LIG    1       -0.094   1.330   0.080  0.00  0.00    +0.450 A 
ATOM      6  N   LIG    1        1.185   0.989  -0.058  0.00  0.00    -0.590 NA
ATOM      7  C   LIG    1        2.139   1.895   0.017  0.00  0.00    +0.560 A 
ATOM      8  N   LIG    1        1.874   3.168   0.229  0.00  0.00    -0.590 NA
BRANCH   3  13
ATOM      9  C   LIG    1        1.605   5.727   0.639  0.00  0.00    +0.160 C 
ATOM     10  C   LIG    1        1.156   7.175   0.349  0.00  0.00    +0.040 C 
ATOM     11  C   LIG    1       -0.175   7.036  -0.419  0.00  0.00    +0.040 C 
ATOM     12  C   LIG    1       -0.418   5.515  -0.528  0.00  0.00    +0.200 C 
ATOM     13  N   LIG    1        0.351   4.931   0.601  0.00  0.00    -0.440 N 
BRANCH   9  14
ATOM     14  C   LIG    1        2.253   5.636   2.022  0.00  0.00    +0.190 C 
BRANCH  14  15
ATOM     15  O   LIG    1        1.399   6.250   2.990  0.00  0.00    -0.560 OA
ATOM     16  H   LIG    1        1.748   6.229   3.891  0.00  0.00    +0.380 HD
ENDBRANCH  14  15
ENDBRANCH   9  14
ENDBRANCH   3  13
ENDBRANCH   1   5
BRANCH   1  17
ATOM     17  C   LIG    1       -2.495   0.757   0.152  0.00  0.00    +0.280 C 
BRANCH  17  18
ATOM     18  C   LIG    1       -3.383  -0.482   0.022  0.00  0.00    +0.170 C 
BRANCH  18  19
ATOM     19  C   LIG    1       -4.829  -0.082   0.166  0.00  0.00    +0.250 A 
ATOM     20  N   LIG    1       -5.659   0.188  -0.807  0.00  0.00    -0.320 NA
ATOM     21  N   LIG    1       -6.817   0.492  -0.343  0.00  0.00    -0.030 NA
ATOM     22  N   LIG    1       -6.806   0.448   0.946  0.00  0.00    -0.070 NA
ATOM     23  N   LIG    1       -5.506   0.070   1.325  0.00  0.00    -0.330 N 
BRANCH  23  24
ATOM     24  C   LIG    1       -5.016  -0.109   2.627  0.00  0.00    +0.120 A 
ATOM     25  C   LIG    1       -4.222  -1.208   2.926  0.00  0.00    +0.020 A 
ATOM     26  C   LIG    1       -3.737  -1.379   4.208  0.00  0.00    +0.040 A 
ATOM     27  C   LIG    1       -4.051  -0.463   5.196  0.00  0.00    +0.040 A 
ATOM     28  C   LIG    1       -4.846   0.629   4.902  0.00  0.00    +0.040 A 
ATOM     29  C   LIG    1       -5.330   0.809   3.620  0.00  0.00    +0.050 A 
ENDBRANCH  23  24
ENDBRANCH  18  19
ENDBRANCH  17  18
ENDBRANCH   1  17
TORSDOF 8
