REMARK  Name = ZINCvU00000006aA.0
REMARK                            x       y       z     vdW  Elec       q    Type
REMARK                         _______ _______ _______ _____ _____    ______ ____
ROOT
ATOM      1  C   LIG    1       -0.018   1.503   0.010  0.00  0.00    +0.240 A 
ATOM      2  N   LIG    1        1.038   2.275   0.004  0.00  0.00    -0.280 NA
ATOM      3  N   LIG    1        0.578   3.602   0.015  0.00  0.00    -0.350 N 
ATOM      4  C   LIG    1       -0.775   3.532   0.028  0.00  0.00    +0.340 A 
ATOM      5  N   LIG    1       -1.112   2.257   0.019  0.00  0.00    -0.500 NA
ENDROOT
BRANCH   3   6
ATOM      6  C   LIG    1        1.396   4.817   0.014  0.00  0.00    +0.260 C 
ATOM      7  C   LIG    1        2.277   4.840  -1.239  0.00  0.00    +0.010 C 
ATOM      8  C   LIG    1        3.184   6.072  -1.193  0.00  0.00    +0.230 C 
ATOM      9  O   LIG    1        3.969   6.040   0.001  0.00  0.00    -0.380 OA
ATOM     10  C   LIG    1        3.200   6.064   1.205  0.00  0.00    +0.230 C 
ATOM     11  C   LIG    1        2.293   4.832   1.256  0.00  0.00    +0.010 C 
ENDBRANCH   3   6
BRANCH   4  12
ATOM     12  C   LIG    1       -1.704   4.677   0.042  0.00  0.00    +0.020 A 
ATOM     13  C   LIG    1       -3.043   4.650  -0.234  0.00  0.00    +0.050 A 
ATOM     14  C   LIG    1       -3.449   6.001  -0.074  0.00  0.00    +0.060 A 
ATOM     15  N   LIG    1       -2.373   6.673   0.255  0.00  0.00    -0.330 NA
ATOM     16  O   LIG    1       -1.401   5.958   0.324  0.00  0.00    +0.110 OA
BRANCH  14  17
ATOM     17  C   LIG    1       -4.819   6.545  -0.251  0.00  0.00    -0.020 A 
ATOM     18  C   LIG    1       -5.866   5.698  -0.611  0.00  0.00    +0.060 A 
ATOM     19  C   LIG    1       -7.139   6.208  -0.768  0.00  0.00    +0.030 A 
ATOM     20  C   LIG    1       -7.374   7.559  -0.580  0.00  0.00    -0.020 A 
ATOM     21  C   LIG    1       -6.336   8.405  -0.228  0.00  0.00    +0.030 A 
ATOM     22 CL   LIG    1       -8.976   8.195  -0.788  0.00  0.00    -0.060 Cl
ATOM     23  C   LIG    1       -5.061   7.904  -0.063  0.00  0.00    +0.060 A 
ENDBRANCH  14  17
ENDBRANCH   4  12
BRANCH   1  24
ATOM     24  C   LIG    1        0.002  -0.004   0.002  0.00  0.00    +0.220 C 
BRANCH  24  31
ATOM     25  C   LIG    1       -2.473  -0.322   1.459  0.00  0.00    +0.090 C 
ATOM     26  C   LIG    1       -1.162  -0.666   2.117  0.00  0.00    -0.070 A 
ATOM     27  C   LIG    1       -1.143  -1.134   3.417  0.00  0.00    +0.000 A 
ATOM     28  C   LIG    1        0.060  -1.450   4.021  0.00  0.00    +0.010 A 
ATOM     29  C   LIG    1        1.244  -1.298   3.324  0.00  0.00    -0.010 A 
ATOM     30  C   LIG    1        1.225  -0.835   2.022  0.00  0.00    +0.020 A 
ATOM     31  C   LIG    1        0.022  -0.514   1.420  0.00  0.00    -0.090 A 
ENDBRANCH  24  31
ENDBRANCH   1  24
TORSDOF 5
