REMARK  Name = ZINCb70000004SU3.0
REMARK                            x       y       z     vdW  Elec       q    Type
REMARK                         _______ _______ _______ _____ _____    ______ ____
ROOT
ATOM      1  O   LIG    1       -1.671  -1.503  -4.806  0.00  0.00    -0.530 OA
ATOM      2  C   LIG    1       -1.708  -0.973  -3.710  0.00  0.00    +0.530 A 
ATOM      3  C   LIG    1       -1.009   0.194  -3.323  0.00  0.00    -0.120 A 
ATOM      4  C   LIG    1       -1.309   0.454  -2.035  0.00  0.00    +0.150 A 
ATOM      5  N   LIG    1       -2.180  -0.501  -1.593  0.00  0.00    -0.500 N 
ATOM      6  H   LIG    1       -2.562  -0.555  -0.703  0.00  0.00    +0.440 HD
ATOM      7  N   LIG    1       -2.425  -1.391  -2.647  0.00  0.00    -0.510 N 
ATOM      8  H   LIG    1       -3.005  -2.168  -2.618  0.00  0.00    +0.440 HD
ENDROOT
BRANCH   4   9
ATOM      9  C   LIG    1       -0.779   1.607  -1.222  0.00  0.00    +0.110 C 
ATOM     10  C   LIG    1       -1.948   2.439  -0.646  0.00  0.00    +0.080 C 
ATOM     11  C   LIG    1       -1.449   2.800   0.776  0.00  0.00    +0.280 C 
ATOM     12  N   LIG    1       -0.726   1.573   1.208  0.00  0.00    -0.520 N 
ATOM     13  H   LIG    1       -0.067   1.794   1.940  0.00  0.00    +0.440 HD
ATOM     14  H   LIG    1       -1.384   0.878   1.528  0.00  0.00    +0.430 HD
ATOM     15  C   LIG    1       -0.013   1.086   0.008  0.00  0.00    +0.280 C 
ENDBRANCH   4   9
TORSDOF 1
