REMARK  Name = ZINCnE000001TDOd.0
REMARK                            x       y       z     vdW  Elec       q    Type
REMARK                         _______ _______ _______ _____ _____    ______ ____
ROOT
ATOM      1  N   UNK    1        0.041  -0.463  -1.276  0.00  0.00    -0.500 NA
ENDROOT
BRANCH   1   2
ATOM      2  C   UNK    1        0.595  -1.815  -1.124  0.00  0.00    +0.230 C 
ATOM      3  C   UNK    1        1.931  -1.732  -0.388  0.00  0.00    -0.020 C 
ATOM      4  C   UNK    1        2.594  -3.113  -0.432  0.00  0.00    +0.030 C 
ATOM      5  C   UNK    1        3.036  -3.390  -1.868  0.00  0.00    +0.070 C 
ATOM      6  C   UNK    1        1.897  -3.159  -2.826  0.00  0.00    -0.070 A 
ATOM      7  C   UNK    1        2.000  -3.708  -4.098  0.00  0.00    -0.010 A 
ATOM      8  C   UNK    1        0.993  -3.527  -5.024  0.00  0.00    +0.000 A 
ATOM      9  C   UNK    1       -0.128  -2.793  -4.684  0.00  0.00    -0.010 A 
ATOM     10  C   UNK    1       -0.234  -2.249  -3.420  0.00  0.00    +0.050 A 
ATOM     11  C   UNK    1        0.778  -2.432  -2.486  0.00  0.00    -0.080 A 
ENDBRANCH   1   2
BRANCH   1  12
ATOM     12  C   UNK    1       -0.419   0.066   0.016  0.00  0.00    +0.090 C 
ATOM     13  C   UNK    1       -1.894  -0.125   0.372  0.00  0.00    +0.010 C 
ATOM     14  C   UNK    1       -1.373   1.262  -0.009  0.00  0.00    +0.060 C 
ENDBRANCH   1  12
BRANCH   1  15
ATOM     15  C   UNK    1        1.019   0.441  -1.896  0.00  0.00    +0.330 C 
BRANCH  15  19
ATOM     16  C   UNK    1       -0.483   3.676  -2.529  0.00  0.00    -0.060 A 
ATOM     17  C   UNK    1       -0.819   3.020  -3.676  0.00  0.00    +0.160 A 
ATOM     18  O   UNK    1       -0.316   1.780  -3.579  0.00  0.00    -0.210 OA
ATOM     19  C   UNK    1        0.314   1.674  -2.400  0.00  0.00    +0.160 A 
ATOM     20  N   UNK    1        0.218   2.800  -1.759  0.00  0.00    -0.430 NA
BRANCH  16  22
ATOM     21  O   UNK    1       -1.464   5.751  -2.970  0.00  0.00    -0.690 OA
ATOM     22  C   UNK    1       -0.820   5.066  -2.187  0.00  0.00    +0.560 C 
ATOM     23  O   UNK    1       -0.456   5.538  -1.117  0.00  0.00    -0.670 OA
ENDBRANCH  16  22
ENDBRANCH  15  19
ENDBRANCH   1  15
TORSDOF 5
