REMARK  Name = ZINCvU0000000Ezd.0
REMARK                            x       y       z     vdW  Elec       q    Type
REMARK                         _______ _______ _______ _____ _____    ______ ____
ROOT
ATOM      1  C   LIG    1        1.262  -2.157  -0.021  0.00  0.00    +0.570 C 
ATOM      2  N   LIG    1        2.438  -2.804  -0.138  0.00  0.00    -0.610 N 
ATOM      3  C   LIG    1        3.704  -2.059  -0.154  0.00  0.00    +0.280 C 
ATOM      4  C   LIG    1        4.499  -2.455  -1.397  0.00  0.00    +0.020 C 
ATOM      5  C   LIG    1        4.664  -3.977  -1.431  0.00  0.00    +0.040 C 
ATOM      6  C   LIG    1        3.286  -4.639  -1.504  0.00  0.00    +0.070 C 
ATOM      7  C   LIG    1        2.478  -4.268  -0.257  0.00  0.00    +0.310 C 
ATOM      8  O   LIG    1        0.226  -2.788   0.062  0.00  0.00    -0.520 OA
ENDROOT
BRANCH   6   9
ATOM      9  C   LIG    1        3.451  -6.136  -1.570  0.00  0.00    +0.100 A 
ATOM     10  N   LIG    1        4.034  -6.836  -0.672  0.00  0.00    -0.460 NA
ATOM     11  C   LIG    1        4.106  -8.167  -0.861  0.00  0.00    +0.080 A 
ATOM     12  C   LIG    1        4.679  -9.162  -0.043  0.00  0.00    +0.080 A 
ATOM     13  C   LIG    1        4.649 -10.470  -0.425  0.00  0.00    +0.030 A 
ATOM     14  C   LIG    1        4.055 -10.847  -1.621  0.00  0.00    +0.040 A 
ATOM     15  C   LIG    1        3.487  -9.896  -2.439  0.00  0.00    +0.060 A 
ATOM     16  C   LIG    1        3.508  -8.555  -2.065  0.00  0.00    -0.180 A 
ATOM     17  S   LIG    1        2.889  -7.108  -2.855  0.00  0.00    +0.100 S 
ENDBRANCH   6   9
BRANCH   1  23
ATOM     18  C   LIG    1        0.421   0.022  -0.896  0.00  0.00    +0.180 A 
ATOM     19  C   LIG    1        0.399   1.408  -0.862  0.00  0.00    -0.070 A 
ATOM     20  C   LIG    1        1.173   2.090   0.056  0.00  0.00    +0.070 A 
ATOM     21  C   LIG    1        1.974   1.398   0.949  0.00  0.00    -0.030 A 
ATOM     22  C   LIG    1        2.008   0.020   0.929  0.00  0.00    +0.090 A 
ATOM     23  C   LIG    1        1.231  -0.682   0.005  0.00  0.00    -0.160 A 
BRANCH  18  24
ATOM     24  O   LIG    1       -0.338  -0.649  -1.799  0.00  0.00    -0.300 OA
BRANCH  24  25
ATOM     25  C   LIG    1       -1.137   0.136  -2.686  0.00  0.00    +0.320 C 
BRANCH  25  29
ATOM     26  C   LIG    1       -4.299  -0.880  -6.373  0.00  0.00    +0.180 C 
ATOM     27  C   LIG    1       -3.327  -1.200  -5.267  0.00  0.00    +0.050 A 
ATOM     28  N   LIG    1       -2.726  -0.323  -4.536  0.00  0.00    -0.470 NA
ATOM     29  C   LIG    1       -1.905  -0.775  -3.609  0.00  0.00    +0.050 A 
ATOM     30  C   LIG    1       -1.805  -2.107  -3.558  0.00  0.00    -0.050 A 
ATOM     31  S   LIG    1       -2.862  -2.777  -4.798  0.00  0.00    +0.130 S 
ENDBRANCH  25  29
ENDBRANCH  24  25
ENDBRANCH  18  24
ENDBRANCH   1  23
TORSDOF 5
