REMARK  Name = ZINCrH000004mpYi.0
REMARK                            x       y       z     vdW  Elec       q    Type
REMARK                         _______ _______ _______ _____ _____    ______ ____
ROOT
ATOM      1  N   LIG    1       -2.207   2.834   4.909  0.00  0.00    -0.230 N 
ATOM      2  N   LIG    1       -1.948   2.525   3.689  0.00  0.00    -0.260 NA
ATOM      3  C   LIG    1       -1.004   1.605   3.645  0.00  0.00    -0.010 A 
ATOM      4  C   LIG    1       -0.634   1.324   4.982  0.00  0.00    +0.000 A 
ATOM      5  C   LIG    1       -1.415   2.119   5.750  0.00  0.00    +0.020 A 
ATOM      6  C   LIG    1       -1.408   2.197   7.255  0.00  0.00    +0.150 C 
ENDROOT
BRANCH   1  10
ATOM      7  C   LIG    1       -5.049   5.639   6.112  0.00  0.00    +0.140 A 
ATOM      8  C   LIG    1       -5.346   4.743   5.095  0.00  0.00    +0.000 A 
ATOM      9  C   LIG    1       -4.406   3.814   4.696  0.00  0.00    +0.080 A 
ATOM     10  C   LIG    1       -3.162   3.777   5.314  0.00  0.00    +0.090 A 
ATOM     11  C   LIG    1       -2.868   4.670   6.335  0.00  0.00    +0.070 A 
ATOM     12  C   LIG    1       -3.807   5.603   6.729  0.00  0.00    -0.050 A 
BRANCH   7  14
ATOM     13  C   LIG    1       -5.602   7.445   7.556  0.00  0.00    +0.240 C 
ATOM     14  O   LIG    1       -5.976   6.554   6.503  0.00  0.00    -0.310 OA
ENDBRANCH   7  14
ENDBRANCH   1  10
BRANCH   3  15
ATOM     15  C   LIG    1       -0.434   0.990   2.430  0.00  0.00    +0.610 C 
ATOM     16  N   LIG    1       -0.886   1.357   1.214  0.00  0.00    -0.710 N 
ATOM     17  H   LIG    1       -1.585   2.025   1.138  0.00  0.00    +0.410 HD
ATOM     18  O   LIG    1        0.442   0.153   2.526  0.00  0.00    -0.530 OA
BRANCH  16  19
ATOM     19  C   LIG    1       -0.322   0.747   0.008  0.00  0.00    +0.340 C 
BRANCH  19  20
ATOM     20  C   LIG    1       -0.994   1.326  -1.210  0.00  0.00    -0.140 A 
ATOM     21  C   LIG    1       -0.474   2.454  -1.817  0.00  0.00    +0.020 A 
ATOM     22  C   LIG    1       -1.091   2.985  -2.936  0.00  0.00    -0.010 A 
ATOM     23  C   LIG    1       -2.229   2.391  -3.448  0.00  0.00    +0.080 A 
ATOM     24  C   LIG    1       -2.752   1.263  -2.844  0.00  0.00    -0.070 A 
ATOM     25 CL   LIG    1        0.956   3.203  -1.177  0.00  0.00    -0.050 Cl
ATOM     26  C   LIG    1       -2.132   0.725  -1.726  0.00  0.00    +0.160 A 
BRANCH  26  27
ATOM     27  O   LIG    1       -2.642  -0.388  -1.135  0.00  0.00    -0.310 OA
ATOM     28  C   LIG    1       -3.817  -0.953  -1.721  0.00  0.00    +0.240 C 
ENDBRANCH  26  27
ENDBRANCH  19  20
ENDBRANCH  16  19
ENDBRANCH   3  15
TORSDOF 6
