REMARK  Name = ZINCrg00000fRymh.0
REMARK                            x       y       z     vdW  Elec       q    Type
REMARK                         _______ _______ _______ _____ _____    ______ ____
ROOT
ATOM      1  C   LIG    1        2.413  -3.039   0.928  0.00  0.00    +0.540 C 
ATOM      2  N   LIG    1        1.632  -1.988   0.608  0.00  0.00    -0.610 N 
ATOM      3  C   LIG    1        1.932  -1.164  -0.571  0.00  0.00    +0.290 C 
ATOM      4  C   LIG    1        2.016   0.303  -0.138  0.00  0.00    +0.030 C 
ATOM      5  C   LIG    1        0.727   0.691   0.589  0.00  0.00    +0.250 C 
ATOM      6  C   LIG    1        0.566  -0.173   1.842  0.00  0.00    +0.000 C 
ATOM      7  C   LIG    1        0.464  -1.646   1.431  0.00  0.00    +0.270 C 
ATOM      8  O   LIG    1        3.323  -3.364   0.195  0.00  0.00    -0.510 OA
ENDROOT
BRANCH   5   9
ATOM      9  N   LIG    1        0.790   2.103   0.975  0.00  0.00    -1.110 NA
ATOM     10  H   LIG    1        1.637   2.495   1.241  0.00  0.00    +0.420 HD
BRANCH   9  11
ATOM     11  S   LIG    1       -0.581   3.031   0.951  0.00  0.00    +2.720 S 
ATOM     12  O   LIG    1       -1.199   2.800  -0.308  0.00  0.00    -0.950 OA
ATOM     13  O   LIG    1       -0.200   4.322   1.404  0.00  0.00    -0.950 OA
BRANCH  11  14
ATOM     14  C   LIG    1       -1.674   2.378   2.169  0.00  0.00    -0.800 A 
ATOM     15  C   LIG    1       -1.715   2.757   3.447  0.00  0.00    +0.170 A 
ATOM     16  C   LIG    1       -2.659   2.103   4.220  0.00  0.00    -0.010 A 
ATOM     17  C   LIG    1       -3.384   1.192   3.569  0.00  0.00    +0.010 A 
ATOM     18  S   LIG    1       -2.883   1.133   1.884  0.00  0.00    +0.210 S 
ENDBRANCH  11  14
ENDBRANCH   9  11
ENDBRANCH   5   9
BRANCH   1  19
ATOM     19  C   LIG    1        2.156  -3.810   2.197  0.00  0.00    +0.240 C 
BRANCH  19  25
ATOM     20  C   LIG    1       -0.364  -3.904   4.062  0.00  0.00    +0.310 C 
ATOM     21  N   LIG    1       -0.166  -4.698   2.846  0.00  0.00    -0.460 N 
ATOM     22  C   LIG    1       -1.030  -5.597   2.326  0.00  0.00    +0.400 A 
ATOM     23  N   LIG    1       -0.504  -6.105   1.246  0.00  0.00    -0.490 NA
ATOM     24  C   LIG    1        0.699  -5.552   1.036  0.00  0.00    +0.180 A 
ATOM     25  C   LIG    1        0.928  -4.667   2.025  0.00  0.00    -0.070 A 
ENDBRANCH  19  25
BRANCH  19  26
ATOM     26  N   LIG    1        3.313  -4.666   2.493  0.00  0.00    -0.510 NA
ATOM     27  C   LIG    1        3.399  -5.782   1.541  0.00  0.00    +0.210 C 
ATOM     28  C   LIG    1        3.264  -5.158   3.876  0.00  0.00    +0.200 C 
ENDBRANCH  19  26
ENDBRANCH   1  19
TORSDOF 6
