REMARK  Name = ZINCvU0000000FRe.0
REMARK                            x       y       z     vdW  Elec       q    Type
REMARK                         _______ _______ _______ _____ _____    ______ ____
ROOT
ATOM      1  O   LIG    1        0.548  -1.427  -2.010  0.00  0.00    -0.500 OA
ATOM      2  C   LIG    1       -0.536  -1.978  -2.048  0.00  0.00    +0.550 C 
ATOM      3  N   LIG    1       -0.836  -2.803  -3.071  0.00  0.00    -0.650 N 
ATOM      4  H   LIG    1       -1.727  -3.178  -3.145  0.00  0.00    +0.420 HD
ENDROOT
BRANCH   2   5
ATOM      5  C   LIG    1       -1.522  -1.742  -0.976  0.00  0.00    -0.130 A 
ATOM      6  C   LIG    1       -2.706  -2.479  -0.936  0.00  0.00    +0.050 A 
ATOM      7  C   LIG    1       -3.627  -2.250   0.065  0.00  0.00    +0.010 A 
ATOM      8  C   LIG    1       -3.381  -1.296   1.039  0.00  0.00    +0.040 A 
ATOM      9  C   LIG    1       -2.212  -0.562   1.019  0.00  0.00    +0.030 A 
ATOM     10  C   LIG    1       -1.271  -0.777   0.017  0.00  0.00    +0.010 A 
BRANCH  10  11
ATOM     11  C   LIG    1       -0.015   0.009  -0.008  0.00  0.00    -0.010 A 
ATOM     12  C   LIG    1        0.300   0.790  -1.119  0.00  0.00    +0.070 A 
ATOM     13  C   LIG    1        1.471   1.520  -1.136  0.00  0.00    +0.060 A 
ATOM     14  C   LIG    1        2.331   1.478  -0.054  0.00  0.00    -0.180 A 
ATOM     15  C   LIG    1        2.024   0.705   1.052  0.00  0.00    +0.070 A 
ATOM     16  C   LIG    1        0.856  -0.029   1.080  0.00  0.00    +0.030 A 
BRANCH  14  17
ATOM     17  C   LIG    1        3.608   2.278  -0.079  0.00  0.00    +0.510 C 
ATOM     18  F   LIG    1        3.951   2.650   1.226  0.00  0.00    -0.180 F 
ATOM     19  F   LIG    1        3.425   3.425  -0.858  0.00  0.00    -0.180 F 
ATOM     20  F   LIG    1        4.635   1.501  -0.627  0.00  0.00    -0.180 F 
ENDBRANCH  14  17
ENDBRANCH  10  11
ENDBRANCH   2   5
BRANCH   3  21
ATOM     21  C   LIG    1        0.139  -3.120  -4.025  0.00  0.00    +0.180 A 
ATOM     22  C   LIG    1        1.484  -3.031  -3.700  0.00  0.00    +0.020 A 
ATOM     23  C   LIG    1        2.445  -3.349  -4.643  0.00  0.00    +0.030 A 
ATOM     24  C   LIG    1        2.069  -3.744  -5.913  0.00  0.00    -0.010 A 
ATOM     25  C   LIG    1        0.730  -3.830  -6.247  0.00  0.00    -0.010 A 
ATOM     26  C   LIG    1       -0.240  -3.519  -5.307  0.00  0.00    +0.050 A 
BRANCH  26  27
ATOM     27  N   LIG    1       -1.595  -3.604  -5.643  0.00  0.00    -0.500 N 
ATOM     28  C   LIG    1       -1.973  -4.989  -5.961  0.00  0.00    +0.160 C 
ATOM     29  C   LIG    1       -3.473  -5.047  -6.264  0.00  0.00    +0.220 C 
ATOM     30  O   LIG    1       -3.773  -4.144  -7.332  0.00  0.00    -0.380 OA
ATOM     31  C   LIG    1       -3.419  -2.787  -7.055  0.00  0.00    +0.220 C 
ATOM     32  C   LIG    1       -1.919  -2.706  -6.761  0.00  0.00    +0.160 C 
ENDBRANCH  26  27
ENDBRANCH   3  21
TORSDOF 5
