REMARK  Name = ZINCkj000005hYvh.1
REMARK                            x       y       z     vdW  Elec       q    Type
REMARK                         _______ _______ _______ _____ _____    ______ ____
ROOT
ATOM      1  N   LIG    1        4.136   0.011   2.507  0.00  0.00    -0.730 N 
ATOM      2  H   LIG    1        3.995  -0.644   3.208  0.00  0.00    +0.400 HD
ATOM      3  C   LIG    1        3.243   0.128   1.504  0.00  0.00    +0.700 C 
ATOM      4  N   LIG    1        2.153  -0.664   1.477  0.00  0.00    -0.750 N 
ATOM      5  H   LIG    1        2.012  -1.319   2.179  0.00  0.00    +0.400 HD
ATOM      6  O   LIG    1        3.421   0.948   0.624  0.00  0.00    -0.580 OA
ENDROOT
BRANCH   1   7
ATOM      7  C   LIG    1        5.321   0.872   2.536  0.00  0.00    +0.270 C 
BRANCH   7   8
ATOM      8  C   LIG    1        6.102   0.621   3.828  0.00  0.00    +0.070 C 
ATOM      9  C   LIG    1        7.583   1.025   3.742  0.00  0.00    +0.010 C 
ATOM     10  C   LIG    1        7.896  -0.248   4.545  0.00  0.00    +0.040 C 
ATOM     11  C   LIG    1        6.588  -0.830   3.983  0.00  0.00    +0.060 C 
BRANCH   8  13
ATOM     12  C   LIG    1        5.313   2.552   5.009  0.00  0.00    +0.200 C 
ATOM     13  O   LIG    1        5.435   1.128   4.986  0.00  0.00    -0.360 OA
ENDBRANCH   8  13
ENDBRANCH   7   8
ENDBRANCH   1   7
BRANCH   4  14
ATOM     14  C   LIG    1        1.182  -0.537   0.387  0.00  0.00    +0.310 C 
BRANCH  14  15
ATOM     15  C   LIG    1        0.049  -1.544   0.594  0.00  0.00    -0.010 C 
ATOM     16  C   LIG    1       -0.811  -1.157   1.825  0.00  0.00    +0.080 C 
ATOM     17  C   LIG    1       -2.175  -1.809   1.465  0.00  0.00    +0.250 C 
ATOM     18  N   LIG    1       -2.306  -1.630   0.004  0.00  0.00    -0.360 N 
ATOM     19  H   LIG    1       -2.853  -0.804  -0.190  0.00  0.00    +0.420 HD
ATOM     20  C   LIG    1       -0.958  -1.479  -0.574  0.00  0.00    +0.280 C 
BRANCH  18  21
ATOM     21  C   LIG    1       -2.964  -2.808  -0.578  0.00  0.00    +0.100 C 
ATOM     22  C   LIG    1       -4.157  -2.564  -1.505  0.00  0.00    +0.100 C 
ATOM     23  C   LIG    1       -4.381  -3.133  -0.102  0.00  0.00    +0.090 C 
ENDBRANCH  18  21
ENDBRANCH  14  15
ENDBRANCH   4  14
TORSDOF 6
