REMARK  Name = ZINCkj000005hYvh.0
REMARK                            x       y       z     vdW  Elec       q    Type
REMARK                         _______ _______ _______ _____ _____    ______ ____
ROOT
ATOM      1  N   LIG    1       -0.077   0.013   0.208  0.00  0.00    -0.730 N 
ATOM      2  H   LIG    1        0.780  -0.439   0.252  0.00  0.00    +0.400 HD
ATOM      3  C   LIG    1       -0.135   1.357   0.289  0.00  0.00    +0.700 C 
ATOM      4  N   LIG    1        0.999   2.073   0.431  0.00  0.00    -0.750 N 
ATOM      5  H   LIG    1        1.855   1.621   0.476  0.00  0.00    +0.400 HD
ATOM      6  O   LIG    1       -1.208   1.924   0.229  0.00  0.00    -0.580 OA
ENDROOT
BRANCH   1   7
ATOM      7  C   LIG    1       -1.308  -0.765   0.053  0.00  0.00    +0.270 C 
BRANCH   7   8
ATOM      8  C   LIG    1       -0.959  -2.244  -0.126  0.00  0.00    +0.070 C 
ATOM      9  C   LIG    1       -0.458  -2.592  -1.538  0.00  0.00    +0.060 C 
ATOM     10  C   LIG    1       -1.285  -3.884  -1.427  0.00  0.00    +0.020 C 
ATOM     11  C   LIG    1       -2.177  -3.133  -0.424  0.00  0.00    +0.010 C 
BRANCH   8  13
ATOM     12  C   LIG    1       -0.722  -2.694   2.216  0.00  0.00    +0.210 C 
ATOM     13  O   LIG    1       -0.124  -2.747   0.920  0.00  0.00    -0.360 OA
ENDBRANCH   8  13
ENDBRANCH   7   8
ENDBRANCH   1   7
BRANCH   4  14
ATOM     14  C   LIG    1        0.936   3.534   0.520  0.00  0.00    +0.310 C 
BRANCH  14  15
ATOM     15  C   LIG    1        2.350   4.097   0.676  0.00  0.00    -0.010 C 
ATOM     16  C   LIG    1        3.143   3.960  -0.644  0.00  0.00    +0.080 C 
ATOM     17  C   LIG    1        3.948   5.266  -0.767  0.00  0.00    +0.260 C 
ATOM     18  N   LIG    1        3.647   6.076   0.433  0.00  0.00    -0.370 N 
ATOM     19  H   LIG    1        4.338   5.908   1.149  0.00  0.00    +0.420 HD
ATOM     20  C   LIG    1        2.309   5.630   0.898  0.00  0.00    +0.280 C 
BRANCH  18  21
ATOM     21  C   LIG    1        3.612   7.503   0.086  0.00  0.00    +0.100 C 
ATOM     22  C   LIG    1        4.678   8.408   0.707  0.00  0.00    +0.100 C 
ATOM     23  C   LIG    1        3.229   8.490   1.191  0.00  0.00    +0.100 C 
ENDBRANCH  18  21
ENDBRANCH  14  15
ENDBRANCH   4  14
TORSDOF 6
