REMARK  Name = ZINCkj000005gnwv.0
REMARK                            x       y       z     vdW  Elec       q    Type
REMARK                         _______ _______ _______ _____ _____    ______ ____
ROOT
ATOM      1  N   LIG    1       -2.433   0.974   0.019  0.00  0.00    -0.490 N 
ATOM      2  H   LIG    1       -2.416   0.446   0.878  0.00  0.00    +0.440 HD
ATOM      3  H   LIG    1       -2.329   0.346  -0.764  0.00  0.00    +0.430 HD
ENDROOT
BRANCH   1   4
ATOM      4  C   LIG    1       -3.712   1.688  -0.092  0.00  0.00    +0.230 C 
ATOM      5  C   LIG    1       -3.789   2.389  -1.450  0.00  0.00    +0.100 C 
BRANCH   4  10
ATOM      6  C   LIG    1       -7.023   0.138   0.864  0.00  0.00    +0.150 A 
ATOM      7  C   LIG    1       -6.930  -1.105   0.255  0.00  0.00    -0.050 A 
ATOM      8  C   LIG    1       -5.798  -1.438  -0.463  0.00  0.00    +0.080 A 
ATOM      9  C   LIG    1       -4.758  -0.534  -0.575  0.00  0.00    -0.040 A 
ATOM     10  C   LIG    1       -4.848   0.705   0.031  0.00  0.00    -0.100 A 
ATOM     11  C   LIG    1       -5.976   1.042   0.755  0.00  0.00    +0.010 A 
BRANCH   6  12
ATOM     12  O   LIG    1       -8.136   0.468   1.572  0.00  0.00    -0.310 OA
BRANCH  12  14
ATOM     13  C   LIG    1      -10.333   0.034   2.479  0.00  0.00    +0.070 C 
ATOM     14  C   LIG    1       -9.171  -0.514   1.648  0.00  0.00    +0.190 C 
ENDBRANCH  12  14
ENDBRANCH   6  12
ENDBRANCH   4  10
ENDBRANCH   1   4
BRANCH   1  15
ATOM     15  C   LIG    1       -1.330   1.944   0.019  0.00  0.00    +0.180 C 
ATOM     16  C   LIG    1       -1.417   2.816   1.273  0.00  0.00    +0.120 C 
BRANCH  15  17
ATOM     17  C   LIG    1       -0.014   1.208   0.009  0.00  0.00    +0.520 C 
ATOM     18  N   LIG    1        1.143   1.898   0.001  0.00  0.00    -0.670 N 
ATOM     19  H   LIG    1        1.130   2.868   0.007  0.00  0.00    +0.420 HD
ATOM     20  C   LIG    1        2.320   1.240  -0.013  0.00  0.00    +0.700 C 
ATOM     21  O   LIG    1        2.336   0.025  -0.020  0.00  0.00    -0.520 OA
ATOM     22  N   LIG    1        3.478   1.930  -0.021  0.00  0.00    -0.840 N 
ATOM     23  H   LIG    1        4.324   1.456  -0.031  0.00  0.00    +0.430 HD
ATOM     24  H   LIG    1        3.465   2.900  -0.015  0.00  0.00    +0.410 HD
ATOM     25  O   LIG    1        0.002  -0.004   0.002  0.00  0.00    -0.450 OA
ENDBRANCH  15  17
ENDBRANCH   1  15
TORSDOF 6
