REMARK  Name = ZINCpk000000n9xS.0
REMARK                            x       y       z     vdW  Elec       q    Type
REMARK                         _______ _______ _______ _____ _____    ______ ____
ROOT
ATOM      1  C   LIG    1        1.963  -0.092  -1.356  0.00  0.00    +0.660 C 
ATOM      2  N   LIG    1        2.651  -0.492  -2.443  0.00  0.00    -0.600 N 
ATOM      3  C   LIG    1        2.024  -1.349  -3.461  0.00  0.00    +0.300 C 
ATOM      4  C   LIG    1        2.244  -0.703  -4.837  0.00  0.00    +0.180 C 
ATOM      5  N   LIG    1        3.679  -0.456  -5.033  0.00  0.00    -0.550 NA
ATOM      6  C   LIG    1        4.194   0.503  -4.047  0.00  0.00    +0.200 C 
ATOM      7  C   LIG    1        4.052  -0.089  -2.640  0.00  0.00    +0.310 C 
ATOM      8  O   LIG    1        2.499   0.612  -0.522  0.00  0.00    -0.570 OA
ENDROOT
BRANCH   1   9
ATOM      9  O   LIG    1        0.682  -0.472  -1.193  0.00  0.00    -0.360 OA
BRANCH   9  11
ATOM     10  C   LIG    1       -0.019   1.526   0.010  0.00  0.00    +0.040 C 
ATOM     11  C   LIG    1        0.002  -0.004   0.002  0.00  0.00    +0.140 C 
ATOM     12  C   LIG    1       -1.433  -0.534   0.013  0.00  0.00    +0.080 C 
ATOM     13  C   LIG    1        0.742  -0.511   1.242  0.00  0.00    +0.040 C 
ENDBRANCH   9  11
ENDBRANCH   1   9
BRANCH   5  14
ATOM     14  C   LIG    1        3.954  -0.002  -6.402  0.00  0.00    +0.460 C 
BRANCH  14  15
ATOM     15  N   LIG    1        3.996  -1.157  -7.301  0.00  0.00    -0.580 N 
ATOM     16  C   LIG    1        5.130  -1.841  -7.571  0.00  0.00    +0.550 C 
ATOM     17  C   LIG    1        4.801  -2.778  -8.697  0.00  0.00    -0.010 C 
ATOM     18  C   LIG    1        5.623  -4.020  -8.806  0.00  0.00    +0.110 C 
ATOM     19  C   LIG    1        5.120  -5.150  -7.965  0.00  0.00    -0.030 C 
ATOM     20  C   LIG    1        3.970  -5.140  -7.378  0.00  0.00    -0.040 C 
ATOM     21  C   LIG    1        3.008  -4.003  -7.408  0.00  0.00    +0.090 C 
ATOM     22  C   LIG    1        3.289  -3.000  -8.530  0.00  0.00    +0.040 C 
ATOM     23  O   LIG    1        6.200  -1.724  -7.013  0.00  0.00    -0.460 OA
ATOM     24  C   LIG    1        2.909  -1.632  -7.939  0.00  0.00    +0.530 C 
ATOM     25  O   LIG    1        1.831  -1.084  -8.031  0.00  0.00    -0.470 OA
ENDBRANCH  14  15
ENDBRANCH   5  14
TORSDOF 4
