REMARK  Name = ZINCrH000004pzrb.0
REMARK                            x       y       z     vdW  Elec       q    Type
REMARK                         _______ _______ _______ _____ _____    ______ ____
ROOT
ATOM      1  C   LIG    1        2.543   7.533  -3.599  0.00  0.00    +0.080 C 
ATOM      2  C   LIG    1        1.164   7.855  -3.020  0.00  0.00    +0.020 C 
ENDROOT
BRANCH   2   3
ATOM      3  C   LIG    1        1.086   7.355  -1.601  0.00  0.00    +0.540 C 
ATOM      4  N   LIG    1        0.847   6.051  -1.358  0.00  0.00    -0.720 N 
ATOM      5  H   LIG    1        0.725   5.435  -2.097  0.00  0.00    +0.410 HD
ATOM      6  O   LIG    1        1.239   8.126  -0.677  0.00  0.00    -0.520 OA
BRANCH   4   7
ATOM      7  C   LIG    1        0.771   5.565   0.022  0.00  0.00    +0.340 C 
BRANCH   7   8
ATOM      8  C   LIG    1        0.496   4.083   0.018  0.00  0.00    -0.110 A 
ATOM      9  C   LIG    1       -0.808   3.624   0.028  0.00  0.00    +0.050 A 
ATOM     10  C   LIG    1       -1.065   2.265   0.019  0.00  0.00    +0.040 A 
ATOM     11  C   LIG    1       -0.016   1.361   0.009  0.00  0.00    +0.040 A 
ATOM     12  O   LIG    1        0.002  -0.004   0.002  0.00  0.00    -0.310 OA
ATOM     13  C   LIG    1        1.336  -0.373   0.399  0.00  0.00    +0.430 C 
ATOM     14  O   LIG    1        2.139   0.749  -0.014  0.00  0.00    -0.310 OA
ATOM     15  C   LIG    1        1.297   1.824  -0.001  0.00  0.00    +0.030 A 
ATOM     16  C   LIG    1        1.548   3.186   0.004  0.00  0.00    +0.060 A 
ENDBRANCH   7   8
ENDBRANCH   4   7
ENDBRANCH   2   3
BRANCH   2  17
ATOM     17  S   LIG    1        0.903   9.646  -3.044  0.00  0.00    +0.070 S 
BRANCH  17  18
ATOM     18  C   LIG    1        0.893   9.931  -4.782  0.00  0.00    +0.260 A 
ATOM     19  N   LIG    1        1.045   9.005  -5.698  0.00  0.00    -0.490 NA
ATOM     20  C   LIG    1        0.985   9.570  -6.932  0.00  0.00    +0.070 A 
ATOM     21  C   LIG    1        1.083   9.057  -8.228  0.00  0.00    +0.080 A 
ATOM     22  C   LIG    1        0.979   9.905  -9.309  0.00  0.00    -0.040 A 
ATOM     23  C   LIG    1        0.777  11.265  -9.121  0.00  0.00    +0.050 A 
ATOM     24  C   LIG    1        0.678  11.786  -7.847  0.00  0.00    +0.040 A 
ATOM     25 CL   LIG    1        1.100   9.267 -10.919  0.00  0.00    -0.060 Cl
ATOM     26  C   LIG    1        0.781  10.948  -6.748  0.00  0.00    +0.060 A 
ATOM     27  N   LIG    1        0.721  11.149  -5.378  0.00  0.00    -0.470 N 
ATOM     28  C   LIG    1        0.514  12.428  -4.695  0.00  0.00    +0.330 C 
ENDBRANCH  17  18
ENDBRANCH   2  17
TORSDOF 5
