REMARK  Name = ZINCAx0000000bA5.0
REMARK                            x       y       z     vdW  Elec       q    Type
REMARK                         _______ _______ _______ _____ _____    ______ ____
ROOT
ATOM      1  N   LIG    1       -2.030  10.744  -0.438  0.00  0.00    -0.560 N 
ATOM      2  C   LIG    1       -2.654  11.040  -1.583  0.00  0.00    +0.710 C 
ATOM      3  N   LIG    1       -3.800  11.716  -1.384  0.00  0.00    -0.710 N 
ATOM      4  H   LIG    1       -4.415  12.029  -2.067  0.00  0.00    +0.440 HD
ATOM      5  C   LIG    1       -3.939  11.891   0.072  0.00  0.00    +0.180 C 
ATOM      6  O   LIG    1       -2.235  10.730  -2.681  0.00  0.00    -0.530 OA
ATOM      7  C   LIG    1       -2.706  11.208   0.631  0.00  0.00    +0.550 C 
ATOM      8  O   LIG    1       -2.394  11.101   1.798  0.00  0.00    -0.450 OA
ENDROOT
BRANCH   5   9
ATOM      9  C   LIG    1       -5.191  11.216   0.571  0.00  0.00    -0.110 A 
ATOM     10  C   LIG    1       -5.790  11.649   1.738  0.00  0.00    +0.040 A 
ATOM     11  C   LIG    1       -6.941  11.033   2.194  0.00  0.00    +0.010 A 
ATOM     12  C   LIG    1       -7.487   9.979   1.486  0.00  0.00    +0.030 A 
ATOM     13  C   LIG    1       -6.884   9.542   0.321  0.00  0.00    +0.010 A 
ATOM     14  C   LIG    1       -5.736  10.161  -0.137  0.00  0.00    +0.030 A 
ENDBRANCH   5   9
BRANCH   1  15
ATOM     15  C   LIG    1       -0.763  10.012  -0.356  0.00  0.00    +0.370 C 
BRANCH  15  17
ATOM     16  O   LIG    1       -2.187   8.134  -0.240  0.00  0.00    -0.440 OA
ATOM     17  C   LIG    1       -1.043   8.535  -0.248  0.00  0.00    +0.500 C 
ATOM     18  N   LIG    1       -0.022   7.660  -0.161  0.00  0.00    -0.680 N 
ATOM     19  H   LIG    1        0.894   7.981  -0.167  0.00  0.00    +0.410 HD
ATOM     20  C   LIG    1       -0.272   6.340  -0.064  0.00  0.00    +0.700 C 
ATOM     21  N   LIG    1        0.750   5.465   0.024  0.00  0.00    -0.670 N 
ATOM     22  H   LIG    1        1.661   5.789   0.095  0.00  0.00    +0.410 HD
ATOM     23  O   LIG    1       -1.419   5.937  -0.056  0.00  0.00    -0.500 OA
BRANCH  21  24
ATOM     24  C   LIG    1        0.495   4.087   0.012  0.00  0.00    +0.170 A 
ATOM     25  C   LIG    1        1.301   3.226   0.744  0.00  0.00    +0.010 A 
ATOM     26  C   LIG    1        1.049   1.867   0.737  0.00  0.00    +0.060 A 
ATOM     27  C   LIG    1       -0.003   1.359  -0.008  0.00  0.00    +0.020 A 
ATOM     28  O   LIG    1       -0.453   0.082  -0.183  0.00  0.00    -0.310 OA
ATOM     29  C   LIG    1       -1.291   0.127  -1.353  0.00  0.00    +0.430 C 
ATOM     30  O   LIG    1       -1.771   1.484  -1.379  0.00  0.00    -0.310 OA
ATOM     31  C   LIG    1       -0.814   2.221  -0.744  0.00  0.00    +0.060 A 
ATOM     32  C   LIG    1       -0.563   3.583  -0.732  0.00  0.00    +0.050 A 
ENDBRANCH  21  24
ENDBRANCH  15  17
ENDBRANCH   1  15
BRANCH   5  33
ATOM     33  C   LIG    1       -3.946  13.376   0.441  0.00  0.00    +0.130 C 
BRANCH  33  34
ATOM     34  C   LIG    1       -2.776  14.062  -0.216  0.00  0.00    -0.100 A 
ATOM     35  C   LIG    1       -1.564  14.146   0.445  0.00  0.00    +0.000 A 
ATOM     36  C   LIG    1       -0.490  14.773  -0.160  0.00  0.00    +0.000 A 
ATOM     37  C   LIG    1       -0.629  15.321  -1.421  0.00  0.00    +0.000 A 
ATOM     38  C   LIG    1       -1.842  15.241  -2.079  0.00  0.00    +0.000 A 
ATOM     39  C   LIG    1       -2.915  14.611  -1.477  0.00  0.00    +0.020 A 
ENDBRANCH  33  34
ENDBRANCH   5  33
TORSDOF 6
