REMARK  Name = ZINCvU0000000EbW.0
REMARK                            x       y       z     vdW  Elec       q    Type
REMARK                         _______ _______ _______ _____ _____    ______ ____
ROOT
ATOM      1  N   LIG    1        1.883   3.000  -0.001  0.00  0.00    -0.510 N 
ATOM      2  C   LIG    1        3.189   3.324  -0.100  0.00  0.00    +0.570 C 
ATOM      3  C   LIG    1        3.352   4.787  -0.065  0.00  0.00    +0.100 A 
ATOM      4  C   LIG    1        2.115   5.353   0.071  0.00  0.00    -0.240 A 
ATOM      5  C   LIG    1        1.955   6.809   0.152  0.00  0.00    +0.460 A 
ATOM      6  C   LIG    1        3.238   7.541   0.303  0.00  0.00    -0.200 A 
ATOM      7  C   LIG    1        3.242   8.905   0.593  0.00  0.00    +0.140 A 
ATOM      8  C   LIG    1        4.443   9.567   0.735  0.00  0.00    -0.060 A 
ATOM      9  C   LIG    1        5.639   8.876   0.591  0.00  0.00    +0.120 A 
ATOM     10  C   LIG    1        5.646   7.530   0.303  0.00  0.00    +0.040 A 
ATOM     11 CL   LIG    1        4.460  11.265   1.095  0.00  0.00    -0.040 Cl
ATOM     12  C   LIG    1        4.445   6.839   0.151  0.00  0.00    +0.150 A 
ATOM     13  O   LIG    1        0.872   7.364   0.101  0.00  0.00    -0.420 OA
ATOM     14  O   LIG    1        4.481   5.519  -0.144  0.00  0.00    -0.180 OA
ATOM     15  O   LIG    1        4.098   2.525  -0.206  0.00  0.00    -0.440 OA
ATOM     16  C   LIG    1        1.112   4.248   0.117  0.00  0.00    +0.370 C 
ENDROOT
BRANCH   1  20
ATOM     17  C   LIG    1       -1.194  -0.921   0.009  0.00  0.00    +0.200 C 
ATOM     18  C   LIG    1        0.002  -0.004   0.002  0.00  0.00    -0.010 A 
ATOM     19  C   LIG    1       -0.016   1.348   0.009  0.00  0.00    -0.060 A 
ATOM     20  C   LIG    1        1.357   1.710  -0.002  0.00  0.00    +0.270 A 
ATOM     21  N   LIG    1        2.030   0.588  -0.014  0.00  0.00    -0.350 NA
ATOM     22  O   LIG    1        1.292  -0.370  -0.012  0.00  0.00    +0.110 OA
ENDBRANCH   1  20
BRANCH  16  23
ATOM     23  C   LIG    1        0.148   4.374  -1.035  0.00  0.00    -0.110 A 
ATOM     24  C   LIG    1        0.531   3.978  -2.303  0.00  0.00    +0.020 A 
ATOM     25  C   LIG    1       -0.354   4.090  -3.359  0.00  0.00    +0.010 A 
ATOM     26  C   LIG    1       -1.619   4.605  -3.149  0.00  0.00    -0.060 A 
ATOM     27  C   LIG    1       -2.001   5.005  -1.882  0.00  0.00    +0.020 A 
ATOM     28  C   LIG    1       -1.117   4.890  -0.825  0.00  0.00    +0.050 A 
BRANCH  26  29
ATOM     29  C   LIG    1       -2.583   4.729  -4.301  0.00  0.00    +0.020 C 
ATOM     30  C   LIG    1       -2.842   3.346  -4.901  0.00  0.00    +0.040 C 
ATOM     31  C   LIG    1       -1.985   5.646  -5.370  0.00  0.00    +0.030 C 
ENDBRANCH  26  29
ENDBRANCH  16  23
TORSDOF 3
