REMARK  Name = ZINCtV000002FZQY.0
REMARK                            x       y       z     vdW  Elec       q    Type
REMARK                         _______ _______ _______ _____ _____    ______ ____
ROOT
ATOM      1  C   LIG    1        2.277  -4.327  -0.347  0.00  0.00    -0.000 A 
ATOM      2  C   LIG    1        3.323  -5.104  -0.729  0.00  0.00    -0.090 A 
ATOM      3  C   LIG    1        2.864  -6.488  -0.613  0.00  0.00    -0.130 A 
ATOM      4  C   LIG    1        3.452  -7.732  -0.851  0.00  0.00    +0.070 A 
ATOM      5  C   LIG    1        2.731  -8.873  -0.638  0.00  0.00    +0.010 A 
ATOM      6  C   LIG    1        1.420  -8.804  -0.187  0.00  0.00    +0.060 A 
ATOM      7  C   LIG    1        0.822  -7.586   0.054  0.00  0.00    +0.030 A 
ATOM      8  C   LIG    1        1.535  -6.411  -0.156  0.00  0.00    +0.070 A 
ATOM      9  O   LIG    1        1.230  -5.107  -0.006  0.00  0.00    -0.180 OA
ENDROOT
BRANCH   1  12
ATOM     10  N   LIG    1        1.185  -2.189   0.091  0.00  0.00    -0.660 N 
ATOM     11  H   LIG    1        0.412  -2.676   0.416  0.00  0.00    +0.410 HD
ATOM     12  C   LIG    1        2.285  -2.858  -0.306  0.00  0.00    +0.600 C 
ATOM     13  O   LIG    1        3.286  -2.246  -0.630  0.00  0.00    -0.480 OA
BRANCH  10  18
ATOM     14  C   LIG    1        1.073   3.478  -0.143  0.00  0.00    +0.090 C 
ATOM     15  C   LIG    1        1.103   1.972  -0.081  0.00  0.00    -0.070 A 
ATOM     16  C   LIG    1        0.137   1.235  -0.742  0.00  0.00    +0.010 A 
ATOM     17  C   LIG    1        0.162  -0.145  -0.687  0.00  0.00    -0.080 A 
ATOM     18  C   LIG    1        1.157  -0.792   0.033  0.00  0.00    +0.120 A 
ATOM     19  C   LIG    1        2.125  -0.049   0.696  0.00  0.00    -0.060 A 
ATOM     20  C   LIG    1        3.207  -0.747   1.479  0.00  0.00    +0.100 C 
ATOM     21  C   LIG    1       -0.891  -0.947  -1.408  0.00  0.00    +0.090 C 
ATOM     22  C   LIG    1        2.095   1.331   0.637  0.00  0.00    +0.010 A 
ENDBRANCH  10  18
ENDBRANCH   1  12
BRANCH   2  23
ATOM     23  C   LIG    1        4.683  -4.636  -1.179  0.00  0.00    +0.290 C 
BRANCH  23  24
ATOM     24  O   LIG    1        5.548  -4.526  -0.047  0.00  0.00    -0.300 OA
BRANCH  24  25
ATOM     25  C   LIG    1        6.821  -4.112  -0.282  0.00  0.00    +0.140 A 
ATOM     26  C   LIG    1        7.231  -3.823  -1.576  0.00  0.00    -0.080 A 
ATOM     27  C   LIG    1        8.524  -3.398  -1.811  0.00  0.00    +0.040 A 
ATOM     28  C   LIG    1        9.413  -3.270  -0.759  0.00  0.00    -0.040 A 
ATOM     29  C   LIG    1        9.009  -3.562   0.530  0.00  0.00    +0.050 A 
ATOM     30  C   LIG    1        7.715  -3.983   0.771  0.00  0.00    -0.020 A 
ENDBRANCH  24  25
ENDBRANCH  23  24
ENDBRANCH   2  23
TORSDOF 5
