REMARK  Name = ZINCc70000005qNG.0
REMARK                            x       y       z     vdW  Elec       q    Type
REMARK                         _______ _______ _______ _____ _____    ______ ____
ROOT
ATOM      1  C   LIG    1       -1.306   2.065   0.019  0.00  0.00    -0.000 A 
ATOM      2  N   LIG    1       -2.520   1.536   0.017  0.00  0.00    -0.240 NA
ATOM      3  N   LIG    1       -3.382   2.491   0.031  0.00  0.00    -0.220 N 
ATOM      4  H   LIG    1       -4.343   2.362   0.034  0.00  0.00    +0.480 HD
ATOM      5  N   LIG    1       -2.802   3.638   0.035  0.00  0.00    -0.240 NA
ATOM      6  C   LIG    1       -1.503   3.461   0.028  0.00  0.00    -0.020 A 
ENDROOT
BRANCH   1  10
ATOM      7  C   LIG    1        1.281  -0.719  -0.014  0.00  0.00    +0.310 C 
ATOM      8  N   LIG    1        0.002  -0.004   0.002  0.00  0.00    -0.720 N 
ATOM      9  H   LIG    1       -0.831  -0.500   0.007  0.00  0.00    +0.410 HD
ATOM     10  C   LIG    1       -0.016   1.344   0.009  0.00  0.00    +0.600 C 
ATOM     11  O   LIG    1        1.028   1.966   0.003  0.00  0.00    -0.500 OA
ENDBRANCH   1  10
BRANCH   6  12
ATOM     12  C   LIG    1       -0.439   4.529   0.029  0.00  0.00    +0.500 C 
ATOM     13  F   LIG    1        0.351   4.400  -1.119  0.00  0.00    -0.180 F 
ATOM     14  F   LIG    1        0.363   4.388   1.166  0.00  0.00    -0.180 F 
ENDBRANCH   6  12
TORSDOF 2
