REMARK  Name = ZINCnE000001FpSM.1
REMARK                            x       y       z     vdW  Elec       q    Type
REMARK                         _______ _______ _______ _____ _____    ______ ____
ROOT
ATOM      1  C   LIG    1       -1.242   3.549   0.020  0.00  0.00    -0.150 A 
ATOM      2  C   LIG    1       -0.036   4.253   0.003  0.00  0.00    +0.060 A 
ATOM      3  C   LIG    1        1.165   3.571  -0.014  0.00  0.00    +0.010 A 
ATOM      4  C   LIG    1        1.182   2.191  -0.013  0.00  0.00    +0.070 A 
ATOM      5  C   LIG    1       -0.018   1.474   0.004  0.00  0.00    -0.130 A 
ATOM      6  C   LIG    1       -1.233   2.156   0.015  0.00  0.00    +0.150 A 
ENDROOT
BRANCH   1   9
ATOM      7  N   LIG    1       -2.535   5.629   0.038  0.00  0.00    -0.730 N 
ATOM      8  H   LIG    1       -1.698   6.119   0.026  0.00  0.00    +0.400 HD
ATOM      9  C   LIG    1       -2.527   4.281   0.038  0.00  0.00    +0.560 C 
ATOM     10  O   LIG    1       -3.576   3.667   0.053  0.00  0.00    -0.530 OA
BRANCH   7  11
ATOM     11  C   LIG    1       -3.808   6.354   0.055  0.00  0.00    +0.260 C 
BRANCH  11  13
ATOM     12  C   LIG    1       -4.866   8.617   0.070  0.00  0.00    +0.030 C 
ATOM     13  C   LIG    1       -3.537   7.860   0.051  0.00  0.00    +0.000 C 
ENDBRANCH  11  13
ENDBRANCH   7  11
ENDBRANCH   1   9
BRANCH   5  14
ATOM     14  C   LIG    1        0.002  -0.004   0.004  0.00  0.00    +0.540 C 
ATOM     15  N   LIG    1        1.178  -0.662  -0.013  0.00  0.00    -0.640 N 
ATOM     16  H   LIG    1        2.009  -0.168  -0.093  0.00  0.00    +0.400 HD
ATOM     17  O   LIG    1       -1.042  -0.626   0.019  0.00  0.00    -0.520 OA
BRANCH  15  18
ATOM     18  C   LIG    1        1.200  -2.059   0.085  0.00  0.00    -0.020 A 
ATOM     19  C   LIG    1        0.192  -2.812  -0.501  0.00  0.00    +0.070 A 
ATOM     20  C   LIG    1        0.215  -4.190  -0.405  0.00  0.00    -0.140 A 
ATOM     21  C   LIG    1        1.244  -4.821   0.277  0.00  0.00    +0.280 A 
ATOM     22  C   LIG    1        2.253  -4.069   0.864  0.00  0.00    -0.170 A 
ATOM     23 CL   LIG    1        3.541  -4.860   1.717  0.00  0.00    -0.110 Cl
ATOM     24  O   LIG    1        1.265  -6.178   0.371  0.00  0.00    -0.710 OA
ATOM     25  C   LIG    1        2.234  -2.691   0.764  0.00  0.00    +0.030 A 
ENDBRANCH  15  18
ENDBRANCH   5  14
TORSDOF 5
