REMARK  Name = ZINCrH00000No4Ai.0
REMARK                            x       y       z     vdW  Elec       q    Type
REMARK                         _______ _______ _______ _____ _____    ______ ____
ROOT
ATOM      1  C   LIG    1       -4.058   0.262   2.751  0.00  0.00    -0.080 C 
ATOM      2  C   LIG    1       -4.897   0.575   3.757  0.00  0.00    +0.120 C 
ENDROOT
BRANCH   2   3
ATOM      3  C   LIG    1       -6.000  -0.336   4.107  0.00  0.00    -0.050 A 
ATOM      4  C   LIG    1       -6.180  -1.524   3.390  0.00  0.00    +0.020 A 
ATOM      5  C   LIG    1       -7.209  -2.377   3.722  0.00  0.00    +0.040 A 
ATOM      6  C   LIG    1       -8.078  -2.052   4.766  0.00  0.00    -0.130 A 
ATOM      7  C   LIG    1       -7.902  -0.864   5.478  0.00  0.00    +0.080 A 
ATOM      8  C   LIG    1       -6.871  -0.011   5.152  0.00  0.00    +0.040 A 
BRANCH   6   9
ATOM      9  C   LIG    1       -9.185  -2.967   5.117  0.00  0.00    +0.560 C 
ATOM     10  N   LIG    1       -9.356  -4.114   4.430  0.00  0.00    -0.700 N 
ATOM     11  H   LIG    1       -8.752  -4.339   3.705  0.00  0.00    +0.400 HD
ATOM     12  O   LIG    1       -9.942  -2.684   6.025  0.00  0.00    -0.530 OA
BRANCH  10  13
ATOM     13  C   LIG    1      -10.453  -5.020   4.777  0.00  0.00    +0.220 C 
ATOM     14  C   LIG    1      -10.141  -6.516   4.837  0.00  0.00    +0.010 C 
ATOM     15  C   LIG    1      -10.972  -5.953   3.682  0.00  0.00    +0.020 C 
ENDBRANCH  10  13
ENDBRANCH   6   9
ENDBRANCH   2   3
BRANCH   1  17
ATOM     16  O   LIG    1       -2.806   2.204   3.023  0.00  0.00    -0.520 OA
ATOM     17  C   LIG    1       -2.960   1.169   2.403  0.00  0.00    +0.550 C 
ATOM     18  N   LIG    1       -2.120   0.856   1.396  0.00  0.00    -0.710 N 
ATOM     19  H   LIG    1       -2.289   0.071   0.850  0.00  0.00    +0.400 HD
BRANCH  18  20
ATOM     20  C   LIG    1       -0.954   1.700   1.124  0.00  0.00    +0.190 C 
ATOM     21  C   LIG    1       -0.034   1.889   2.342  0.00  0.00    +0.040 C 
ATOM     22  C   LIG    1        0.710   0.625   1.881  0.00  0.00    +0.010 C 
ATOM     23  C   LIG    1        0.212   0.945   0.461  0.00  0.00    +0.050 C 
BRANCH  20  24
ATOM     24  C   LIG    1       -1.312   2.990   0.432  0.00  0.00    -0.070 A 
ATOM     25  C   LIG    1       -0.384   4.011   0.349  0.00  0.00    +0.010 A 
ATOM     26  C   LIG    1       -0.711   5.192  -0.290  0.00  0.00    +0.000 A 
ATOM     27  C   LIG    1       -1.969   5.356  -0.838  0.00  0.00    +0.000 A 
ATOM     28  C   LIG    1       -2.899   4.337  -0.751  0.00  0.00    +0.000 A 
ATOM     29  C   LIG    1       -2.571   3.154  -0.116  0.00  0.00    +0.010 A 
ENDBRANCH  20  24
ENDBRANCH  18  20
ENDBRANCH   1  17
TORSDOF 6
