REMARK  Name = ZINCb80000002mwE.0
REMARK                            x       y       z     vdW  Elec       q    Type
REMARK                         _______ _______ _______ _____ _____    ______ ____
ROOT
ATOM      1  C   LIG    1       -0.013   1.086   0.008  0.00  0.00    +0.140 C 
ATOM      2  N   LIG    1        1.366   1.592  -0.002  0.00  0.00    -0.680 NA
ATOM      3  H   LIG    1        1.906   1.187   0.748  0.00  0.00    +0.350 HD
ATOM      4  C   LIG    1        1.994   1.328  -1.307  0.00  0.00    +0.170 C 
ATOM      5  C   LIG    1        1.324   2.209  -2.363  0.00  0.00    +0.270 C 
ATOM      6  N   LIG    1       -0.128   2.074  -2.279  0.00  0.00    -0.720 N 
ATOM      7  H   LIG    1       -0.663   2.353  -3.038  0.00  0.00    +0.400 HD
ATOM      8  C   LIG    1       -0.751   1.581  -1.203  0.00  0.00    +0.530 C 
ATOM      9  O   LIG    1       -1.963   1.533  -1.206  0.00  0.00    -0.550 OA
ENDROOT
BRANCH   1  10
ATOM     10  C   LIG    1       -0.725   1.577   1.270  0.00  0.00    +0.050 C 
BRANCH  10  11
ATOM     11  C   LIG    1       -0.055   0.968   2.503  0.00  0.00    +0.010 C 
BRANCH  11  13
ATOM     12  C   LIG    1       -0.097   0.851   4.999  0.00  0.00    +0.000 C 
ATOM     13  C   LIG    1       -0.766   1.460   3.765  0.00  0.00    +0.000 C 
ENDBRANCH  11  13
ENDBRANCH  10  11
ENDBRANCH   1  10
TORSDOF 3
