REMARK  Name = ZINCpe000000Ydvn.0
REMARK                            x       y       z     vdW  Elec       q    Type
REMARK                         _______ _______ _______ _____ _____    ______ ____
ROOT
ATOM      1  C   LIG    1        0.373   4.877   4.773  0.00  0.00    +0.350 C 
ATOM      2  N   LIG    1        0.431   5.120   3.329  0.00  0.00    -0.550 N 
ATOM      3  C   LIG    1        0.698   4.095   2.493  0.00  0.00    +0.600 A 
ATOM      4  C   LIG    1        0.752   4.336   1.103  0.00  0.00    -0.140 A 
ATOM      5  C   LIG    1        0.529   5.623   0.630  0.00  0.00    +0.320 A 
ATOM      6  N   LIG    1        0.260   6.633   1.540  0.00  0.00    -0.510 N 
ATOM      7  C   LIG    1        0.022   7.999   1.067  0.00  0.00    +0.350 C 
ATOM      8  N   LIG    1        0.636   5.579  -0.700  0.00  0.00    -0.490 NA
ATOM      9  C   LIG    1        0.914   4.359  -1.083  0.00  0.00    +0.510 A 
ATOM     10  N   LIG    1        0.990   3.552  -0.007  0.00  0.00    -0.400 N 
ATOM     11  O   LIG    1        0.889   2.976   2.933  0.00  0.00    -0.510 OA
ATOM     12  C   LIG    1        0.218   6.361   2.858  0.00  0.00    +0.710 A 
ATOM     13  O   LIG    1       -0.020   7.260   3.641  0.00  0.00    -0.530 OA
ENDROOT
BRANCH  10  14
ATOM     14  C   LIG    1        1.278   2.115  -0.015  0.00  0.00    +0.370 C 
BRANCH  14  15
ATOM     15  C   LIG    1       -0.017   1.344   0.005  0.00  0.00    +0.510 C 
ATOM     16  N   LIG    1        0.002  -0.004   0.002  0.00  0.00    -0.660 N 
ATOM     17  H   LIG    1        0.845  -0.477  -0.078  0.00  0.00    +0.420 HD
ATOM     18  O   LIG    1       -1.075   1.935   0.018  0.00  0.00    -0.500 OA
BRANCH  16  19
ATOM     19  C   LIG    1       -1.196  -0.722   0.115  0.00  0.00    +0.120 A 
ATOM     20  C   LIG    1       -2.358  -0.230  -0.462  0.00  0.00    +0.080 A 
ATOM     21  C   LIG    1       -3.537  -0.942  -0.354  0.00  0.00    +0.050 A 
ATOM     22  C   LIG    1       -3.563  -2.139   0.339  0.00  0.00    -0.020 A 
ATOM     23  C   LIG    1       -2.408  -2.631   0.921  0.00  0.00    +0.020 A 
ATOM     24 CL   LIG    1       -5.049  -3.027   0.477  0.00  0.00    -0.050 Cl
ATOM     25  C   LIG    1       -1.224  -1.925   0.811  0.00  0.00    +0.090 A 
ATOM     26  F   LIG    1       -0.096  -2.405   1.380  0.00  0.00    -0.130 F 
ENDBRANCH  16  19
ENDBRANCH  14  15
ENDBRANCH  10  14
TORSDOF 3
