REMARK  Name = ZINCpk00000y6yWA.0
REMARK                            x       y       z     vdW  Elec       q    Type
REMARK                         _______ _______ _______ _____ _____    ______ ____
ROOT
ATOM      1  C   LIG    1       -2.030   7.300   2.140  0.00  0.00    -0.020 C 
ATOM      2  C   LIG    1       -2.289   6.581   3.476  0.00  0.00    +0.040 C 
ATOM      3  C   LIG    1       -3.278   7.462   4.266  0.00  0.00    -0.010 C 
ATOM      4  C   LIG    1       -4.005   8.289   3.176  0.00  0.00    -0.010 C 
ATOM      5  C   LIG    1       -2.872   8.592   2.165  0.00  0.00    +0.040 C 
ENDROOT
BRANCH   1   6
ATOM      6  C   LIG    1       -0.545   7.643   2.007  0.00  0.00    +0.070 C 
BRANCH   6   8
ATOM      7  O   LIG    1       -1.276   8.805   0.087  0.00  0.00    -0.530 OA
ATOM      8  C   LIG    1       -0.326   8.448   0.752  0.00  0.00    +0.520 C 
ATOM      9  N   LIG    1        0.925   8.770   0.368  0.00  0.00    -0.700 N 
ATOM     10  H   LIG    1        1.687   8.428   0.861  0.00  0.00    +0.410 HD
BRANCH   9  11
ATOM     11  C   LIG    1        1.134   9.638  -0.793  0.00  0.00    +0.100 C 
ATOM     12  C   LIG    1        0.414   9.281  -2.140  0.00  0.00    +0.240 C 
ATOM     13  O   LIG    1        0.934  10.389  -2.971  0.00  0.00    -0.360 OA
ATOM     14  C   LIG    1        1.780  11.107  -2.022  0.00  0.00    +0.200 C 
ATOM     15  C   LIG    1        1.059  11.190  -0.646  0.00  0.00    +0.030 C 
ATOM     16  C   LIG    1        2.561   9.985  -1.295  0.00  0.00    +0.010 C 
ENDBRANCH   9  11
ENDBRANCH   6   8
ENDBRANCH   1   6
BRANCH   1  17
ATOM     17  C   LIG    1       -2.469   6.411   0.974  0.00  0.00    +0.070 C 
BRANCH  17  18
ATOM     18  C   LIG    1       -1.710   5.110   1.021  0.00  0.00    +0.520 C 
ATOM     19  N   LIG    1       -1.861   4.206   0.032  0.00  0.00    -0.700 N 
ATOM     20  H   LIG    1       -2.401   4.422  -0.744  0.00  0.00    +0.410 HD
ATOM     21  O   LIG    1       -0.965   4.876   1.948  0.00  0.00    -0.530 OA
BRANCH  19  22
ATOM     22  C   LIG    1       -1.210   2.898   0.130  0.00  0.00    +0.100 C 
ATOM     23  C   LIG    1        0.356   2.839   0.204  0.00  0.00    +0.230 C 
ATOM     24  O   LIG    1        0.533   1.396   0.255  0.00  0.00    -0.360 OA
ATOM     25  C   LIG    1       -0.844   0.912   0.212  0.00  0.00    +0.200 C 
ATOM     26  C   LIG    1       -1.719   1.800   1.143  0.00  0.00    +0.030 C 
ATOM     27  C   LIG    1       -1.507   1.770  -0.893  0.00  0.00    +0.010 C 
ENDBRANCH  19  22
ENDBRANCH  17  18
ENDBRANCH   1  17
TORSDOF 6
