REMARK  Name = ZINCpk00000e1Fgb.0
REMARK                            x       y       z     vdW  Elec       q    Type
REMARK                         _______ _______ _______ _____ _____    ______ ____
ROOT
ATOM      1  O   LIG    1        0.002  -0.004   0.013  0.00  0.00    -0.490 OA
ATOM      2  C   LIG    1       -0.014   1.209   0.011  0.00  0.00    +0.520 C 
ATOM      3  N   LIG    1        1.143   1.898   0.001  0.00  0.00    -0.660 N 
ATOM      4  H   LIG    1        1.131   2.866  -0.068  0.00  0.00    +0.420 HD
ENDROOT
BRANCH   3   5
ATOM      5  C   LIG    1        2.365   1.218   0.092  0.00  0.00    +0.150 A 
ATOM      6  C   LIG    1        2.513  -0.025  -0.508  0.00  0.00    +0.040 A 
ATOM      7  C   LIG    1        3.717  -0.698  -0.420  0.00  0.00    +0.060 A 
ATOM      8  C   LIG    1        4.779  -0.133   0.267  0.00  0.00    +0.020 A 
ATOM      9  O   LIG    1        6.049  -0.583   0.497  0.00  0.00    -0.310 OA
ATOM     10  C   LIG    1        6.546   0.212   1.589  0.00  0.00    +0.430 C 
ATOM     11  O   LIG    1        5.811   1.445   1.477  0.00  0.00    -0.310 OA
ATOM     12  C   LIG    1        4.634   1.114   0.870  0.00  0.00    +0.050 A 
ATOM     13  C   LIG    1        3.429   1.790   0.776  0.00  0.00    +0.020 A 
ENDBRANCH   3   5
BRANCH   2  14
ATOM     14  C   LIG    1       -1.330   1.945   0.012  0.00  0.00    +0.240 C 
BRANCH  14  15
ATOM     15  O   LIG    1       -2.403   1.002   0.016  0.00  0.00    -0.280 OA
BRANCH  15  16
ATOM     16  C   LIG    1       -3.666   1.504   0.018  0.00  0.00    +0.140 A 
ATOM     17  C   LIG    1       -3.866   2.877   0.022  0.00  0.00    -0.040 A 
ATOM     18  C   LIG    1       -5.149   3.388   0.018  0.00  0.00    +0.060 A 
ATOM     19  C   LIG    1       -6.238   2.528   0.022  0.00  0.00    +0.090 A 
ATOM     20  C   LIG    1       -6.038   1.154   0.024  0.00  0.00    +0.090 A 
ATOM     21  C   LIG    1       -4.755   0.644   0.022  0.00  0.00    +0.030 A 
BRANCH  19  22
ATOM     22  N   LIG    1       -7.542   3.046   0.024  0.00  0.00    -0.320 N 
ATOM     23  C   LIG    1       -7.908   4.346   0.028  0.00  0.00    +0.460 A 
ATOM     24  N   LIG    1       -9.215   4.383   0.027  0.00  0.00    -0.330 NA
ATOM     25  N   LIG    1       -9.700   3.194   0.030  0.00  0.00    -0.030 NA
ATOM     26  N   LIG    1       -8.749   2.324   0.029  0.00  0.00    -0.080 NA
ENDBRANCH  19  22
ENDBRANCH  15  16
ENDBRANCH  14  15
ENDBRANCH   2  14
TORSDOF 5
