REMARK  Name = ZINCrH000004ngcL.0
REMARK                            x       y       z     vdW  Elec       q    Type
REMARK                         _______ _______ _______ _____ _____    ______ ____
ROOT
ATOM      1  C   LIG    1        3.045   3.080   1.118  0.00  0.00    +0.590 C 
ATOM      2  N   LIG    1        2.183   4.034   0.713  0.00  0.00    -0.610 N 
ATOM      3  C   LIG    1        0.737   3.897   0.951  0.00  0.00    +0.240 C 
ATOM      4  C   LIG    1        0.001   4.144  -0.366  0.00  0.00    +0.220 C 
ATOM      5  O   LIG    1        0.438   5.385  -0.926  0.00  0.00    -0.370 OA
ATOM      6  C   LIG    1        1.828   5.419  -1.260  0.00  0.00    +0.230 C 
ATOM      7  C   LIG    1        2.658   5.239   0.016  0.00  0.00    +0.290 C 
ATOM      8  O   LIG    1        4.244   3.260   1.011  0.00  0.00    -0.490 OA
ENDROOT
BRANCH   1  14
ATOM      9  C   LIG    1        1.829  -2.762   2.570  0.00  0.00    +0.130 A 
ATOM     10  C   LIG    1        0.907  -2.324   3.519  0.00  0.00    -0.030 A 
ATOM     11  C   LIG    1        0.691  -0.980   3.702  0.00  0.00    +0.090 A 
ATOM     12  C   LIG    1        1.393  -0.040   2.941  0.00  0.00    -0.170 A 
ATOM     13  S   LIG    1        1.327   1.719   2.954  0.00  0.00    +0.130 S 
ATOM     14  C   LIG    1        2.538   1.824   1.688  0.00  0.00    -0.220 A 
ATOM     15  C   LIG    1        2.935   0.604   1.312  0.00  0.00    -0.020 A 
ATOM     16  C   LIG    1        3.970   0.391   0.238  0.00  0.00    +0.130 C 
ATOM     17  C   LIG    1        2.323  -0.467   1.984  0.00  0.00    -0.040 A 
ATOM     18  C   LIG    1        2.530  -1.856   1.812  0.00  0.00    +0.030 A 
BRANCH   9  20
ATOM     19  C   LIG    1        1.276  -4.983   3.216  0.00  0.00    +0.250 C 
ATOM     20  O   LIG    1        2.037  -4.094   2.395  0.00  0.00    -0.310 OA
ENDBRANCH   9  20
ENDBRANCH   1  14
BRANCH   7  21
ATOM     21  C   LIG    1        4.113   5.077  -0.342  0.00  0.00    -0.220 A 
ATOM     22  C   LIG    1        5.160   5.637   0.307  0.00  0.00    +0.120 A 
ATOM     23  N   LIG    1        6.289   5.250  -0.322  0.00  0.00    -0.470 N 
ATOM     24  H   LIG    1        7.193   5.499  -0.076  0.00  0.00    +0.440 HD
ATOM     25  N   LIG    1        5.924   4.425  -1.394  0.00  0.00    -0.290 NA
ATOM     26  C   LIG    1        5.079   6.533   1.516  0.00  0.00    +0.140 C 
ATOM     27  C   LIG    1        4.620   4.317  -1.401  0.00  0.00    +0.100 A 
ATOM     28  C   LIG    1        3.805   3.517  -2.384  0.00  0.00    +0.140 C 
ENDBRANCH   7  21
TORSDOF 3
