REMARK  Name = ZINCrg000000sJ6N.0
REMARK                            x       y       z     vdW  Elec       q    Type
REMARK                         _______ _______ _______ _____ _____    ______ ____
ROOT
ATOM      1  N   LIG    1        4.241  -0.119  -2.892  0.00  0.00    -0.750 N 
ATOM      2  H   LIG    1        3.617   0.067  -3.611  0.00  0.00    +0.400 HD
ATOM      3  C   LIG    1        3.959   0.280  -1.636  0.00  0.00    +0.710 C 
ATOM      4  N   LIG    1        2.811   0.937  -1.379  0.00  0.00    -0.740 N 
ATOM      5  H   LIG    1        2.187   1.123  -2.099  0.00  0.00    +0.400 HD
ATOM      6  O   LIG    1        4.741   0.047  -0.734  0.00  0.00    -0.590 OA
ENDROOT
BRANCH   1   7
ATOM      7  C   LIG    1        5.489  -0.834  -3.171  0.00  0.00    +0.280 C 
BRANCH   7   8
ATOM      8  C   LIG    1        5.562  -1.169  -4.662  0.00  0.00    +0.030 C 
BRANCH   8   9
ATOM      9  C   LIG    1        6.866  -1.915  -4.953  0.00  0.00    +0.170 C 
BRANCH   9  14
ATOM     10  C   LIG    1        6.432  -4.225  -9.385  0.00  0.00    +0.360 C 
ATOM     11  N   LIG    1        6.756  -3.238  -8.352  0.00  0.00    -0.390 N 
ATOM     12  C   LIG    1        7.371  -2.057  -8.530  0.00  0.00    +0.470 A 
ATOM     13  N   LIG    1        7.474  -1.472  -7.364  0.00  0.00    -0.540 NA
ATOM     14  C   LIG    1        6.938  -2.246  -6.422  0.00  0.00    +0.220 A 
ATOM     15  N   LIG    1        6.490  -3.342  -6.977  0.00  0.00    -0.320 NA
ENDBRANCH   9  14
ENDBRANCH   8   9
ENDBRANCH   7   8
ENDBRANCH   1   7
BRANCH   4  16
ATOM     16  C   LIG    1        2.504   1.371  -0.014  0.00  0.00    +0.350 C 
BRANCH  16  17
ATOM     17  C   LIG    1        1.173   2.077   0.002  0.00  0.00    -0.100 A 
ATOM     18  C   LIG    1        1.104   3.460   0.010  0.00  0.00    +0.040 A 
ATOM     19  C   LIG    1       -0.135   4.074   0.025  0.00  0.00    +0.220 A 
ATOM     20  N   LIG    1       -1.244   3.360   0.032  0.00  0.00    -0.440 NA
ATOM     21  C   LIG    1       -1.221   2.042   0.019  0.00  0.00    +0.180 A 
ATOM     22  C   LIG    1       -0.016   1.355   0.009  0.00  0.00    +0.100 A 
BRANCH  22  23
ATOM     23  O   LIG    1        0.002  -0.004   0.002  0.00  0.00    -0.300 OA
BRANCH  23  24
ATOM     24  C   LIG    1       -1.262  -0.670   0.011  0.00  0.00    +0.200 C 
BRANCH  24  25
ATOM     25  C   LIG    1       -1.041  -2.184   0.000  0.00  0.00    -0.020 C 
ATOM     26  C   LIG    1       -2.388  -2.929   0.135  0.00  0.00    +0.020 C 
ATOM     27  C   LIG    1       -2.496  -3.748  -1.170  0.00  0.00    +0.200 C 
ATOM     28  O   LIG    1       -1.133  -3.914  -1.615  0.00  0.00    -0.370 OA
ATOM     29  C   LIG    1       -0.495  -2.642  -1.370  0.00  0.00    +0.210 C 
ENDBRANCH  24  25
ENDBRANCH  23  24
ENDBRANCH  22  23
ENDBRANCH  16  17
ENDBRANCH   4  16
TORSDOF 9
