REMARK  Name = ZINCvU00000005SK.0
REMARK                            x       y       z     vdW  Elec       q    Type
REMARK                         _______ _______ _______ _____ _____    ______ ____
ROOT
ATOM      1  N   LIG    1        0.711  -0.489   1.189  0.00  0.00    -0.740 N 
ATOM      2  H   LIG    1        0.213  -0.731   1.986  0.00  0.00    +0.390 HD
ATOM      3  C   LIG    1        2.054  -0.600   1.174  0.00  0.00    +0.710 C 
ATOM      4  N   LIG    1        2.706  -1.046   2.266  0.00  0.00    -0.630 N 
ATOM      5  C   LIG    1        1.954  -1.411   3.469  0.00  0.00    +0.290 C 
ATOM      6  O   LIG    1        2.677  -0.297   0.175  0.00  0.00    -0.580 OA
ENDROOT
BRANCH   1   7
ATOM      7  C   LIG    1        0.002  -0.004   0.002  0.00  0.00    +0.310 C 
BRANCH   7   8
ATOM      8  C   LIG    1       -1.412  -0.526   0.013  0.00  0.00    -0.080 A 
ATOM      9  C   LIG    1       -2.119  -0.575   1.199  0.00  0.00    +0.020 A 
ATOM     10  C   LIG    1       -3.417  -1.052   1.217  0.00  0.00    +0.030 A 
ATOM     11  C   LIG    1       -4.007  -1.481   0.040  0.00  0.00    +0.070 A 
ATOM     12  O   LIG    1       -5.288  -1.952   0.043  0.00  0.00    -0.320 OA
ATOM     13  C   LIG    1       -5.440  -3.347  -0.227  0.00  0.00    +0.230 C 
ATOM     14  C   LIG    1       -5.466  -3.607  -1.725  0.00  0.00    -0.010 C 
ATOM     15  C   LIG    1       -4.147  -3.259  -2.396  0.00  0.00    +0.230 C 
ATOM     16  O   LIG    1       -3.887  -1.856  -2.306  0.00  0.00    -0.320 OA
ATOM     17  C   LIG    1       -3.297  -1.431  -1.152  0.00  0.00    +0.070 A 
ATOM     18  C   LIG    1       -2.000  -0.948  -1.167  0.00  0.00    +0.040 A 
ENDBRANCH   7   8
BRANCH   7  20
ATOM     19  C   LIG    1        1.417   2.055  -0.000  0.00  0.00    +0.020 C 
ATOM     20  C   LIG    1       -0.019   1.526   0.010  0.00  0.00    -0.030 C 
ATOM     21  C   LIG    1       -0.759   2.033  -1.229  0.00  0.00    +0.030 C 
ENDBRANCH   7  20
ENDBRANCH   1   7
BRANCH   4  22
ATOM     22  C   LIG    1        4.166  -1.166   2.249  0.00  0.00    +0.360 C 
BRANCH  22  23
ATOM     23  C   LIG    1        4.781   0.126   2.720  0.00  0.00    -0.080 A 
ATOM     24  C   LIG    1        5.089   1.118   1.808  0.00  0.00    +0.050 A 
ATOM     25  C   LIG    1        5.649   2.305   2.240  0.00  0.00    +0.070 A 
ATOM     26  C   LIG    1        5.912   2.497   3.584  0.00  0.00    -0.180 A 
ATOM     27  C   LIG    1        5.609   1.503   4.496  0.00  0.00    +0.070 A 
ATOM     28  C   LIG    1        5.043   0.318   4.064  0.00  0.00    +0.020 A 
BRANCH  26  29
ATOM     29  C   LIG    1        6.527   3.789   4.055  0.00  0.00    +0.510 C 
ATOM     30  F   LIG    1        6.097   4.063   5.357  0.00  0.00    -0.180 F 
ATOM     31  F   LIG    1        6.136   4.829   3.205  0.00  0.00    -0.180 F 
ATOM     32  F   LIG    1        7.922   3.674   4.039  0.00  0.00    -0.180 F 
ENDBRANCH  26  29
ENDBRANCH  22  23
ENDBRANCH   4  22
TORSDOF 6
