REMARK  Name = ZINCpk00000y6uAy.0
REMARK                            x       y       z     vdW  Elec       q    Type
REMARK                         _______ _______ _______ _____ _____    ______ ____
ROOT
ATOM      1  N   LIG    1       -4.825  -1.390  -2.358  0.00  0.00    -0.610 N 
ATOM      2  C   LIG    1       -5.761  -1.879  -3.377  0.00  0.00    +0.290 C 
ATOM      3  C   LIG    1       -7.130  -1.268  -3.007  0.00  0.00    +0.130 C 
ATOM      4  C   LIG    1       -6.972  -1.037  -1.486  0.00  0.00    +0.090 C 
ATOM      5  C   LIG    1       -5.478  -0.921  -1.281  0.00  0.00    +0.530 C 
ATOM      6  O   LIG    1       -4.946  -0.469  -0.289  0.00  0.00    -0.510 OA
ENDROOT
BRANCH   3   7
ATOM      7  C   LIG    1       -8.249  -2.236  -3.292  0.00  0.00    +0.180 A 
ATOM      8  N   LIG    1       -9.256  -2.048  -4.111  0.00  0.00    -0.460 NA
ATOM      9  C   LIG    1       -9.993  -3.171  -4.043  0.00  0.00    +0.210 A 
ATOM     10  N   LIG    1       -9.408  -3.970  -3.202  0.00  0.00    -0.380 NA
ATOM     11  O   LIG    1       -8.401  -3.454  -2.764  0.00  0.00    +0.080 OA
BRANCH   9  12
ATOM     12  C   LIG    1      -11.264  -3.450  -4.802  0.00  0.00    +0.050 C 
ATOM     13  C   LIG    1      -12.050  -4.708  -4.425  0.00  0.00    +0.050 C 
ATOM     14  C   LIG    1      -11.275  -4.657  -5.743  0.00  0.00    +0.060 C 
ENDBRANCH   9  12
ENDBRANCH   3   7
BRANCH   1  17
ATOM     15  N   LIG    1       -1.618  -1.181  -1.375  0.00  0.00    -0.470 NA
ATOM     16  C   LIG    1       -2.653  -0.232  -1.825  0.00  0.00    +0.180 C 
ATOM     17  C   LIG    1       -3.367  -1.414  -2.495  0.00  0.00    +0.260 C 
ATOM     18  C   LIG    1       -2.647  -2.236  -1.417  0.00  0.00    +0.170 C 
BRANCH  15  19
ATOM     19  C   LIG    1       -1.211  -0.898   0.008  0.00  0.00    +0.320 C 
BRANCH  19  24
ATOM     20  C   LIG    1        3.570   0.695  -0.028  0.00  0.00    +0.190 C 
ATOM     21  C   LIG    1        2.063   0.676  -0.014  0.00  0.00    -0.050 A 
ATOM     22  C   LIG    1        1.252   1.747  -0.001  0.00  0.00    +0.140 A 
ATOM     23  N   LIG    1       -0.016   1.298   0.009  0.00  0.00    -0.470 NA
ATOM     24  C   LIG    1        0.002  -0.004   0.002  0.00  0.00    +0.200 A 
ATOM     25  O   LIG    1        1.276  -0.418  -0.012  0.00  0.00    -0.200 OA
ENDBRANCH  19  24
ENDBRANCH  15  19
ENDBRANCH   1  17
TORSDOF 5
