REMARK  Name = ZINCtV000002tTPF.0
REMARK                            x       y       z     vdW  Elec       q    Type
REMARK                         _______ _______ _______ _____ _____    ______ ____
ROOT
ATOM      1  N   LIG    1       -1.433   6.333   1.131  0.00  0.00    -0.600 N 
ATOM      2  C   LIG    1       -2.637   5.733   1.041  0.00  0.00    +0.530 C 
ATOM      3  O   LIG    1       -3.507   5.996   1.844  0.00  0.00    -0.520 OA
ENDROOT
BRANCH   1   7
ATOM      4  C   LIG    1       -2.001   8.661   4.661  0.00  0.00    -0.020 C 
ATOM      5  C   LIG    1       -1.735   9.395   3.345  0.00  0.00    +0.020 C 
ATOM      6  C   LIG    1       -2.039   8.462   2.171  0.00  0.00    +0.010 C 
ATOM      7  C   LIG    1       -1.142   7.226   2.256  0.00  0.00    +0.240 C 
ATOM      8  C   LIG    1       -1.408   6.492   3.571  0.00  0.00    +0.010 C 
ATOM      9  C   LIG    1       -1.104   7.425   4.746  0.00  0.00    +0.020 C 
BRANCH   4  11
ATOM     10  C   LIG    1       -2.080   8.904   7.146  0.00  0.00    +0.010 C 
ATOM     11  C   LIG    1       -1.697   9.593   5.835  0.00  0.00    +0.000 C 
ENDBRANCH   4  11
ENDBRANCH   1   7
BRANCH   1  12
ATOM     12  C   LIG    1       -0.417   6.093   0.104  0.00  0.00    +0.270 C 
ATOM     13  C   LIG    1        0.896   5.680   0.773  0.00  0.00    +0.040 C 
BRANCH  12  14
ATOM     14  C   LIG    1       -0.200   7.353  -0.693  0.00  0.00    -0.110 A 
ATOM     15  C   LIG    1       -0.268   7.318  -2.073  0.00  0.00    +0.050 A 
ATOM     16  C   LIG    1       -0.069   8.473  -2.805  0.00  0.00    -0.010 A 
ATOM     17  C   LIG    1        0.199   9.666  -2.155  0.00  0.00    +0.100 A 
ATOM     18  C   LIG    1        0.273   9.699  -0.773  0.00  0.00    -0.010 A 
ATOM     19  F   LIG    1        0.394  10.796  -2.870  0.00  0.00    -0.140 F 
ATOM     20  C   LIG    1        0.069   8.543  -0.043  0.00  0.00    +0.060 A 
ENDBRANCH  12  14
ENDBRANCH   1  12
BRANCH   2  21
ATOM     21  C   LIG    1       -2.902   4.736  -0.057  0.00  0.00    +0.070 C 
ATOM     22  C   LIG    1       -4.409   4.510  -0.189  0.00  0.00    +0.070 C 
BRANCH  21  23
ATOM     23  C   LIG    1       -2.226   3.431   0.276  0.00  0.00    -0.200 A 
ATOM     24  C   LIG    1       -2.366   2.680   1.395  0.00  0.00    -0.000 A 
ATOM     25  O   LIG    1       -1.571   1.613   1.238  0.00  0.00    +0.100 OA
ATOM     26  N   LIG    1       -0.983   1.648   0.182  0.00  0.00    -0.360 NA
ATOM     27  C   LIG    1       -3.245   2.984   2.580  0.00  0.00    +0.190 C 
ATOM     28  C   LIG    1       -1.293   2.709  -0.504  0.00  0.00    +0.030 A 
ATOM     29  C   LIG    1       -0.763   3.094  -1.862  0.00  0.00    +0.160 C 
ENDBRANCH  21  23
ENDBRANCH   2  21
TORSDOF 6
