REMARK  Name = ZINCrH00000tj1nC.0
REMARK                            x       y       z     vdW  Elec       q    Type
REMARK                         _______ _______ _______ _____ _____    ______ ____
ROOT
ATOM      1  C   LIG    1       -1.237   3.144   0.030  0.00  0.00    +0.100 A 
ATOM      2  C   LIG    1       -0.043   3.847   0.022  0.00  0.00    -0.030 A 
ATOM      3  C   LIG    1        1.160   3.166   0.007  0.00  0.00    +0.020 A 
ATOM      4  C   LIG    1        1.175   1.784   0.000  0.00  0.00    -0.090 A 
ATOM      5  C   LIG    1       -0.013   1.076   0.008  0.00  0.00    -0.020 A 
ATOM      6  C   LIG    1       -1.222   1.752   0.017  0.00  0.00    +0.110 A 
ENDROOT
BRANCH   4   7
ATOM      7  C   LIG    1        2.490   1.046  -0.016  0.00  0.00    +0.290 C 
ATOM      8  C   LIG    1        3.044   1.022  -1.442  0.00  0.00    +0.040 C 
BRANCH   7   9
ATOM      9  N   LIG    1        3.442   1.726   0.867  0.00  0.00    -0.720 N 
ATOM     10  H   LIG    1        3.337   2.671   1.058  0.00  0.00    +0.400 HD
ATOM     11  C   LIG    1        4.463   1.037   1.413  0.00  0.00    +0.560 C 
ATOM     12  O   LIG    1        4.595  -0.147   1.174  0.00  0.00    -0.510 OA
BRANCH  11  13
ATOM     13  C   LIG    1        5.423   1.722   2.304  0.00  0.00    -0.130 A 
ATOM     14  C   LIG    1        5.275   3.083   2.580  0.00  0.00    +0.050 A 
ATOM     15  C   LIG    1        6.175   3.716   3.412  0.00  0.00    +0.020 A 
ATOM     16  C   LIG    1        7.223   3.007   3.972  0.00  0.00    +0.060 A 
ATOM     17  C   LIG    1        7.378   1.660   3.702  0.00  0.00    +0.020 A 
ATOM     18  C   LIG    1        6.481   1.011   2.877  0.00  0.00    +0.010 A 
ATOM     19 CL   LIG    1        6.670  -0.683   2.546  0.00  0.00    -0.030 Cl
ENDBRANCH  11  13
ENDBRANCH   7   9
ENDBRANCH   4   7
BRANCH   6  20
ATOM     20  O   LIG    1       -2.391   1.058   0.019  0.00  0.00    -0.300 OA
ATOM     21  C   LIG    1       -2.298  -0.368   0.012  0.00  0.00    +0.240 C 
ENDBRANCH   6  20
BRANCH   1  22
ATOM     22  O   LIG    1       -2.421   3.812   0.044  0.00  0.00    -0.280 OA
BRANCH  22  23
ATOM     23  C   LIG    1       -2.360   5.240   0.049  0.00  0.00    +0.290 C 
BRANCH  23  24
ATOM     24  C   LIG    1       -3.758   5.802   0.065  0.00  0.00    +0.460 C 
ATOM     25  O   LIG    1       -4.709   5.057   0.071  0.00  0.00    -0.480 OA
BRANCH  24  26
ATOM     26  O   LIG    1       -3.947   7.131   0.072  0.00  0.00    -0.360 OA
BRANCH  26  28
ATOM     27  C   LIG    1       -5.335   9.132   0.094  0.00  0.00    +0.070 C 
ATOM     28  C   LIG    1       -5.321   7.602   0.087  0.00  0.00    +0.200 C 
ENDBRANCH  26  28
ENDBRANCH  24  26
ENDBRANCH  23  24
ENDBRANCH  22  23
ENDBRANCH   1  22
TORSDOF 9
