REMARK  Name = ZINCpk000000oRW5.0
REMARK                            x       y       z     vdW  Elec       q    Type
REMARK                         _______ _______ _______ _____ _____    ______ ____
ROOT
ATOM      1  N   LIG    1        4.395   1.609   0.349  0.00  0.00    -0.720 N 
ATOM      2  H   LIG    1        4.073   2.464   0.677  0.00  0.00    +0.410 HD
ATOM      3  C   LIG    1        5.659   1.494  -0.103  0.00  0.00    +0.520 C 
ATOM      4  O   LIG    1        6.061   0.425  -0.512  0.00  0.00    -0.510 OA
ENDROOT
BRANCH   3   5
ATOM      5  C   LIG    1        6.573   2.692  -0.100  0.00  0.00    +0.030 C 
ATOM      6  C   LIG    1        5.971   3.783  -1.008  0.00  0.00    -0.270 C 
ATOM      7  S   LIG    1        6.835   3.507  -2.607  0.00  0.00    +2.390 S 
ATOM      8  C   LIG    1        8.422   3.015  -1.820  0.00  0.00    -0.270 C 
ATOM      9  O   LIG    1        6.997   4.744  -3.286  0.00  0.00    -0.920 OA
ATOM     10  O   LIG    1        6.263   2.392  -3.277  0.00  0.00    -0.900 OA
ATOM     11  C   LIG    1        7.959   2.258  -0.559  0.00  0.00    +0.040 C 
BRANCH  11  12
ATOM     12  C   LIG    1        8.960   2.516   0.570  0.00  0.00    +0.460 C 
ATOM     13  F   LIG    1        8.970   3.880   0.880  0.00  0.00    -0.180 F 
ATOM     14  F   LIG    1       10.237   2.121   0.160  0.00  0.00    -0.170 F 
ATOM     15  F   LIG    1        8.585   1.783   1.701  0.00  0.00    -0.170 F 
ENDBRANCH  11  12
ENDBRANCH   3   5
BRANCH   1  16
ATOM     16  C   LIG    1        3.506   0.444   0.346  0.00  0.00    +0.310 C 
BRANCH  16  17
ATOM     17  C   LIG    1        2.139   0.844   0.906  0.00  0.00    -0.070 C 
ATOM     18  C   LIG    1        1.487   1.907  -0.002  0.00  0.00    +0.050 C 
ATOM     19  C   LIG    1       -0.019   1.545   0.011  0.00  0.00    +0.020 C 
ATOM     20  C   LIG    1        0.002  -0.004   0.002  0.00  0.00    +0.020 C 
ATOM     21  C   LIG    1        1.195  -0.371   0.908  0.00  0.00    +0.060 C 
BRANCH  17  22
ATOM     22  C   LIG    1        2.292   1.382   2.305  0.00  0.00    +0.470 C 
ATOM     23  O   LIG    1        1.709   0.854   3.222  0.00  0.00    -0.490 OA
BRANCH  22  24
ATOM     24  O   LIG    1        3.076   2.447   2.533  0.00  0.00    -0.360 OA
BRANCH  24  26
ATOM     25  C   LIG    1        4.107   4.124   3.967  0.00  0.00    +0.070 C 
ATOM     26  C   LIG    1        3.176   2.911   3.905  0.00  0.00    +0.200 C 
ENDBRANCH  24  26
ENDBRANCH  22  24
ENDBRANCH  17  22
ENDBRANCH  16  17
ENDBRANCH   1  16
TORSDOF 7
