REMARK  Name = ZINCvU00000008js.0
REMARK                            x       y       z     vdW  Elec       q    Type
REMARK                         _______ _______ _______ _____ _____    ______ ____
ROOT
ATOM      1  C   LIG    1       -9.673  -2.064   0.506  0.00  0.00    +0.520 C 
ATOM      2  O   LIG    1       -9.874  -3.263   0.516  0.00  0.00    -0.500 OA
ENDROOT
BRANCH   1   6
ATOM      3  C   LIG    1      -12.922   0.631   0.845  0.00  0.00    -0.050 A 
ATOM      4  C   LIG    1      -13.155  -0.743   0.856  0.00  0.00    +0.030 A 
ATOM      5  C   LIG    1      -12.109  -1.614   0.747  0.00  0.00    +0.120 A 
ATOM      6  C   LIG    1      -10.803  -1.127   0.624  0.00  0.00    -0.140 A 
ATOM      7  C   LIG    1      -10.573   0.253   0.618  0.00  0.00    +0.120 A 
ATOM      8  C   LIG    1      -11.623   1.120   0.723  0.00  0.00    -0.020 A 
BRANCH   3   9
ATOM      9  S   LIG    1      -14.274   1.752   0.986  0.00  0.00    -0.070 S 
BRANCH   9  10
ATOM     10  C   LIG    1      -13.466   3.376   0.921  0.00  0.00    +0.180 C 
BRANCH  10  14
ATOM     11  C   LIG    1      -16.356   6.584   3.367  0.00  0.00    +0.180 C 
ATOM     12  C   LIG    1      -15.791   5.888   2.155  0.00  0.00    +0.050 A 
ATOM     13  N   LIG    1      -14.892   4.963   2.187  0.00  0.00    -0.470 NA
ATOM     14  C   LIG    1      -14.508   4.459   1.032  0.00  0.00    +0.080 A 
ATOM     15  C   LIG    1      -15.112   4.992  -0.034  0.00  0.00    -0.060 A 
ATOM     16  S   LIG    1      -16.248   6.211   0.540  0.00  0.00    +0.140 S 
ENDBRANCH  10  14
ENDBRANCH   9  10
ENDBRANCH   3   9
ENDBRANCH   1   6
BRANCH   1  17
ATOM     17  O   LIG    1       -8.416  -1.593   0.388  0.00  0.00    -0.330 OA
BRANCH  17  18
ATOM     18  C   LIG    1       -7.352  -2.575   0.276  0.00  0.00    +0.270 C 
BRANCH  18  19
ATOM     19  C   LIG    1       -6.027  -1.867   0.153  0.00  0.00    +0.520 C 
ATOM     20  N   LIG    1       -4.890  -2.581   0.036  0.00  0.00    -0.670 N 
ATOM     21  H   LIG    1       -4.930  -3.547  -0.045  0.00  0.00    +0.420 HD
ATOM     22  O   LIG    1       -5.984  -0.655   0.158  0.00  0.00    -0.490 OA
BRANCH  20  23
ATOM     23  C   LIG    1       -3.650  -1.929   0.033  0.00  0.00    +0.120 A 
ATOM     24  C   LIG    1       -3.469  -0.777   0.787  0.00  0.00    +0.060 A 
ATOM     25  C   LIG    1       -2.247  -0.134   0.782  0.00  0.00    +0.030 A 
ATOM     26  C   LIG    1       -1.200  -0.638   0.025  0.00  0.00    +0.090 A 
ATOM     27  C   LIG    1       -1.382  -1.786  -0.733  0.00  0.00    -0.030 A 
ATOM     28  C   LIG    1       -2.602  -2.433  -0.725  0.00  0.00    +0.030 A 
BRANCH  26  29
ATOM     29  O   LIG    1        0.003  -0.005   0.021  0.00  0.00    -0.320 OA
BRANCH  29  30
ATOM     30  C   LIG    1        1.036  -0.579  -0.782  0.00  0.00    +0.590 C 
ATOM     31  F   LIG    1        0.624  -0.613  -2.118  0.00  0.00    -0.200 F 
ATOM     32  F   LIG    1        1.298  -1.881  -0.342  0.00  0.00    -0.200 F 
ENDBRANCH  29  30
ENDBRANCH  26  29
ENDBRANCH  20  23
ENDBRANCH  18  19
ENDBRANCH  17  18
ENDBRANCH   1  17
TORSDOF 10
