REMARK  Name = ZINCrD000000CCLH.0
REMARK                            x       y       z     vdW  Elec       q    Type
REMARK                         _______ _______ _______ _____ _____    ______ ____
ROOT
ATOM      1  O   LIG    1        1.681  -1.721   1.695  0.00  0.00    -0.520 OA
ATOM      2  C   LIG    1        0.560  -1.264   1.809  0.00  0.00    +0.570 C 
ATOM      3  N   LIG    1        0.315   0.015   1.462  0.00  0.00    -0.610 N 
ATOM      4  C   LIG    1        1.427   0.852   1.070  0.00  0.00    +0.280 C 
ATOM      5  C   LIG    1        1.657   0.728  -0.457  0.00  0.00    +0.040 C 
ATOM      6  C   LIG    1        0.574   1.397  -1.193  0.00  0.00    +0.010 C 
ATOM      7  C   LIG    1       -0.807   0.789  -0.969  0.00  0.00    +0.260 C 
ATOM      8  C   LIG    1       -1.417   1.379   0.278  0.00  0.00    +0.040 C 
ATOM      9  C   LIG    1       -1.077   0.504   1.498  0.00  0.00    +0.280 C 
ENDROOT
BRANCH   2  10
ATOM     10  C   LIG    1       -0.533  -2.111   2.326  0.00  0.00    -0.230 A 
ATOM     11  C   LIG    1       -1.563  -1.552   3.097  0.00  0.00    +0.140 A 
ATOM     12  C   LIG    1       -2.562  -2.384   3.558  0.00  0.00    -0.040 A 
ATOM     13  C   LIG    1       -2.517  -3.739   3.246  0.00  0.00    +0.340 A 
ATOM     14  N   LIG    1       -1.530  -4.237   2.515  0.00  0.00    -0.530 NA
ATOM     15  C   LIG    1       -0.560  -3.479   2.051  0.00  0.00    +0.380 A 
BRANCH  13  16
ATOM     16  O   LIG    1       -3.495  -4.561   3.696  0.00  0.00    -0.240 OA
BRANCH  16  17
ATOM     17  C   LIG    1       -3.358  -5.896   3.478  0.00  0.00    +0.090 A 
ATOM     18  C   LIG    1       -4.110  -6.520   2.494  0.00  0.00    +0.020 A 
ATOM     19  C   LIG    1       -3.964  -7.876   2.270  0.00  0.00    +0.020 A 
ATOM     20  C   LIG    1       -3.078  -8.612   3.035  0.00  0.00    +0.020 A 
ATOM     21  C   LIG    1       -2.332  -7.993   4.021  0.00  0.00    +0.020 A 
ATOM     22  C   LIG    1       -2.470  -6.637   4.244  0.00  0.00    +0.010 A 
ENDBRANCH  16  17
ENDBRANCH  13  16
ENDBRANCH   2  10
BRANCH   7  23
ATOM     23  N   LIG    1       -1.664   1.085  -2.120  0.00  0.00    -0.290 N 
ATOM     24  C   LIG    1       -2.383   2.216  -2.303  0.00  0.00    +0.140 A 
ATOM     25  C   LIG    1       -3.022   2.069  -3.487  0.00  0.00    +0.140 A 
ATOM     26  N   LIG    1       -2.667   0.871  -3.964  0.00  0.00    -0.270 NA
ATOM     27  N   LIG    1       -1.857   0.315  -3.134  0.00  0.00    -0.080 NA
ENDBRANCH   7  23
TORSDOF 4
