REMARK  Name = ZINCrD0000074C3o.0
REMARK                            x       y       z     vdW  Elec       q    Type
REMARK                         _______ _______ _______ _____ _____    ______ ____
ROOT
ATOM      1  C   LIG    1       -3.330   1.235   2.242  0.00  0.00    +0.510 C 
ATOM      2  N   LIG    1       -2.498   1.600   1.248  0.00  0.00    -0.610 N 
ATOM      3  C   LIG    1       -1.123   2.031   1.542  0.00  0.00    +0.280 C 
ATOM      4  C   LIG    1       -0.154   1.193   0.702  0.00  0.00    +0.010 C 
ATOM      5  C   LIG    1       -0.543   1.296  -0.775  0.00  0.00    +0.030 C 
ATOM      6  C   LIG    1       -1.956   0.742  -0.972  0.00  0.00    +0.050 C 
ATOM      7  C   LIG    1       -2.946   1.575  -0.151  0.00  0.00    +0.330 C 
ATOM      8  O   LIG    1       -4.432   0.800   1.982  0.00  0.00    -0.480 OA
ENDROOT
BRANCH   7   9
ATOM      9  C   LIG    1       -4.317   0.955  -0.234  0.00  0.00    +0.200 A 
ATOM     10  N   LIG    1       -4.611  -0.309  -0.068  0.00  0.00    -0.270 NA
ATOM     11  N   LIG    1       -5.881  -0.483  -0.205  0.00  0.00    -0.280 NA
ATOM     12  C   LIG    1       -6.447   0.654  -0.472  0.00  0.00    +0.180 A 
ATOM     13  C   LIG    1       -7.907   0.943  -0.715  0.00  0.00    +0.160 C 
ATOM     14  C   LIG    1       -8.123   2.457  -0.590  0.00  0.00    +0.030 C 
ATOM     15  C   LIG    1       -7.066   3.189  -1.422  0.00  0.00    +0.040 C 
ATOM     16  C   LIG    1       -5.689   3.018  -0.770  0.00  0.00    +0.270 C 
ATOM     17  N   LIG    1       -5.471   1.597  -0.499  0.00  0.00    -0.470 N 
ENDBRANCH   7   9
BRANCH   1  18
ATOM     18  C   LIG    1       -2.893   1.367   3.678  0.00  0.00    +0.230 C 
BRANCH  18  19
ATOM     19  O   LIG    1       -3.941   0.920   4.539  0.00  0.00    -0.290 OA
BRANCH  19  25
ATOM     20  C   LIG    1       -0.937   2.015   8.226  0.00  0.00    +0.090 C 
ATOM     21  C   LIG    1       -2.256   1.500   7.711  0.00  0.00    -0.050 A 
ATOM     22  C   LIG    1       -3.229   1.082   8.600  0.00  0.00    -0.030 A 
ATOM     23  C   LIG    1       -4.441   0.610   8.130  0.00  0.00    +0.050 A 
ATOM     24  C   LIG    1       -4.684   0.559   6.771  0.00  0.00    -0.110 A 
ATOM     25  C   LIG    1       -3.707   0.973   5.877  0.00  0.00    +0.130 A 
ATOM     26  C   LIG    1       -6.007   0.051   6.260  0.00  0.00    +0.090 C 
ATOM     27  C   LIG    1       -2.492   1.447   6.351  0.00  0.00    -0.080 A 
ENDBRANCH  19  25
ENDBRANCH  18  19
ENDBRANCH   1  18
TORSDOF 4
