REMARK  Name = ZINCrH000004mR8B.0
REMARK                            x       y       z     vdW  Elec       q    Type
REMARK                         _______ _______ _______ _____ _____    ______ ____
ROOT
ATOM      1  C   LIG    1        6.052   1.999   0.170  0.00  0.00    +0.090 A 
ATOM      2  C   LIG    1        7.208   1.280   0.423  0.00  0.00    -0.020 A 
ATOM      3  C   LIG    1        7.183  -0.102   0.403  0.00  0.00    +0.040 A 
ATOM      4  C   LIG    1        5.999  -0.773   0.127  0.00  0.00    +0.130 A 
ATOM      5  C   LIG    1        4.837  -0.057  -0.123  0.00  0.00    +0.040 A 
ATOM      6  C   LIG    1        4.862   1.329  -0.107  0.00  0.00    +0.140 A 
ENDROOT
BRANCH   4   7
ATOM      7  N   LIG    1        5.977  -2.174   0.106  0.00  0.00    -0.660 N 
ATOM      8  H   LIG    1        5.184  -2.650   0.397  0.00  0.00    +0.420 HD
ATOM      9  C   LIG    1        7.058  -2.858  -0.318  0.00  0.00    +0.610 C 
ATOM     10  O   LIG    1        8.015  -2.263  -0.773  0.00  0.00    -0.510 OA
BRANCH   9  11
ATOM     11  C   LIG    1        7.079  -4.332  -0.229  0.00  0.00    -0.020 A 
ATOM     12  N   LIG    1        6.118  -5.104   0.239  0.00  0.00    -0.260 NA
ATOM     13  N   LIG    1        6.470  -6.338   0.168  0.00  0.00    -0.380 N 
ATOM     14  H   LIG    1        5.924  -7.087   0.454  0.00  0.00    +0.450 HD
ATOM     15  C   LIG    1        7.707  -6.441  -0.363  0.00  0.00    +0.180 A 
ATOM     16  C   LIG    1        8.132  -5.186  -0.636  0.00  0.00    -0.010 A 
ENDBRANCH   9  11
ENDBRANCH   4   7
BRANCH   6  17
ATOM     17  N   LIG    1        3.692   2.054  -0.364  0.00  0.00    -0.650 N 
ATOM     18  H   LIG    1        3.616   2.974  -0.066  0.00  0.00    +0.420 HD
ATOM     19  C   LIG    1        2.671   1.474  -1.026  0.00  0.00    +0.560 C 
ATOM     20  O   LIG    1        2.801   0.356  -1.485  0.00  0.00    -0.500 OA
BRANCH  19  21
ATOM     21  C   LIG    1        1.395   2.197  -1.195  0.00  0.00    -0.170 A 
ATOM     22  C   LIG    1        1.242   3.482  -0.669  0.00  0.00    +0.110 A 
ATOM     23  C   LIG    1        0.048   4.152  -0.829  0.00  0.00    +0.020 A 
ATOM     24  C   LIG    1       -1.001   3.555  -1.510  0.00  0.00    +0.020 A 
ATOM     25  C   LIG    1       -0.857   2.284  -2.039  0.00  0.00    +0.000 A 
ATOM     26 CL   LIG    1       -2.501   4.407  -1.705  0.00  0.00    -0.040 Cl
ATOM     27  C   LIG    1        0.333   1.598  -1.881  0.00  0.00    +0.180 A 
ATOM     28  F   LIG    1        0.472   0.356  -2.393  0.00  0.00    -0.100 F 
ENDBRANCH  19  21
ENDBRANCH   6  17
BRANCH   1  30
ATOM     29  C   LIG    1        7.332   3.979   0.482  0.00  0.00    +0.250 C 
ATOM     30  O   LIG    1        6.078   3.359   0.191  0.00  0.00    -0.320 OA
ENDBRANCH   1  30
TORSDOF 5
