REMARK  Name = ZINCvU0000000Aej.0
REMARK                            x       y       z     vdW  Elec       q    Type
REMARK                         _______ _______ _______ _____ _____    ______ ____
ROOT
ATOM      1  N   LIG    1        2.943   5.107   0.174  0.00  0.00    -0.480 N 
ATOM      2  C   LIG    1        2.008   6.048   0.413  0.00  0.00    +0.550 C 
ATOM      3  O   LIG    1        0.829   5.787   0.261  0.00  0.00    -0.460 OA
ENDROOT
BRANCH   1   4
ATOM      4  C   LIG    1        2.571   3.877  -0.343  0.00  0.00    +0.340 A 
ATOM      5  N   LIG    1        1.379   3.569  -0.724  0.00  0.00    -0.470 NA
ATOM      6  C   LIG    1        1.172   2.328  -1.207  0.00  0.00    +0.110 A 
ATOM      7  C   LIG    1       -0.026   1.754  -1.683  0.00  0.00    +0.070 A 
ATOM      8  C   LIG    1       -0.043   0.461  -2.141  0.00  0.00    +0.040 A 
ATOM      9  C   LIG    1        1.115  -0.302  -2.144  0.00  0.00    +0.040 A 
ATOM     10  C   LIG    1        2.296   0.237  -1.684  0.00  0.00    +0.060 A 
ATOM     11  C   LIG    1        2.332   1.547  -1.216  0.00  0.00    -0.180 A 
ATOM     12  S   LIG    1        3.658   2.514  -0.572  0.00  0.00    +0.080 S 
ENDBRANCH   1   4
BRANCH   1  17
ATOM     13  C   LIG    1        6.376   6.390  -0.165  0.00  0.00    +0.140 A 
ATOM     14  C   LIG    1        6.955   5.895   0.995  0.00  0.00    -0.050 A 
ATOM     15  C   LIG    1        6.203   5.143   1.878  0.00  0.00    +0.080 A 
ATOM     16  C   LIG    1        4.874   4.880   1.608  0.00  0.00    -0.010 A 
ATOM     17  C   LIG    1        4.290   5.373   0.448  0.00  0.00    +0.140 A 
ATOM     18  C   LIG    1        5.044   6.124  -0.443  0.00  0.00    +0.000 A 
BRANCH  13  20
ATOM     19  C   LIG    1        8.484   7.359  -0.686  0.00  0.00    +0.250 C 
ATOM     20  O   LIG    1        7.117   7.129  -1.032  0.00  0.00    -0.310 OA
ENDBRANCH  13  20
ENDBRANCH   1  17
BRANCH   2  21
ATOM     21  C   LIG    1        2.411   7.383   0.856  0.00  0.00    -0.040 C 
ATOM     22  C   LIG    1        1.474   8.293   1.190  0.00  0.00    +0.120 C 
BRANCH  22  23
ATOM     23  C   LIG    1        1.878   9.637   1.636  0.00  0.00    -0.020 A 
ATOM     24  C   LIG    1        3.234   9.970   1.720  0.00  0.00    +0.050 A 
ATOM     25  C   LIG    1        3.605  11.232   2.133  0.00  0.00    +0.110 A 
ATOM     26  C   LIG    1        2.641  12.164   2.475  0.00  0.00    -0.040 A 
ATOM     27  C   LIG    1        1.297  11.840   2.400  0.00  0.00    +0.110 A 
ATOM     28  C   LIG    1        0.910  10.584   1.983  0.00  0.00    +0.070 A 
BRANCH  26  29
ATOM     29  N   LIG    1        3.048  13.515   2.924  0.00  0.00    +0.020 N 
ATOM     30  O   LIG    1        4.229  13.803   2.991  0.00  0.00    -0.160 OA
ATOM     31  O   LIG    1        2.202  14.337   3.225  0.00  0.00    -0.150 OA
ENDBRANCH  26  29
ENDBRANCH  22  23
ENDBRANCH   2  21
TORSDOF 6
