REMARK  Name = ZINCkj000005eXRK.0
REMARK                            x       y       z     vdW  Elec       q    Type
REMARK                         _______ _______ _______ _____ _____    ______ ____
ROOT
ATOM      1  C   LIG    1       -1.252   7.825   0.092  0.00  0.00    +0.320 C 
ENDROOT
BRANCH   1   2
ATOM      2  N   LIG    1       -0.617   8.374   1.293  0.00  0.00    -0.750 N 
ATOM      3  H   LIG    1       -1.135   8.910   1.914  0.00  0.00    +0.390 HD
ATOM      4  C   LIG    1        0.687   8.134   1.536  0.00  0.00    +0.570 C 
ATOM      5  O   LIG    1        1.336   7.463   0.758  0.00  0.00    -0.490 OA
BRANCH   4   6
ATOM      6  C   LIG    1        1.328   8.688   2.749  0.00  0.00    -0.110 C 
ATOM      7  C   LIG    1        2.680   8.452   3.019  0.00  0.00    +0.120 C 
ATOM      8  C   LIG    1        3.238   8.987   4.162  0.00  0.00    +0.280 C 
ATOM      9  N   LIG    1        2.514   9.713   4.993  0.00  0.00    -0.100 NA
ATOM     10  C   LIG    1        1.234   9.956   4.779  0.00  0.00    +0.260 C 
ATOM     11  O   LIG    1        3.128  10.243   6.154  0.00  0.00    -0.510 OA
ATOM     12  C   LIG    1        0.599   9.463   3.657  0.00  0.00    +0.060 C 
ENDBRANCH   4   6
ENDBRANCH   1   2
BRANCH   1  14
ATOM     13  C   LIG    1       -2.965   9.643   0.029  0.00  0.00    +0.100 C 
ATOM     14  C   LIG    1       -2.751   8.131   0.123  0.00  0.00    +0.050 C 
ATOM     15  C   LIG    1       -3.436   7.445  -1.061  0.00  0.00    +0.110 C 
BRANCH  14  16
ATOM     16  N   LIG    1       -3.327   7.633   1.379  0.00  0.00    -0.380 N 
ATOM     17  C   LIG    1       -3.084   6.189   1.488  0.00  0.00    +0.250 C 
ATOM     18  C   LIG    1       -3.609   5.680   2.832  0.00  0.00    +0.060 C 
ATOM     19  C   LIG    1       -5.114   5.952   2.920  0.00  0.00    +0.040 C 
ATOM     20  C   LIG    1       -5.363   7.451   2.730  0.00  0.00    +0.060 C 
ATOM     21  C   LIG    1       -4.771   7.895   1.391  0.00  0.00    +0.240 C 
ATOM     22  H   LIG    1       -2.894   8.106   2.157  0.00  0.00    +0.410 HD
ENDBRANCH  14  16
ENDBRANCH   1  14
TORSDOF 4
