REMARK  Name = ZINCvU0000000GlG.0
REMARK                            x       y       z     vdW  Elec       q    Type
REMARK                         _______ _______ _______ _____ _____    ______ ____
ROOT
ATOM      1  O   LIG    1        1.187   3.458   0.014  0.00  0.00    -0.250 OA
ENDROOT
BRANCH   1   2
ATOM      2  C   LIG    1        1.192   2.102  -0.002  0.00  0.00    +0.190 A 
ATOM      3  C   LIG    1        2.394   1.410  -0.026  0.00  0.00    -0.080 A 
ATOM      4  C   LIG    1        2.398   0.029  -0.042  0.00  0.00    +0.080 A 
ATOM      5  C   LIG    1        1.206  -0.675  -0.037  0.00  0.00    -0.030 A 
ATOM      6  C   LIG    1        0.002  -0.004  -0.014  0.00  0.00    +0.080 A 
ATOM      7  C   LIG    1       -0.017   1.392   0.004  0.00  0.00    -0.170 A 
BRANCH   7   8
ATOM      8  C   LIG    1       -1.302   2.117   0.022  0.00  0.00    +0.550 C 
ATOM      9  N   LIG    1       -2.462   1.431   0.021  0.00  0.00    -0.680 N 
ATOM     10  H   LIG    1       -2.454   0.465  -0.058  0.00  0.00    +0.410 HD
ATOM     11  O   LIG    1       -1.314   3.333   0.037  0.00  0.00    -0.480 OA
BRANCH   9  12
ATOM     12  C   LIG    1       -3.677   2.114   0.137  0.00  0.00    +0.150 A 
ATOM     13  C   LIG    1       -4.735   1.539   0.830  0.00  0.00    -0.030 A 
ATOM     14  C   LIG    1       -5.932   2.218   0.946  0.00  0.00    +0.030 A 
ATOM     15  C   LIG    1       -6.082   3.463   0.363  0.00  0.00    -0.020 A 
ATOM     16  C   LIG    1       -5.033   4.035  -0.332  0.00  0.00    +0.030 A 
ATOM     17  C   LIG    1       -3.831   3.364  -0.447  0.00  0.00    +0.020 A 
ENDBRANCH   9  12
ENDBRANCH   7   8
ENDBRANCH   1   2
BRANCH   1  18
ATOM     18  C   LIG    1        2.457   4.112   0.007  0.00  0.00    +0.230 C 
BRANCH  18  30
ATOM     19  C   LIG    1        4.217   9.184  -3.436  0.00  0.00    +0.080 C 
ATOM     20  C   LIG    1        4.351   8.343  -2.165  0.00  0.00    +0.030 C 
ATOM     21  C   LIG    1        3.070   8.447  -1.354  0.00  0.00    +0.030 C 
ATOM     22  C   LIG    1        3.142   7.892   0.044  0.00  0.00    +0.300 C 
ATOM     23  N   LIG    1        3.319   6.431   0.024  0.00  0.00    -0.570 N 
ATOM     24  C   LIG    1        4.621   5.921   0.009  0.00  0.00    +0.150 A 
ATOM     25  C   LIG    1        5.154   5.368   1.168  0.00  0.00    +0.010 A 
ATOM     26  C   LIG    1        6.459   4.911   1.176  0.00  0.00    +0.040 A 
ATOM     27  C   LIG    1        7.246   4.996   0.042  0.00  0.00    +0.030 A 
ATOM     28  C   LIG    1        6.715   5.529  -1.139  0.00  0.00    +0.080 A 
ATOM     29  C   LIG    1        5.407   5.970  -1.142  0.00  0.00    -0.100 A 
ATOM     30  C   LIG    1        2.254   5.605   0.027  0.00  0.00    +0.530 C 
ATOM     31  O   LIG    1        1.131   6.064   0.046  0.00  0.00    -0.480 OA
ATOM     32  S   LIG    1        4.666   6.614  -2.624  0.00  0.00    -0.150 S 
ENDBRANCH  18  30
ENDBRANCH   1  18
TORSDOF 5
