REMARK  Name = ZINCpk000000n26b.0
REMARK                            x       y       z     vdW  Elec       q    Type
REMARK                         _______ _______ _______ _____ _____    ______ ____
ROOT
ATOM      1  C   LIG    1       -0.753   1.593  -1.232  0.00  0.00    +0.210 C 
ENDROOT
BRANCH   1   2
ATOM      2  O   LIG    1       -2.093   1.098  -1.221  0.00  0.00    -0.540 OA
ATOM      3  H   LIG    1       -2.157   0.133  -1.226  0.00  0.00    +0.380 HD
ENDBRANCH   1   2
BRANCH   1   4
ATOM      4  C   LIG    1       -0.037   1.099  -2.490  0.00  0.00    +0.180 C 
BRANCH   4   5
ATOM      5  O   LIG    1       -0.658   1.667  -3.645  0.00  0.00    -0.300 OA
BRANCH   5  10
ATOM      6  C   LIG    1       -0.155   1.491  -7.255  0.00  0.00    -0.130 A 
ATOM      7  C   LIG    1        0.939   0.622  -7.316  0.00  0.00    +0.030 A 
ATOM      8  C   LIG    1        1.482   0.116  -6.153  0.00  0.00    +0.040 A 
ATOM      9  C   LIG    1        0.951   0.470  -4.926  0.00  0.00    -0.050 A 
ATOM     10  C   LIG    1       -0.139   1.328  -4.855  0.00  0.00    +0.120 A 
ATOM     11  C   LIG    1       -0.693   1.842  -6.014  0.00  0.00    +0.050 A 
BRANCH   6  13
ATOM     12  C   LIG    1       -0.156   1.652  -9.830  0.00  0.00    +0.090 C 
ATOM     13  C   LIG    1       -0.738   2.033  -8.493  0.00  0.00    +0.390 C 
ATOM     14  O   LIG    1       -1.687   2.786  -8.438  0.00  0.00    -0.450 OA
ENDBRANCH   6  13
ENDBRANCH   5  10
ENDBRANCH   4   5
ENDBRANCH   1   4
BRANCH   1  15
ATOM     15  C   LIG    1       -0.013   1.086   0.008  0.00  0.00    +0.320 C 
BRANCH  15  16
ATOM     16  N   LIG    1       -0.698   1.558   1.213  0.00  0.00    -0.450 N 
ATOM     17  N   LIG    1       -0.340   2.781   1.786  0.00  0.00    +0.080 NA
ATOM     18  N   LIG    1       -0.902   3.250   2.841  0.00  0.00    -0.190 NA
ATOM     19  C   LIG    1       -1.895   2.585   3.481  0.00  0.00    +0.060 A 
ATOM     20  C   LIG    1       -2.498   3.108   4.627  0.00  0.00    +0.080 A 
ATOM     21  C   LIG    1       -3.505   2.405   5.251  0.00  0.00    +0.070 A 
ATOM     22  C   LIG    1       -3.929   1.180   4.755  0.00  0.00    +0.040 A 
ATOM     23  C   LIG    1       -3.350   0.643   3.625  0.00  0.00    +0.100 A 
ATOM     24  C   LIG    1       -2.330   1.339   2.979  0.00  0.00    -0.150 A 
ATOM     25  C   LIG    1       -1.683   0.812   1.768  0.00  0.00    +0.540 A 
ATOM     26  O   LIG    1       -2.017  -0.254   1.284  0.00  0.00    -0.500 OA
ENDBRANCH  15  16
ENDBRANCH   1  15
TORSDOF 7
