REMARK  Name = ZINCqH0000031EBL.0
REMARK                            x       y       z     vdW  Elec       q    Type
REMARK                         _______ _______ _______ _____ _____    ______ ____
ROOT
ATOM      1  C   LIG    1        2.252   4.148  -1.067  0.00  0.00    +0.520 C 
ATOM      2  N   LIG    1        3.401   3.642  -1.556  0.00  0.00    -0.630 N 
ATOM      3  H   LIG    1        3.431   2.727  -1.877  0.00  0.00    +0.430 HD
ATOM      4  O   LIG    1        2.214   5.292  -0.666  0.00  0.00    -0.420 OA
ENDROOT
BRANCH   1   9
ATOM      5  C   LIG    1        1.311  -0.739  -0.128  0.00  0.00    +0.120 C 
ATOM      6  C   LIG    1        0.002  -0.004   0.002  0.00  0.00    +0.520 C 
ATOM      7  N   LIG    1       -0.017   1.344   0.001  0.00  0.00    -0.560 N 
ATOM      8  C   LIG    1        1.232   2.123  -0.046  0.00  0.00    +0.290 C 
ATOM      9  C   LIG    1        1.012   3.292  -1.018  0.00  0.00    +0.180 C 
ATOM     10  O   LIG    1       -0.094   4.071  -0.560  0.00  0.00    -0.280 OA
ATOM     11  C   LIG    1       -1.242   3.416  -0.242  0.00  0.00    +0.090 A 
ATOM     12  C   LIG    1       -2.441   4.112  -0.202  0.00  0.00    +0.020 A 
ATOM     13  C   LIG    1       -3.612   3.454   0.123  0.00  0.00    +0.030 A 
ATOM     14  C   LIG    1       -3.597   2.102   0.409  0.00  0.00    +0.000 A 
ATOM     15  C   LIG    1       -2.406   1.400   0.371  0.00  0.00    +0.050 A 
ATOM     16  C   LIG    1       -1.229   2.054   0.039  0.00  0.00    +0.070 A 
ATOM     17  O   LIG    1       -1.034  -0.625   0.108  0.00  0.00    -0.510 OA
ENDBRANCH   1   9
BRANCH   2  18
ATOM     18  C   LIG    1        4.540   4.429  -1.601  0.00  0.00    +0.340 A 
ATOM     19  N   LIG    1        4.604   5.653  -1.206  0.00  0.00    -0.460 NA
ATOM     20  C   LIG    1        5.788   6.289  -1.309  0.00  0.00    +0.110 A 
ATOM     21  C   LIG    1        6.114   7.613  -0.946  0.00  0.00    +0.100 A 
ATOM     22  C   LIG    1        7.387   8.091  -1.133  0.00  0.00    +0.060 A 
ATOM     23  C   LIG    1        8.373   7.283  -1.681  0.00  0.00    -0.020 A 
ATOM     24  C   LIG    1        8.077   5.986  -2.043  0.00  0.00    +0.080 A 
ATOM     25 CL   LIG    1        9.977   7.904  -1.910  0.00  0.00    -0.050 Cl
ATOM     26  C   LIG    1        6.791   5.484  -1.860  0.00  0.00    -0.170 A 
ATOM     27  S   LIG    1        6.102   3.901  -2.212  0.00  0.00    +0.090 S 
ENDBRANCH   2  18
TORSDOF 2
