REMARK  Name = ZINCrg000000mOuq.0
REMARK                            x       y       z     vdW  Elec       q    Type
REMARK                         _______ _______ _______ _____ _____    ______ ____
ROOT
ATOM      1  N   LIG    1        3.174   4.629   0.000  0.00  0.00    -0.510 NA
ENDROOT
BRANCH   1   2
ATOM      2  C   LIG    1        2.869   5.323  -1.258  0.00  0.00    +0.170 C 
ATOM      3  C   LIG    1        2.678   6.816  -0.983  0.00  0.00    +0.040 C 
ENDBRANCH   1   2
BRANCH   1   4
ATOM      4  C   LIG    1        2.991   3.178  -0.141  0.00  0.00    +0.190 C 
BRANCH   4   5
ATOM      5  C   LIG    1        1.533   2.876  -0.373  0.00  0.00    +0.430 C 
ATOM      6  O   LIG    1        0.725   3.781  -0.416  0.00  0.00    -0.450 OA
BRANCH   5  10
ATOM      7  N   LIG    1       -0.175  -0.291  -0.867  0.00  0.00    -0.430 N 
ATOM      8  C   LIG    1        1.101  -0.755  -0.723  0.00  0.00    +0.010 A 
ATOM      9  C   LIG    1        1.928   0.284  -0.522  0.00  0.00    -0.020 A 
ATOM     10  C   LIG    1        1.090   1.491  -0.546  0.00  0.00    -0.270 A 
ATOM     11  C   LIG    1        1.515  -2.203  -0.778  0.00  0.00    +0.130 C 
ATOM     12  C   LIG    1       -0.201   1.050  -0.765  0.00  0.00    +0.110 A 
ATOM     13  C   LIG    1       -1.426   1.921  -0.876  0.00  0.00    +0.140 C 
BRANCH   7  14
ATOM     14  C   LIG    1       -1.349  -1.134  -1.101  0.00  0.00    +0.320 C 
BRANCH  14  16
ATOM     15  C   LIG    1       -1.624  -2.516  -3.095  0.00  0.00    +0.050 C 
ATOM     16  C   LIG    1       -1.553  -1.312  -2.584  0.00  0.00    -0.060 C 
ENDBRANCH  14  16
ENDBRANCH   7  14
ENDBRANCH   5  10
ENDBRANCH   4   5
ENDBRANCH   1   4
BRANCH   1  17
ATOM     17  C   LIG    1        4.533   4.945   0.460  0.00  0.00    +0.210 C 
BRANCH  17  18
ATOM     18  C   LIG    1        4.648   4.644   1.933  0.00  0.00    +0.510 C 
ATOM     19  N   LIG    1        5.841   4.751   2.551  0.00  0.00    -0.720 N 
ATOM     20  H   LIG    1        6.625   5.021   2.049  0.00  0.00    +0.400 HD
ATOM     21  O   LIG    1        3.667   4.305   2.561  0.00  0.00    -0.510 OA
BRANCH  19  22
ATOM     22  C   LIG    1        5.952   4.458   3.982  0.00  0.00    +0.260 C 
ATOM     23  C   LIG    1        5.638   5.720   4.804  0.00  0.00    +0.060 C 
ATOM     24  C   LIG    1        6.090   5.486   6.260  0.00  0.00    -0.310 C 
ATOM     25  S   LIG    1        7.465   4.285   6.146  0.00  0.00    +2.400 S 
ATOM     26  O   LIG    1        8.682   4.928   6.500  0.00  0.00    -0.930 OA
ATOM     27  O   LIG    1        7.088   3.075   6.788  0.00  0.00    -0.930 OA
ATOM     28  C   LIG    1        7.408   4.051   4.329  0.00  0.00    -0.320 C 
ENDBRANCH  19  22
ENDBRANCH  17  18
ENDBRANCH   1  17
TORSDOF 9
