REMARK  Name = ZINCvU0000000BwV.0
REMARK                            x       y       z     vdW  Elec       q    Type
REMARK                         _______ _______ _______ _____ _____    ______ ____
ROOT
ATOM      1  C   LIG    1        3.310   5.657   1.421  0.00  0.00    +0.100 C 
ATOM      2  C   LIG    1        2.800   5.386   0.003  0.00  0.00    +0.040 C 
ENDROOT
BRANCH   2   3
ATOM      3  C   LIG    1        1.946   4.144   0.005  0.00  0.00    +0.540 C 
ATOM      4  N   LIG    1        2.526   2.927  -0.007  0.00  0.00    -0.610 N 
ATOM      5  H   LIG    1        3.493   2.851  -0.017  0.00  0.00    +0.430 HD
ATOM      6  O   LIG    1        0.737   4.239   0.018  0.00  0.00    -0.480 OA
BRANCH   4   7
ATOM      7  C   LIG    1        1.739   1.782  -0.005  0.00  0.00    +0.270 A 
ATOM      8  N   LIG    1        2.186   0.566  -0.016  0.00  0.00    -0.490 NA
ATOM      9  C   LIG    1        1.285  -0.407  -0.012  0.00  0.00    +0.130 A 
ATOM     10  C   LIG    1        0.002  -0.004   0.002  0.00  0.00    -0.110 A 
ATOM     11  S   LIG    1       -0.022   1.758   0.012  0.00  0.00    +0.210 S 
BRANCH   9  12
ATOM     12  C   LIG    1        1.666  -1.840  -0.024  0.00  0.00    -0.030 A 
ATOM     13  C   LIG    1        0.681  -2.826  -0.015  0.00  0.00    +0.030 A 
ATOM     14  C   LIG    1        1.041  -4.158  -0.032  0.00  0.00    +0.010 A 
ATOM     15  C   LIG    1        2.377  -4.516  -0.047  0.00  0.00    +0.010 A 
ATOM     16  C   LIG    1        3.359  -3.542  -0.050  0.00  0.00    +0.010 A 
ATOM     17  C   LIG    1        3.011  -2.207  -0.039  0.00  0.00    +0.040 A 
ENDBRANCH   9  12
ENDBRANCH   4   7
ENDBRANCH   2   3
BRANCH   2  18
ATOM     18  S   LIG    1        1.813   6.798  -0.564  0.00  0.00    +0.100 S 
BRANCH  18  19
ATOM     19  C   LIG    1        2.995   8.102  -0.643  0.00  0.00    +0.130 A 
ATOM     20  N   LIG    1        4.271   8.015  -0.343  0.00  0.00    -0.240 NA
ATOM     21  N   LIG    1        4.848   9.153  -0.513  0.00  0.00    -0.240 NA
ATOM     22  C   LIG    1        3.964  10.042  -0.927  0.00  0.00    +0.210 A 
ATOM     23  C   LIG    1        4.045  11.411  -1.256  0.00  0.00    +0.010 A 
ATOM     24  C   LIG    1        2.923  12.064  -1.661  0.00  0.00    +0.120 A 
ATOM     25  C   LIG    1        1.701  11.370  -1.747  0.00  0.00    -0.190 A 
ATOM     26  C   LIG    1        1.635  10.062  -1.430  0.00  0.00    +0.340 A 
ATOM     27 CL   LIG    1        5.560  12.252  -1.146  0.00  0.00    +0.010 Cl
ATOM     28  N   LIG    1        2.753   9.390  -1.020  0.00  0.00    -0.380 N 
BRANCH  25  29
ATOM     29  C   LIG    1        0.459  12.096  -2.196  0.00  0.00    +0.530 C 
ATOM     30  F   LIG    1       -0.444  11.178  -2.743  0.00  0.00    -0.170 F 
ATOM     31  F   LIG    1        0.799  13.049  -3.161  0.00  0.00    -0.160 F 
ATOM     32  F   LIG    1       -0.131  12.732  -1.099  0.00  0.00    -0.160 F 
ENDBRANCH  25  29
ENDBRANCH  18  19
ENDBRANCH   2  18
TORSDOF 6
