REMARK  Name = ZINCvU0000000G3H.1
REMARK                            x       y       z     vdW  Elec       q    Type
REMARK                         _______ _______ _______ _____ _____    ______ ____
ROOT
ATOM      1  C   LIG    1       -0.604   7.671   0.982  0.00  0.00    -0.110 A 
ATOM      2  C   LIG    1       -0.376   6.363   0.602  0.00  0.00    +0.060 A 
ATOM      3  S   LIG    1        0.489   6.325  -0.926  0.00  0.00    +0.070 S 
ATOM      4  C   LIG    1        0.534   8.077  -1.021  0.00  0.00    -0.010 A 
ATOM      5  C   LIG    1       -0.069   8.632   0.037  0.00  0.00    -0.020 A 
ENDROOT
BRANCH   5   6
ATOM      6  C   LIG    1       -0.183  10.098   0.224  0.00  0.00    -0.040 A 
ATOM      7  C   LIG    1       -1.419  10.672   0.518  0.00  0.00    +0.030 A 
ATOM      8  C   LIG    1       -1.519  12.037   0.696  0.00  0.00    +0.010 A 
ATOM      9  C   LIG    1       -0.397  12.837   0.571  0.00  0.00    +0.010 A 
ATOM     10  C   LIG    1        0.831  12.274   0.274  0.00  0.00    +0.010 A 
ATOM     11  C   LIG    1        0.944  10.909   0.100  0.00  0.00    +0.030 A 
ENDBRANCH   5   6
BRANCH   1  12
ATOM     12  C   LIG    1       -1.308   8.047   2.206  0.00  0.00    +0.550 C 
ATOM     13  O   LIG    1       -0.686   8.212   3.239  0.00  0.00    -0.490 OA
BRANCH  12  14
ATOM     14  O   LIG    1       -2.647   8.211   2.192  0.00  0.00    -0.340 OA
BRANCH  14  16
ATOM     15  C   LIG    1       -4.778   8.718   3.213  0.00  0.00    +0.070 C 
ATOM     16  C   LIG    1       -3.269   8.579   3.425  0.00  0.00    +0.200 C 
ENDBRANCH  14  16
ENDBRANCH  12  14
ENDBRANCH   1  12
BRANCH   2  17
ATOM     17  N   LIG    1       -0.765   5.275   1.298  0.00  0.00    -0.440 NA
ATOM     18  C   LIG    1       -0.500   4.074   0.842  0.00  0.00    +0.380 C 
BRANCH  18  19
ATOM     19  C   LIG    1       -0.922   2.896   1.596  0.00  0.00    -0.310 A 
ATOM     20  C   LIG    1       -0.718   1.572   1.248  0.00  0.00    +0.250 A 
ATOM     21  N   LIG    1       -1.252   0.791   2.208  0.00  0.00    -0.460 N 
ATOM     22  H   LIG    1       -1.241  -0.179   2.207  0.00  0.00    +0.450 HD
ATOM     23  N   LIG    1       -1.823   1.585   3.206  0.00  0.00    -0.360 N 
ATOM     24  C   LIG    1       -0.013   1.086   0.008  0.00  0.00    +0.200 C 
ATOM     25  C   LIG    1       -1.651   2.882   2.877  0.00  0.00    +0.550 A 
ATOM     26  O   LIG    1       -2.020   3.850   3.514  0.00  0.00    -0.480 OA
BRANCH  23  27
ATOM     27  C   LIG    1       -2.466   1.114   4.355  0.00  0.00    +0.160 A 
ATOM     28  C   LIG    1       -2.584  -0.252   4.577  0.00  0.00    -0.040 A 
ATOM     29  C   LIG    1       -3.215  -0.714   5.715  0.00  0.00    +0.040 A 
ATOM     30  C   LIG    1       -3.739   0.182   6.629  0.00  0.00    -0.010 A 
ATOM     31  C   LIG    1       -3.629   1.543   6.408  0.00  0.00    +0.050 A 
ATOM     32  C   LIG    1       -2.994   2.011   5.275  0.00  0.00    +0.020 A 
ENDBRANCH  23  27
ENDBRANCH  18  19
ENDBRANCH   2  17
TORSDOF 7
