REMARK  Name = ZINCqH0000004CYb.2
REMARK                            x       y       z     vdW  Elec       q    Type
REMARK                         _______ _______ _______ _____ _____    ______ ____
ROOT
ATOM      1  C   LIG    1       -0.389   8.292  -2.760  0.00  0.00    +0.520 C 
ATOM      2  N   LIG    1       -0.283   9.621  -2.958  0.00  0.00    -0.670 N 
ATOM      3  H   LIG    1       -0.352  10.230  -2.206  0.00  0.00    +0.410 HD
ATOM      4  O   LIG    1       -0.397   7.537  -3.709  0.00  0.00    -0.500 OA
ENDROOT
BRANCH   2   5
ATOM      5  C   LIG    1       -0.074  10.123  -4.249  0.00  0.00    +0.150 A 
ATOM      6  C   LIG    1        0.689   9.403  -5.158  0.00  0.00    +0.030 A 
ATOM      7  C   LIG    1        0.891   9.893  -6.434  0.00  0.00    -0.010 A 
ATOM      8  C   LIG    1        0.344  11.111  -6.805  0.00  0.00    +0.090 A 
ATOM      9  C   LIG    1       -0.416  11.838  -5.894  0.00  0.00    +0.120 A 
ATOM     10  C   LIG    1       -0.624  11.343  -4.617  0.00  0.00    -0.060 A 
BRANCH   9  11
ATOM     11  O   LIG    1       -0.955  13.033  -6.257  0.00  0.00    -0.300 OA
ATOM     12  C   LIG    1       -1.724  13.724  -5.271  0.00  0.00    +0.230 C 
ENDBRANCH   9  11
BRANCH   8  13
ATOM     13  O   LIG    1        0.549  11.595  -8.059  0.00  0.00    -0.310 OA
ATOM     14  C   LIG    1        1.339  10.796  -8.942  0.00  0.00    +0.250 C 
ENDBRANCH   8  13
ENDBRANCH   2   5
BRANCH   1  15
ATOM     15  C   LIG    1       -0.498   7.745  -1.360  0.00  0.00    +0.180 C 
ATOM     16  C   LIG    1       -1.849   8.143  -0.761  0.00  0.00    +0.020 C 
BRANCH  15  17
ATOM     17  N   LIG    1       -0.392   6.280  -1.397  0.00  0.00    -0.510 NA
ATOM     18  C   LIG    1       -0.131   5.737  -0.057  0.00  0.00    +0.200 C 
BRANCH  17  19
ATOM     19  C   LIG    1       -1.597   5.679  -1.984  0.00  0.00    +0.230 C 
BRANCH  19  23
ATOM     20  C   LIG    1       -0.915   1.521  -2.687  0.00  0.00    -0.080 A 
ATOM     21  C   LIG    1       -0.612   2.447  -3.668  0.00  0.00    +0.000 A 
ATOM     22  C   LIG    1       -0.838   3.792  -3.442  0.00  0.00    +0.040 A 
ATOM     23  C   LIG    1       -1.357   4.212  -2.232  0.00  0.00    -0.080 A 
ATOM     24  C   LIG    1       -1.655   3.287  -1.249  0.00  0.00    +0.010 A 
ATOM     25  C   LIG    1       -1.434   1.942  -1.476  0.00  0.00    +0.000 A 
BRANCH  20  27
ATOM     26  C   LIG    1       -1.929  -0.573  -3.545  0.00  0.00    +0.030 C 
ATOM     27  C   LIG    1       -0.674   0.054  -2.934  0.00  0.00    +0.050 C 
ENDBRANCH  20  27
ENDBRANCH  19  23
ENDBRANCH  17  19
ENDBRANCH  15  17
ENDBRANCH   1  15
TORSDOF 8
