REMARK  Name = ZINCqH0000004ZZF.0
REMARK                            x       y       z     vdW  Elec       q    Type
REMARK                         _______ _______ _______ _____ _____    ______ ____
ROOT
ATOM      1  C   LIG    1        0.780  -0.904  -3.144  0.00  0.00    +0.290 C 
ATOM      2  N   LIG    1        0.888  -1.444  -1.786  0.00  0.00    -0.590 N 
ATOM      3  C   LIG    1        1.069  -2.766  -1.599  0.00  0.00    +0.610 C 
ATOM      4  O   LIG    1        1.078  -3.225  -0.472  0.00  0.00    -0.510 OA
ENDROOT
BRANCH   2   5
ATOM      5  C   LIG    1        0.800  -0.546  -0.632  0.00  0.00    +0.280 C 
ATOM      6  C   LIG    1        1.929   0.486  -0.703  0.00  0.00    +0.040 C 
ATOM      7  C   LIG    1        1.660   1.571   0.346  0.00  0.00    +0.050 C 
ATOM      8  C   LIG    1        0.414   2.356  -0.068  0.00  0.00    +0.260 C 
ATOM      9  N   LIG    1       -0.685   1.446  -0.366  0.00  0.00    -0.560 N 
ATOM     10  C   LIG    1       -0.530   0.151  -0.642  0.00  0.00    +0.510 C 
ATOM     11  O   LIG    1       -1.516  -0.500  -0.915  0.00  0.00    -0.520 OA
BRANCH   9  12
ATOM     12  C   LIG    1       -1.984   1.966  -0.369  0.00  0.00    +0.130 A 
ATOM     13  C   LIG    1       -2.897   1.565   0.597  0.00  0.00    +0.020 A 
ATOM     14  C   LIG    1       -4.176   2.084   0.595  0.00  0.00    +0.020 A 
ATOM     15  C   LIG    1       -4.553   2.995  -0.376  0.00  0.00    +0.010 A 
ATOM     16  C   LIG    1       -3.648   3.393  -1.342  0.00  0.00    +0.020 A 
ATOM     17  C   LIG    1       -2.365   2.881  -1.342  0.00  0.00    +0.000 A 
ENDBRANCH   9  12
ENDBRANCH   2   5
BRANCH   3  18
ATOM     18  C   LIG    1        1.254  -3.652  -2.753  0.00  0.00    -0.290 A 
ATOM     19  C   LIG    1        2.442  -4.032  -3.287  0.00  0.00    +0.130 A 
ATOM     20  N   LIG    1        2.334  -4.834  -4.317  0.00  0.00    -0.460 NA
ATOM     21  C   LIG    1        1.140  -5.153  -4.701  0.00  0.00    +0.230 A 
ATOM     22  S   LIG    1       -0.027  -4.405  -3.700  0.00  0.00    +0.190 S 
BRANCH  19  23
ATOM     23  C   LIG    1        3.769  -3.576  -2.740  0.00  0.00    +0.000 C 
ATOM     24  C   LIG    1        3.790  -2.048  -2.660  0.00  0.00    +0.040 C 
ATOM     25  C   LIG    1        4.893  -4.053  -3.662  0.00  0.00    +0.050 C 
ATOM     26  C   LIG    1        3.973  -4.162  -1.341  0.00  0.00    +0.050 C 
ENDBRANCH  19  23
ENDBRANCH   3  18
TORSDOF 4
