REMARK  Name = ZINCtV000002OLP2.0
REMARK                            x       y       z     vdW  Elec       q    Type
REMARK                         _______ _______ _______ _____ _____    ______ ____
ROOT
ATOM      1  O   LIG    1       -2.575   5.431  -0.155  0.00  0.00    -0.450 OA
ATOM      2  C   LIG    1       -2.592   5.850  -1.296  0.00  0.00    +0.560 C 
ATOM      3  N   LIG    1       -3.765   5.987  -1.946  0.00  0.00    -0.630 N 
ATOM      4  H   LIG    1       -3.778   6.321  -2.856  0.00  0.00    +0.420 HD
ENDROOT
BRANCH   3   5
ATOM      5  C   LIG    1       -4.950   5.650  -1.314  0.00  0.00    +0.340 A 
ATOM      6  N   LIG    1       -5.039   5.194  -0.114  0.00  0.00    -0.460 NA
ATOM      7  C   LIG    1       -6.269   4.914   0.366  0.00  0.00    +0.120 A 
ATOM      8  C   LIG    1       -6.627   4.414   1.636  0.00  0.00    +0.100 A 
ATOM      9  C   LIG    1       -7.932   4.184   1.948  0.00  0.00    +0.040 A 
ATOM     10  C   LIG    1       -8.940   4.438   1.020  0.00  0.00    -0.090 A 
ATOM     11  C   LIG    1       -8.615   4.928  -0.232  0.00  0.00    +0.110 A 
ATOM     12  C   LIG    1       -7.284   5.167  -0.562  0.00  0.00    -0.170 A 
ATOM     13  S   LIG    1       -6.546   5.778  -2.041  0.00  0.00    +0.080 S 
BRANCH  10  14
ATOM     14  S   LIG    1      -10.624   4.136   1.441  0.00  0.00    -0.080 S 
BRANCH  14  15
ATOM     15  C   LIG    1      -10.515   3.518   3.143  0.00  0.00    +0.430 C 
ATOM     16  F   LIG    1       -9.925   4.491   3.956  0.00  0.00    -0.180 F 
ATOM     17  F   LIG    1       -9.738   2.355   3.168  0.00  0.00    -0.180 F 
ENDBRANCH  14  15
ENDBRANCH  10  14
ENDBRANCH   3   5
BRANCH   2  18
ATOM     18  C   LIG    1       -1.327   6.210  -1.970  0.00  0.00    -0.140 A 
ATOM     19  C   LIG    1       -1.349   6.801  -3.234  0.00  0.00    +0.050 A 
ATOM     20  C   LIG    1       -0.165   7.134  -3.857  0.00  0.00    +0.000 A 
ATOM     21  C   LIG    1        1.044   6.884  -3.232  0.00  0.00    +0.050 A 
ATOM     22  C   LIG    1        1.073   6.303  -1.976  0.00  0.00    +0.020 A 
ATOM     23  C   LIG    1       -0.104   5.960  -1.344  0.00  0.00    -0.010 A 
BRANCH  23  24
ATOM     24  C   LIG    1       -0.070   5.322   0.020  0.00  0.00    +0.150 C 
BRANCH  24  25
ATOM     25  C   LIG    1        1.354   5.262   0.512  0.00  0.00    -0.080 A 
ATOM     26  C   LIG    1        1.908   6.351   1.158  0.00  0.00    +0.010 A 
ATOM     27  C   LIG    1        3.213   6.297   1.609  0.00  0.00    +0.000 A 
ATOM     28  C   LIG    1        3.965   5.152   1.415  0.00  0.00    +0.000 A 
ATOM     29  C   LIG    1        3.412   4.065   0.764  0.00  0.00    +0.000 A 
ATOM     30  C   LIG    1        2.105   4.119   0.316  0.00  0.00    +0.000 A 
ENDBRANCH  24  25
ENDBRANCH  23  24
ENDBRANCH   2  18
TORSDOF 6
