REMARK  Name = ZINCpe00000gN4AI.0
REMARK                            x       y       z     vdW  Elec       q    Type
REMARK                         _______ _______ _______ _____ _____    ______ ____
ROOT
ATOM      1  C   LIG    1       -0.585   1.942   3.257  0.00  0.00    -0.020 A 
ATOM      2  C   LIG    1       -0.425   3.304   3.517  0.00  0.00    +0.080 A 
ATOM      3  C   LIG    1        0.682   3.968   3.033  0.00  0.00    +0.050 A 
ATOM      4  C   LIG    1        1.638   3.289   2.295  0.00  0.00    -0.080 A 
ATOM      5  C   LIG    1        2.921   3.765   1.660  0.00  0.00    +0.320 C 
ATOM      6  N   LIG    1        3.545   2.615   0.998  0.00  0.00    -0.610 N 
ATOM      7  C   LIG    1        2.664   1.464   1.223  0.00  0.00    +0.330 C 
ATOM      8  C   LIG    1        4.705   2.616   0.313  0.00  0.00    +0.530 C 
ATOM      9  O   LIG    1        5.113   1.590  -0.190  0.00  0.00    -0.510 OA
ATOM     10  C   LIG    1        1.488   1.939   2.038  0.00  0.00    -0.100 A 
ATOM     11  C   LIG    1        0.384   1.261   2.517  0.00  0.00    +0.100 A 
ENDROOT
BRANCH   8  12
ATOM     12  C   LIG    1        5.497   3.891   0.173  0.00  0.00    +0.190 C 
ATOM     13  C   LIG    1        5.457   4.375  -1.292  0.00  0.00    +0.070 C 
ATOM     14  C   LIG    1        6.892   4.918  -1.520  0.00  0.00    +0.180 C 
ATOM     15  C   LIG    1        7.738   3.930  -0.678  0.00  0.00    +0.190 C 
ATOM     16  N   LIG    1        6.910   3.644   0.513  0.00  0.00    -0.450 N 
BRANCH  16  17
ATOM     17  C   LIG    1        7.096   2.341   0.946  0.00  0.00    +0.350 A 
ATOM     18  C   LIG    1        6.708   1.958   2.231  0.00  0.00    -0.090 A 
ATOM     19  C   LIG    1        6.911   0.647   2.614  0.00  0.00    +0.330 A 
ATOM     20  N   LIG    1        7.472  -0.197   1.759  0.00  0.00    -0.530 NA
ATOM     21  C   LIG    1        7.832   0.197   0.554  0.00  0.00    +0.510 A 
ATOM     22  N   LIG    1        7.654   1.436   0.146  0.00  0.00    -0.530 NA
ENDBRANCH  16  17
BRANCH  14  23
ATOM     23  O   LIG    1        7.252   4.852  -2.901  0.00  0.00    -0.550 OA
ATOM     24  H   LIG    1        8.171   5.090  -3.080  0.00  0.00    +0.390 HD
ENDBRANCH  14  23
ENDBRANCH   8  12
BRANCH   1  26
ATOM     25  N   LIG    1       -2.647   0.692   4.142  0.00  0.00    -0.400 NA
ATOM     26  C   LIG    1       -1.735   1.245   3.750  0.00  0.00    +0.250 C 
ENDBRANCH   1  26
TORSDOF 4
