REMARK  Name = ZINCrg00001JduPN.0
REMARK                            x       y       z     vdW  Elec       q    Type
REMARK                         _______ _______ _______ _____ _____    ______ ____
ROOT
ATOM      1  S   LIG    1       -0.017   1.417   0.010  0.00  0.00    +2.610 S 
ATOM      2  O   LIG    1        1.162   2.210   0.003  0.00  0.00    -1.020 OA
ATOM      3  O   LIG    1        0.002  -0.004   0.002  0.00  0.00    -1.030 OA
ENDROOT
BRANCH   1   8
ATOM      4  C   LIG    1       -2.149   1.311   3.425  0.00  0.00    -0.160 A 
ATOM      5  C   LIG    1       -2.365   2.665   3.686  0.00  0.00    +0.120 A 
ATOM      6  C   LIG    1       -1.863   3.619   2.824  0.00  0.00    -0.020 A 
ATOM      7  C   LIG    1       -1.147   3.235   1.704  0.00  0.00    +0.060 A 
ATOM      8  C   LIG    1       -0.930   1.894   1.440  0.00  0.00    -0.640 A 
ATOM      9  C   LIG    1       -0.602   4.282   0.767  0.00  0.00    +0.110 C 
ATOM     10  C   LIG    1       -1.430   0.930   2.290  0.00  0.00    +0.190 A 
BRANCH   4  11
ATOM     11  C   LIG    1       -2.684   0.284   4.343  0.00  0.00    +0.510 C 
ATOM     12  O   LIG    1       -2.495  -0.894   4.114  0.00  0.00    -0.510 OA
BRANCH  11  13
ATOM     13  O   LIG    1       -3.382   0.654   5.434  0.00  0.00    -0.360 OA
BRANCH  13  15
ATOM     14  C   LIG    1       -4.639   0.201   7.470  0.00  0.00    +0.070 C 
ATOM     15  C   LIG    1       -3.877  -0.408   6.291  0.00  0.00    +0.200 C 
ENDBRANCH  13  15
ENDBRANCH  11  13
ENDBRANCH   4  11
ENDBRANCH   1   8
BRANCH   1  16
ATOM     16  N   LIG    1       -0.900   1.880  -1.312  0.00  0.00    -1.070 NA
BRANCH  16  17
ATOM     17  C   LIG    1       -0.413   1.625  -2.609  0.00  0.00    +0.170 A 
ATOM     18  C   LIG    1       -1.031   1.949  -3.772  0.00  0.00    +0.040 A 
ATOM     19  N   LIG    1       -0.233   1.532  -4.791  0.00  0.00    -0.430 N 
ATOM     20  N   LIG    1        0.904   0.937  -4.229  0.00  0.00    -0.280 NA
ATOM     21  C   LIG    1        0.800   0.997  -2.926  0.00  0.00    +0.160 A 
BRANCH  19  22
ATOM     22  C   LIG    1       -0.512   1.679  -6.221  0.00  0.00    +0.280 C 
ATOM     23  C   LIG    1       -1.372   2.936  -6.479  0.00  0.00    +0.250 C 
ATOM     24  O   LIG    1       -2.276   2.554  -7.538  0.00  0.00    -0.340 OA
ATOM     25  C   LIG    1       -2.680   1.203  -7.225  0.00  0.00    +0.240 C 
ATOM     26  C   LIG    1       -1.392   0.512  -6.724  0.00  0.00    +0.130 C 
BRANCH  26  27
ATOM     27  N   LIG    1       -1.698  -0.412  -5.624  0.00  0.00    -0.620 N 
ATOM     28  H   LIG    1       -0.839  -0.787  -5.250  0.00  0.00    +0.440 HD
ATOM     29  H   LIG    1       -2.273  -1.166  -5.968  0.00  0.00    +0.430 HD
ATOM     30  H   LIG    1       -2.193   0.083  -4.897  0.00  0.00    +0.440 HD
ENDBRANCH  26  27
ENDBRANCH  19  22
ENDBRANCH  16  17
ENDBRANCH   1  16
TORSDOF 8
