REMARK  Name = ZINCrH000004qTQJ.0
REMARK                            x       y       z     vdW  Elec       q    Type
REMARK                         _______ _______ _______ _____ _____    ______ ____
ROOT
ATOM      1  C   LIG    1       -4.197   2.465   2.364  0.00  0.00    +0.570 C 
ATOM      2  N   LIG    1       -4.836   2.802   3.502  0.00  0.00    -0.600 N 
ATOM      3  C   LIG    1       -4.086   3.050   4.743  0.00  0.00    +0.290 C 
ATOM      4  C   LIG    1       -4.531   4.406   5.312  0.00  0.00    +0.200 C 
ATOM      5  N   LIG    1       -5.993   4.414   5.458  0.00  0.00    -0.480 N 
ATOM      6  C   LIG    1       -6.659   4.283   4.155  0.00  0.00    +0.200 C 
ATOM      7  C   LIG    1       -6.301   2.927   3.537  0.00  0.00    +0.320 C 
ATOM      8  O   LIG    1       -4.820   2.363   1.324  0.00  0.00    -0.510 OA
ENDROOT
BRANCH   1  14
ATOM      9  C   LIG    1        0.365   3.396   0.559  0.00  0.00    +0.140 C 
ATOM     10  C   LIG    1       -0.541   2.662   1.513  0.00  0.00    -0.110 A 
ATOM     11  C   LIG    1       -0.010   1.753   2.408  0.00  0.00    +0.160 A 
ATOM     12  C   LIG    1       -0.835   1.075   3.289  0.00  0.00    -0.050 A 
ATOM     13  C   LIG    1       -2.195   1.301   3.280  0.00  0.00    +0.170 A 
ATOM     14  C   LIG    1       -2.741   2.217   2.379  0.00  0.00    -0.160 A 
ATOM     15  C   LIG    1       -1.903   2.904   1.495  0.00  0.00    +0.200 A 
ATOM     16  F   LIG    1       -2.422   3.797   0.624  0.00  0.00    -0.100 F 
BRANCH  12  17
ATOM     17  N   LIG    1       -0.255   0.103   4.243  0.00  0.00    +0.030 N 
ATOM     18  O   LIG    1       -0.979  -0.495   5.019  0.00  0.00    -0.150 OA
ATOM     19  O   LIG    1        0.946  -0.099   4.253  0.00  0.00    -0.150 OA
ENDBRANCH  12  17
ENDBRANCH   1  14
BRANCH   5  20
ATOM     20  C   LIG    1       -6.421   5.559   6.124  0.00  0.00    +0.300 A 
ATOM     21  N   LIG    1       -6.322   6.738   5.531  0.00  0.00    -0.480 NA
ATOM     22  C   LIG    1       -6.721   7.847   6.125  0.00  0.00    +0.300 A 
ATOM     23  C   LIG    1       -7.250   7.817   7.400  0.00  0.00    -0.080 A 
ATOM     24  C   LIG    1       -7.367   6.599   8.060  0.00  0.00    +0.100 A 
ATOM     25 CL   LIG    1       -7.765   9.285   8.171  0.00  0.00    -0.030 Cl
ATOM     26  C   LIG    1       -6.944   5.453   7.410  0.00  0.00    -0.050 A 
ATOM     27 CL   LIG    1       -7.067   3.905   8.186  0.00  0.00    -0.020 Cl
ENDBRANCH   5  20
TORSDOF 3
