REMARK  Name = ZINCwl0000000r1E.0
REMARK                            x       y       z     vdW  Elec       q    Type
REMARK                         _______ _______ _______ _____ _____    ______ ____
ROOT
ATOM      1  N   LIG    1       -6.308   2.731   7.881  0.00  0.00    -0.730 N 
ATOM      2  H   LIG    1       -6.413   1.818   8.192  0.00  0.00    +0.410 HD
ATOM      3  C   LIG    1       -5.741   2.973   6.682  0.00  0.00    +0.510 C 
ATOM      4  O   LIG    1       -5.609   4.114   6.293  0.00  0.00    -0.530 OA
ENDROOT
BRANCH   1   5
ATOM      5  C   LIG    1       -6.764   3.846   8.714  0.00  0.00    +0.330 C 
BRANCH   5   9
ATOM      6  C   LIG    1       -8.438   2.325  12.338  0.00  0.00    -0.150 A 
ATOM      7  C   LIG    1       -7.090   2.624  12.271  0.00  0.00    +0.030 A 
ATOM      8  C   LIG    1       -6.548   3.116  11.098  0.00  0.00    +0.050 A 
ATOM      9  C   LIG    1       -7.355   3.309   9.992  0.00  0.00    -0.070 A 
ATOM     10  C   LIG    1       -8.704   3.016  10.061  0.00  0.00    +0.050 A 
ATOM     11  C   LIG    1       -9.245   2.519  11.232  0.00  0.00    +0.040 A 
BRANCH   6  12
ATOM     12  C   LIG    1       -9.029   1.790  13.616  0.00  0.00    +0.320 C 
BRANCH  12  13
ATOM     13  N   LIG    1       -9.358   2.908  14.510  0.00  0.00    -0.380 N 
ATOM     14  H   LIG    1       -8.540   3.483  14.644  0.00  0.00    +0.420 HD
BRANCH  13  16
ATOM     15  C   LIG    1      -10.688   4.946  14.781  0.00  0.00    +0.080 C 
ATOM     16  C   LIG    1      -10.431   3.713  13.912  0.00  0.00    +0.240 C 
ENDBRANCH  13  16
BRANCH  13  17
ATOM     17  C   LIG    1       -9.805   2.383  15.807  0.00  0.00    +0.240 C 
ATOM     18  C   LIG    1       -8.641   1.665  16.495  0.00  0.00    +0.080 C 
ENDBRANCH  13  17
ENDBRANCH  12  13
ENDBRANCH   6  12
ENDBRANCH   5   9
ENDBRANCH   1   5
BRANCH   3  19
ATOM     19  C   LIG    1       -5.271   1.826   5.825  0.00  0.00    +0.300 C 
BRANCH  19  20
ATOM     20  N   LIG    1       -4.697   2.348   4.583  0.00  0.00    -0.720 N 
ATOM     21  H   LIG    1       -4.668   3.304   4.426  0.00  0.00    +0.420 HD
ATOM     22  C   LIG    1       -4.209   1.498   3.657  0.00  0.00    +0.520 C 
ATOM     23  O   LIG    1       -4.245   0.302   3.853  0.00  0.00    -0.530 OA
BRANCH  22  24
ATOM     24  C   LIG    1       -3.618   2.035   2.379  0.00  0.00    +0.320 C 
BRANCH  24  25
ATOM     25  N   LIG    1       -3.162   0.920   1.546  0.00  0.00    -1.110 NA
ATOM     26  H   LIG    1       -3.063   0.035   1.931  0.00  0.00    +0.430 HD
BRANCH  25  27
ATOM     27  S   LIG    1       -2.814   1.169  -0.054  0.00  0.00    +2.700 S 
ATOM     28  O   LIG    1       -2.372  -0.079  -0.568  0.00  0.00    -0.950 OA
ATOM     29  O   LIG    1       -3.914   1.887  -0.596  0.00  0.00    -0.950 OA
BRANCH  27  30
ATOM     30  C   LIG    1       -1.429   2.255  -0.124  0.00  0.00    -0.690 A 
ATOM     31  C   LIG    1       -0.146   1.739  -0.138  0.00  0.00    +0.130 A 
ATOM     32  C   LIG    1        0.941   2.591  -0.198  0.00  0.00    -0.010 A 
ATOM     33  C   LIG    1        0.746   3.959  -0.239  0.00  0.00    -0.030 A 
ATOM     34  C   LIG    1       -0.536   4.475  -0.220  0.00  0.00    -0.010 A 
ATOM     35  C   LIG    1        1.931   4.887  -0.305  0.00  0.00    +0.090 C 
ATOM     36  C   LIG    1       -1.624   3.623  -0.160  0.00  0.00    +0.120 A 
ENDBRANCH  27  30
ENDBRANCH  25  27
ENDBRANCH  24  25
ENDBRANCH  22  24
ENDBRANCH  19  20
ENDBRANCH   3  19
TORSDOF 12
