REMARK  Name = ZINCnE00000dSNO1.0
REMARK                            x       y       z     vdW  Elec       q    Type
REMARK                         _______ _______ _______ _____ _____    ______ ____
ROOT
ATOM      1  C   LIG    1        1.617   3.281  -0.389  0.00  0.00    +0.590 C 
ATOM      2  N   LIG    1        0.628   4.194  -0.309  0.00  0.00    -0.590 N 
ATOM      3  C   LIG    1       -0.767   3.754  -0.343  0.00  0.00    +0.300 C 
ATOM      4  C   LIG    1       -1.441   4.290  -1.611  0.00  0.00    +0.100 C 
ATOM      5  S   LIG    1       -1.307   6.102  -1.624  0.00  0.00    -0.270 S 
ATOM      6  C   LIG    1        0.483   6.360  -1.438  0.00  0.00    +0.100 C 
ATOM      7  C   LIG    1        0.962   5.614  -0.182  0.00  0.00    +0.260 C 
ATOM      8  O   LIG    1        2.770   3.614  -0.186  0.00  0.00    -0.450 OA
ENDROOT
BRANCH   1  11
ATOM      9  C   LIG    1        3.645   0.925  -0.308  0.00  0.00    +0.160 C 
ATOM     10  C   LIG    1        2.188   0.855  -0.686  0.00  0.00    -0.090 A 
ATOM     11  C   LIG    1        1.303   1.885  -0.721  0.00  0.00    -0.020 A 
ATOM     12  O   LIG    1        0.092   1.432  -1.107  0.00  0.00    -0.170 OA
ATOM     13  C   LIG    1        0.127   0.105  -1.339  0.00  0.00    +0.060 A 
ATOM     14  C   LIG    1       -0.831  -0.817  -1.747  0.00  0.00    -0.030 A 
ATOM     15  C   LIG    1       -0.485  -2.143  -1.902  0.00  0.00    +0.060 A 
ATOM     16  C   LIG    1        0.812  -2.571  -1.654  0.00  0.00    +0.010 A 
ATOM     17  C   LIG    1        1.770  -1.683  -1.252  0.00  0.00    +0.090 A 
ATOM     18 CL   LIG    1       -2.458  -0.300  -2.061  0.00  0.00    -0.060 Cl
ATOM     19  C   LIG    1        1.440  -0.336  -1.089  0.00  0.00    -0.120 A 
ENDBRANCH   1  11
BRANCH   7  20
ATOM     20  C   LIG    1        2.477   5.771  -0.038  0.00  0.00    -0.040 C 
BRANCH  20  21
ATOM     21  C   LIG    1        2.912   5.237   1.302  0.00  0.00    +0.520 C 
ATOM     22  O   LIG    1        4.090   5.268   1.618  0.00  0.00    -0.710 OA
ATOM     23  O   LIG    1        2.087   4.774   2.071  0.00  0.00    -0.710 OA
ENDBRANCH  20  21
ENDBRANCH   7  20
TORSDOF 3
