REMARK  Name = ZINCvU0000000Hfw.0
REMARK                            x       y       z     vdW  Elec       q    Type
REMARK                         _______ _______ _______ _____ _____    ______ ____
ROOT
ATOM      1  O   LIG    1       -2.224   1.724   0.022  0.00  0.00    -0.580 OA
ATOM      2  C   LIG    1       -1.124   2.240   0.020  0.00  0.00    +0.730 C 
ATOM      3  N   LIG    1       -0.018   1.470   0.010  0.00  0.00    -0.640 N 
ATOM      4  C   LIG    1        1.368   1.960  -0.001  0.00  0.00    +0.240 C 
ATOM      5  C   LIG    1        2.291   0.724  -0.043  0.00  0.00    +0.040 C 
ATOM      6  C   LIG    1        1.368  -0.379  -0.625  0.00  0.00    -0.010 C 
ATOM      7  C   LIG    1        0.002  -0.004   0.002  0.00  0.00    +0.280 C 
ATOM      8  N   LIG    1       -1.009   3.583   0.026  0.00  0.00    -0.740 N 
ATOM      9  H   LIG    1       -0.131   3.995   0.024  0.00  0.00    +0.390 HD
ENDROOT
BRANCH   6  10
ATOM     10  C   LIG    1        1.819  -1.768  -0.169  0.00  0.00    +0.090 C 
BRANCH  10  11
ATOM     11  C   LIG    1        0.881  -2.808  -0.726  0.00  0.00    -0.070 A 
ATOM     12  C   LIG    1       -0.233  -3.191  -0.003  0.00  0.00    +0.000 A 
ATOM     13  C   LIG    1       -1.099  -4.141  -0.513  0.00  0.00    +0.030 A 
ATOM     14  C   LIG    1       -0.846  -4.718  -1.742  0.00  0.00    -0.020 A 
ATOM     15  C   LIG    1        0.275  -4.339  -2.468  0.00  0.00    +0.110 A 
ATOM     16  C   LIG    1        1.139  -3.382  -1.956  0.00  0.00    -0.010 A 
BRANCH  15  17
ATOM     17  O   LIG    1        0.526  -4.905  -3.678  0.00  0.00    -0.500 OA
ATOM     18  H   LIG    1        1.069  -5.704  -3.633  0.00  0.00    +0.390 HD
ENDBRANCH  15  17
ENDBRANCH  10  11
ENDBRANCH   6  10
BRANCH   8  19
ATOM     19  C   LIG    1       -2.211   4.421   0.037  0.00  0.00    +0.340 C 
BRANCH  19  20
ATOM     20  C   LIG    1       -1.884   5.761   0.643  0.00  0.00    -0.100 A 
ATOM     21  C   LIG    1       -0.681   6.376   0.352  0.00  0.00    +0.090 A 
ATOM     22  C   LIG    1       -0.382   7.607   0.903  0.00  0.00    +0.000 A 
ATOM     23  C   LIG    1       -1.284   8.221   1.756  0.00  0.00    +0.150 A 
ATOM     24  C   LIG    1       -2.487   7.602   2.051  0.00  0.00    -0.220 A 
ATOM     25  F   LIG    1       -0.990   9.422   2.300  0.00  0.00    -0.120 F 
ATOM     26  C   LIG    1       -2.786   6.373   1.495  0.00  0.00    +0.120 A 
BRANCH  24  27
ATOM     27  C   LIG    1       -3.470   8.268   2.979  0.00  0.00    +0.510 C 
ATOM     28  F   LIG    1       -3.848   9.506   2.447  0.00  0.00    -0.170 F 
ATOM     29  F   LIG    1       -2.873   8.461   4.230  0.00  0.00    -0.170 F 
ATOM     30  F   LIG    1       -4.600   7.457   3.121  0.00  0.00    -0.170 F 
ENDBRANCH  24  27
ENDBRANCH  19  20
BRANCH  19  31
ATOM     31  C   LIG    1       -2.708   4.617  -1.397  0.00  0.00    -0.060 C 
ATOM     32  C   LIG    1       -4.182   4.319  -1.680  0.00  0.00    +0.020 C 
ATOM     33  C   LIG    1       -3.096   3.366  -2.187  0.00  0.00    +0.030 C 
ENDBRANCH  19  31
ENDBRANCH   8  19
TORSDOF 7
