REMARK  Name = ZINCpe00000MJLUQ.0
REMARK                            x       y       z     vdW  Elec       q    Type
REMARK                         _______ _______ _______ _____ _____    ______ ____
ROOT
ATOM      1  C   LIG    1        0.091   0.055   0.148  0.00  0.00    +0.170 C 
ATOM      2  C   LIG    1        0.081   1.599   0.064  0.00  0.00    +0.080 C 
ATOM      3  C   LIG    1        1.537   1.971  -0.114  0.00  0.00    +0.520 C 
ATOM      4  N   LIG    1        2.247   0.892  -0.487  0.00  0.00    -0.580 N 
ATOM      5  O   LIG    1        1.996   3.081   0.056  0.00  0.00    -0.510 OA
ATOM      6  C   LIG    1        1.390  -0.293  -0.612  0.00  0.00    +0.300 C 
ENDROOT
BRANCH   6   7
ATOM      7  C   LIG    1        2.058  -1.488   0.017  0.00  0.00    +0.060 A 
ATOM      8  C   LIG    1        2.890  -1.467   1.085  0.00  0.00    -0.100 A 
ATOM      9  C   LIG    1        3.286  -2.783   1.347  0.00  0.00    +0.240 A 
ATOM     10  N   LIG    1        2.720  -3.564   0.464  0.00  0.00    -0.280 NA
ATOM     11  N   LIG    1        1.940  -2.770  -0.387  0.00  0.00    -0.370 N 
ATOM     12  C   LIG    1        1.136  -3.247  -1.515  0.00  0.00    +0.340 C 
ENDBRANCH   6   7
BRANCH   4  13
ATOM     13  C   LIG    1        3.691   0.899  -0.736  0.00  0.00    +0.210 C 
ATOM     14  C   LIG    1        4.488   2.106  -0.237  0.00  0.00    +0.050 C 
ATOM     15  C   LIG    1        4.230   1.925  -1.735  0.00  0.00    +0.010 C 
ENDBRANCH   4  13
BRANCH   1  16
ATOM     16  N   LIG    1       -1.082  -0.515  -0.526  0.00  0.00    -0.670 NA
ATOM     17  H   LIG    1       -0.872  -1.424  -0.911  0.00  0.00    +0.340 HD
BRANCH  16  18
ATOM     18  C   LIG    1       -2.232  -0.583   0.385  0.00  0.00    +0.280 C 
BRANCH  18  22
ATOM     19  C   LIG    1       -5.546  -2.134  -1.669  0.00  0.00    +0.260 A 
ATOM     20  C   LIG    1       -4.779  -3.029  -0.929  0.00  0.00    +0.030 A 
ATOM     21  C   LIG    1       -3.677  -2.531  -0.249  0.00  0.00    +0.070 A 
ATOM     22  C   LIG    1       -3.414  -1.172  -0.340  0.00  0.00    +0.030 A 
ATOM     23  N   LIG    1       -4.196  -0.398  -1.066  0.00  0.00    -0.180 NA
ATOM     24  N   LIG    1       -5.214  -0.854  -1.701  0.00  0.00    -0.300 NA
BRANCH  19  26
ATOM     25  C   LIG    1       -7.370  -1.599  -3.095  0.00  0.00    +0.250 C 
ATOM     26  O   LIG    1       -6.631  -2.574  -2.357  0.00  0.00    -0.300 OA
ENDBRANCH  19  26
ENDBRANCH  18  22
ENDBRANCH  16  18
ENDBRANCH   1  16
TORSDOF 6
