REMARK  Name = ZINCqH0000002Z24.0
REMARK                            x       y       z     vdW  Elec       q    Type
REMARK                         _______ _______ _______ _____ _____    ______ ____
ROOT
ATOM      1  N   LIG    1        4.814  -0.034   0.220  0.00  0.00    -0.470 N 
ENDROOT
BRANCH   1   2
ATOM      2  C   LIG    1        3.451  -0.151   0.018  0.00  0.00    +0.440 A 
ATOM      3  C   LIG    1        2.897  -1.099  -0.884  0.00  0.00    -0.110 A 
ATOM      4  C   LIG    1        1.505  -1.160  -1.038  0.00  0.00    +0.070 A 
ATOM      5  S   LIG    1        1.096  -2.400  -2.196  0.00  0.00    +0.150 S 
ATOM      6  C   LIG    1        2.784  -2.817  -2.457  0.00  0.00    -0.180 A 
ATOM      7  C   LIG    1        3.258  -3.899  -3.410  0.00  0.00    +0.110 C 
ATOM      8  C   LIG    1        4.750  -3.701  -3.684  0.00  0.00    +0.020 C 
ATOM      9  C   LIG    1        5.483  -3.546  -2.348  0.00  0.00    +0.010 C 
ATOM     10  C   LIG    1        5.114  -2.197  -1.729  0.00  0.00    +0.120 C 
ATOM     11  N   LIG    1        0.699  -0.342  -0.348  0.00  0.00    -0.480 NA
ATOM     12  C   LIG    1        1.268   0.521   0.476  0.00  0.00    +0.500 A 
ATOM     13  C   LIG    1        3.597  -2.060  -1.710  0.00  0.00    -0.050 A 
ATOM     14  N   LIG    1        2.570   0.619   0.657  0.00  0.00    -0.570 NA
ENDBRANCH   1   2
BRANCH   1  16
ATOM     15  C   LIG    1        6.800   1.388   0.047  0.00  0.00    +0.050 C 
ATOM     16  C   LIG    1        5.278   1.325  -0.091  0.00  0.00    +0.190 C 
ENDBRANCH   1  16
BRANCH   1  17
ATOM     17  C   LIG    1        5.178  -0.413   1.592  0.00  0.00    +0.250 C 
BRANCH  17  18
ATOM     18  C   LIG    1        4.444  -1.673   1.976  0.00  0.00    +0.510 C 
ATOM     19  N   LIG    1        4.926  -2.461   2.957  0.00  0.00    -0.720 N 
ATOM     20  H   LIG    1        5.746  -2.218   3.415  0.00  0.00    +0.400 HD
ATOM     21  O   LIG    1        3.419  -1.976   1.402  0.00  0.00    -0.510 OA
BRANCH  19  22
ATOM     22  C   LIG    1        4.213  -3.685   3.330  0.00  0.00    +0.370 C 
BRANCH  22  23
ATOM     23  C   LIG    1        4.955  -4.379   4.443  0.00  0.00    -0.210 A 
ATOM     24  C   LIG    1        4.756  -4.173   5.746  0.00  0.00    +0.030 A 
ATOM     25  C   LIG    1        5.557  -4.928   6.585  0.00  0.00    +0.000 A 
ATOM     26  C   LIG    1        6.407  -5.747   5.964  0.00  0.00    -0.030 A 
ATOM     27  S   LIG    1        6.210  -5.591   4.223  0.00  0.00    +0.120 S 
ENDBRANCH  22  23
ENDBRANCH  19  22
ENDBRANCH  17  18
ENDBRANCH   1  17
TORSDOF 6
