REMARK  Name = ZINCrH000004tXhM.0
REMARK                            x       y       z     vdW  Elec       q    Type
REMARK                         _______ _______ _______ _____ _____    ______ ____
ROOT
ATOM      1  C   LIG    1       -3.626   2.095   0.031  0.00  0.00    +0.000 C 
ENDROOT
BRANCH   1   2
ATOM      2  C   LIG    1       -2.449   1.117   0.020  0.00  0.00    +0.280 C 
BRANCH   2   5
ATOM      3  O   LIG    1        0.002  -0.004   0.002  0.00  0.00    -0.520 OA
ATOM      4  C   LIG    1       -0.014   1.209   0.009  0.00  0.00    +0.520 C 
ATOM      5  N   LIG    1       -1.191   1.867   0.018  0.00  0.00    -0.730 N 
ATOM      6  H   LIG    1       -1.204   2.837   0.023  0.00  0.00    +0.400 HD
BRANCH   4   7
ATOM      7  C   LIG    1        1.280   1.980   0.001  0.00  0.00    +0.110 C 
BRANCH   7   8
ATOM      8  C   LIG    1        2.439   1.016  -0.016  0.00  0.00    -0.060 A 
ATOM      9  C   LIG    1        3.092   0.740  -1.202  0.00  0.00    +0.030 A 
ATOM     10  C   LIG    1        4.155  -0.144  -1.217  0.00  0.00    +0.020 A 
ATOM     11  C   LIG    1        4.565  -0.752  -0.046  0.00  0.00    +0.020 A 
ATOM     12  C   LIG    1        3.912  -0.478   1.141  0.00  0.00    +0.020 A 
ATOM     13  C   LIG    1        2.853   0.412   1.158  0.00  0.00    -0.020 A 
ATOM     14 CL   LIG    1        2.038   0.764   2.650  0.00  0.00    -0.070 Cl
ENDBRANCH   7   8
ENDBRANCH   4   7
ENDBRANCH   2   5
ENDBRANCH   1   2
BRANCH   1  15
ATOM     15  C   LIG    1       -4.936   1.316   0.158  0.00  0.00    +0.090 C 
BRANCH  15  16
ATOM     16  C   LIG    1       -6.084   2.282   0.293  0.00  0.00    -0.040 A 
ATOM     17  C   LIG    1       -6.736   2.741  -0.837  0.00  0.00    +0.040 A 
ATOM     18  C   LIG    1       -7.790   3.629  -0.717  0.00  0.00    +0.040 A 
ATOM     19  C   LIG    1       -8.195   4.057   0.532  0.00  0.00    -0.060 A 
ATOM     20  C   LIG    1       -7.543   3.598   1.667  0.00  0.00    +0.100 A 
ATOM     21  C   LIG    1       -6.488   2.705   1.544  0.00  0.00    +0.010 A 
BRANCH  20  22
ATOM     22  O   LIG    1       -7.939   4.018   2.897  0.00  0.00    -0.310 OA
BRANCH  22  23
ATOM     23  C   LIG    1       -9.035   4.934   2.948  0.00  0.00    +0.600 C 
ATOM     24  F   LIG    1       -8.705   6.095   2.242  0.00  0.00    -0.170 F 
ATOM     25  F   LIG    1       -9.309   5.259   4.280  0.00  0.00    -0.130 F 
ATOM     26  F   LIG    1      -10.164   4.342   2.371  0.00  0.00    -0.170 F 
ENDBRANCH  22  23
ENDBRANCH  20  22
ENDBRANCH  15  16
ENDBRANCH   1  15
BRANCH   1  27
ATOM     27  C   LIG    1       -3.634   2.897  -1.272  0.00  0.00    +0.170 C 
BRANCH  27  28
ATOM     28  O   LIG    1       -4.660   3.890  -1.214  0.00  0.00    -0.560 OA
ATOM     29  H   LIG    1       -4.723   4.437  -2.009  0.00  0.00    +0.370 HD
ENDBRANCH  27  28
ENDBRANCH   1  27
TORSDOF 10
