REMARK  Name = ZINCqH00000007u7.0
REMARK                            x       y       z     vdW  Elec       q    Type
REMARK                         _______ _______ _______ _____ _____    ______ ____
ROOT
ATOM      1  N   LIG    1        1.098   2.124  -0.169  0.00  0.00    -0.530 N 
ATOM      2  C   LIG    1        0.159   1.175   0.014  0.00  0.00    +0.570 C 
ATOM      3  O   LIG    1        0.485   0.005   0.097  0.00  0.00    -0.480 OA
ENDROOT
BRANCH   2   4
ATOM      4  C   LIG    1       -1.259   1.551   0.109  0.00  0.00    +0.040 A 
ATOM      5  C   LIG    1       -1.979   1.807  -1.035  0.00  0.00    +0.070 A 
ATOM      6  C   LIG    1       -3.331   2.160  -0.947  0.00  0.00    +0.040 A 
ATOM      7  C   LIG    1       -3.928   2.261   0.273  0.00  0.00    +0.110 A 
ATOM      8  C   LIG    1       -3.184   2.003   1.441  0.00  0.00    +0.220 A 
ATOM      9  N   LIG    1       -3.507   2.028   2.727  0.00  0.00    -0.480 NA
ATOM     10  C   LIG    1       -2.438   1.705   3.453  0.00  0.00    +0.220 A 
ATOM     11  C   LIG    1       -1.402   1.467   2.613  0.00  0.00    +0.090 A 
ATOM     12  N   LIG    1       -1.862   1.653   1.344  0.00  0.00    -0.330 N 
ENDBRANCH   2   4
BRANCH   1  17
ATOM     13  C   LIG    1        4.177   0.100  -0.167  0.00  0.00    +0.040 A 
ATOM     14  C   LIG    1        5.146   1.105  -0.191  0.00  0.00    +0.020 A 
ATOM     15  C   LIG    1        4.764   2.431  -0.206  0.00  0.00    +0.050 A 
ATOM     16  C   LIG    1        3.425   2.770  -0.204  0.00  0.00    -0.010 A 
ATOM     17  C   LIG    1        2.452   1.777  -0.176  0.00  0.00    +0.150 A 
ATOM     18  C   LIG    1        2.825   0.442  -0.160  0.00  0.00    +0.040 A 
BRANCH  13  20
ATOM     19  C   LIG    1        4.893  -2.405  -0.139  0.00  0.00    +0.070 C 
ATOM     20  C   LIG    1        4.570  -1.277  -0.151  0.00  0.00    -0.160 C 
ENDBRANCH  13  20
ENDBRANCH   1  17
BRANCH   1  21
ATOM     21  C   LIG    1        0.699   3.521  -0.361  0.00  0.00    +0.420 C 
BRANCH  21  22
ATOM     22  C   LIG    1        0.572   4.196   0.980  0.00  0.00    -0.060 A 
ATOM     23  C   LIG    1        1.535   4.900   1.601  0.00  0.00    -0.020 A 
ATOM     24  C   LIG    1        0.988   5.354   2.823  0.00  0.00    -0.070 A 
ATOM     25  C   LIG    1       -0.275   4.893   2.880  0.00  0.00    +0.180 A 
ATOM     26  O   LIG    1       -0.521   4.193   1.760  0.00  0.00    -0.160 OA
ENDBRANCH  21  22
ENDBRANCH   1  21
TORSDOF 5
