REMARK  Name = ZINCvU0000000HWU.0
REMARK                            x       y       z     vdW  Elec       q    Type
REMARK                         _______ _______ _______ _____ _____    ______ ____
ROOT
ATOM      1  C   LIG    1       -2.839   7.899   0.071  0.00  0.00    +0.100 C 
ENDROOT
BRANCH   1   2
ATOM      2  C   LIG    1       -2.085   9.204   0.071  0.00  0.00    +0.540 C 
ATOM      3  N   LIG    1       -2.759  10.372   0.083  0.00  0.00    -0.710 N 
ATOM      4  H   LIG    1       -3.729  10.372   0.092  0.00  0.00    +0.400 HD
ATOM      5  O   LIG    1       -0.873   9.204   0.061  0.00  0.00    -0.520 OA
BRANCH   3   6
ATOM      6  C   LIG    1       -2.026  11.640   0.084  0.00  0.00    +0.240 C 
ATOM      7  C   LIG    1       -1.650  12.011   1.519  0.00  0.00    +0.020 C 
BRANCH   6   8
ATOM      8  C   LIG    1       -2.909  12.739  -0.512  0.00  0.00    -0.060 C 
ATOM      9  C   LIG    1       -3.285  12.368  -1.948  0.00  0.00    +0.020 C 
ATOM     10  C   LIG    1       -4.168  13.466  -2.544  0.00  0.00    -0.020 C 
ATOM     11  C   LIG    1       -5.438  13.611  -1.705  0.00  0.00    +0.010 C 
ATOM     12  C   LIG    1       -5.062  13.983  -0.269  0.00  0.00    -0.020 C 
ATOM     13  C   LIG    1       -4.297  15.307  -0.269  0.00  0.00    +0.010 C 
ATOM     14  C   LIG    1       -3.026  15.162  -1.108  0.00  0.00    -0.020 C 
ATOM     15  C   LIG    1       -3.402  14.791  -2.544  0.00  0.00    +0.010 C 
ATOM     16  C   LIG    1       -4.179  12.884   0.327  0.00  0.00    +0.020 C 
ATOM     17  C   LIG    1       -2.143  14.064  -0.512  0.00  0.00    +0.040 C 
ENDBRANCH   6   8
ENDBRANCH   3   6
ENDBRANCH   1   2
BRANCH   1  18
ATOM     18  S   LIG    1       -1.663   6.524   0.053  0.00  0.00    +0.090 S 
BRANCH  18  25
ATOM     19  C   LIG    1       -2.524  -0.471   0.025  0.00  0.00    +0.130 C 
ATOM     20  C   LIG    1       -2.505   1.036   0.033  0.00  0.00    -0.040 A 
ATOM     21  C   LIG    1       -3.661   1.736   0.047  0.00  0.00    +0.070 A 
ATOM     22  C   LIG    1       -3.642   3.151   0.054  0.00  0.00    +0.220 A 
ATOM     23  N   LIG    1       -4.605   4.054   0.068  0.00  0.00    -0.270 NA
ATOM     24  N   LIG    1       -4.096   5.234   0.069  0.00  0.00    -0.260 NA
ATOM     25  C   LIG    1       -2.783   5.164   0.056  0.00  0.00    +0.130 A 
ATOM     26  N   LIG    1       -2.450   3.841   0.046  0.00  0.00    -0.390 N 
ATOM     27  C   LIG    1       -1.241   3.168   0.031  0.00  0.00    +0.130 A 
ATOM     28  C   LIG    1       -0.039   3.862   0.023  0.00  0.00    +0.020 A 
ATOM     29  C   LIG    1        1.155   3.171   0.008  0.00  0.00    +0.060 A 
ATOM     30  C   LIG    1        1.169   1.784   0.001  0.00  0.00    +0.030 A 
ATOM     31  C   LIG    1       -0.013   1.076   0.008  0.00  0.00    +0.060 A 
ATOM     32  C   LIG    1       -1.230   1.762   0.017  0.00  0.00    -0.070 A 
ENDBRANCH  18  25
ENDBRANCH   1  18
TORSDOF 5
