REMARK  Name = ZINCrD00000rZOH9.0
REMARK                            x       y       z     vdW  Elec       q    Type
REMARK                         _______ _______ _______ _____ _____    ______ ____
ROOT
ATOM      1  C   LIG    1       -2.294   4.319   0.214  0.00  0.00    +0.080 A 
ATOM      2  C   LIG    1       -1.539   5.171  -0.540  0.00  0.00    -0.030 A 
ATOM      3  C   LIG    1       -1.326   6.487  -0.138  0.00  0.00    -0.050 A 
ATOM      4  C   LIG    1       -1.862   6.961   1.039  0.00  0.00    +0.200 A 
ATOM      5  C   LIG    1       -2.642   6.103   1.843  0.00  0.00    -0.060 A 
ATOM      6  C   LIG    1       -3.206   6.547   3.049  0.00  0.00    +0.010 A 
ATOM      7  C   LIG    1       -3.953   5.692   3.800  0.00  0.00    +0.010 A 
ATOM      8  C   LIG    1       -4.167   4.378   3.389  0.00  0.00    +0.000 A 
ATOM      9  C   LIG    1       -3.637   3.913   2.224  0.00  0.00    +0.040 A 
ATOM     10  C   LIG    1       -2.860   4.766   1.424  0.00  0.00    -0.020 A 
ENDROOT
BRANCH   4  11
ATOM     11  N   LIG    1       -1.635   8.281   1.434  0.00  0.00    -0.730 N 
ATOM     12  H   LIG    1       -2.014   8.611   2.264  0.00  0.00    +0.400 HD
BRANCH  11  13
ATOM     13  C   LIG    1       -0.824   9.168   0.595  0.00  0.00    +0.250 C 
ATOM     14  C   LIG    1       -1.704   9.785  -0.493  0.00  0.00    +0.030 C 
BRANCH  13  15
ATOM     15  C   LIG    1       -0.226  10.280   1.459  0.00  0.00    +0.130 C 
ATOM     16  O   LIG    1        0.462  11.216   0.623  0.00  0.00    -0.370 OA
ATOM     17  C   LIG    1        1.099  12.271   1.350  0.00  0.00    +0.200 C 
ATOM     18  C   LIG    1        2.091  11.666   2.348  0.00  0.00    +0.190 C 
ATOM     19  O   LIG    1        1.404  10.730   3.183  0.00  0.00    -0.370 OA
ATOM     20  C   LIG    1        0.766   9.675   2.457  0.00  0.00    +0.090 C 
ATOM     21  C   LIG    1        1.821   8.864   1.702  0.00  0.00    +0.030 C 
ATOM     22  C   LIG    1        0.019   8.762   3.431  0.00  0.00    +0.080 C 
ENDBRANCH  13  15
ENDBRANCH  11  13
ENDBRANCH   4  11
BRANCH   1  23
ATOM     23  O   LIG    1       -2.495   3.039  -0.200  0.00  0.00    -0.290 OA
BRANCH  23  24
ATOM     24  C   LIG    1       -1.891   2.655  -1.436  0.00  0.00    +0.290 C 
BRANCH  24  25
ATOM     25  C   LIG    1       -2.220   1.214  -1.730  0.00  0.00    +0.460 C 
ATOM     26  O   LIG    1       -2.901   0.581  -0.959  0.00  0.00    -0.480 OA
BRANCH  25  28
ATOM     27  C   LIG    1       -2.112  -0.758  -3.065  0.00  0.00    +0.290 C 
ATOM     28  O   LIG    1       -1.755   0.633  -2.847  0.00  0.00    -0.360 OA
ENDBRANCH  25  28
ENDBRANCH  24  25
ENDBRANCH  23  24
ENDBRANCH   1  23
TORSDOF 7
