REMARK  Name = ZINCrH000004uIAE.0
REMARK                            x       y       z     vdW  Elec       q    Type
REMARK                         _______ _______ _______ _____ _____    ______ ____
ROOT
ATOM      1  C   LIG    1       -3.795   5.859   0.068  0.00  0.00    +0.560 C 
ATOM      2  N   LIG    1       -3.862   7.206   0.076  0.00  0.00    -0.710 N 
ATOM      3  H   LIG    1       -3.047   7.732   0.072  0.00  0.00    +0.410 HD
ATOM      4  O   LIG    1       -4.816   5.201   0.074  0.00  0.00    -0.510 OA
ENDROOT
BRANCH   1   8
ATOM      5  O   LIG    1        0.950   5.978   0.025  0.00  0.00    -0.470 OA
ATOM      6  C   LIG    1       -0.075   5.317   0.030  0.00  0.00    +0.420 A 
ATOM      7  C   LIG    1       -1.351   5.941   0.046  0.00  0.00    -0.100 A 
ATOM      8  C   LIG    1       -2.476   5.183   0.053  0.00  0.00    +0.170 A 
ATOM      9  N   LIG    1       -2.435   3.819   0.045  0.00  0.00    -0.590 N 
ATOM     10  H   LIG    1       -3.267   3.321   0.050  0.00  0.00    +0.430 HD
ATOM     11  C   LIG    1       -1.243   3.133   0.030  0.00  0.00    +0.210 A 
ATOM     12  C   LIG    1       -1.218   1.741   0.017  0.00  0.00    -0.010 A 
ATOM     13  C   LIG    1       -0.013   1.076   0.008  0.00  0.00    +0.130 A 
ATOM     14  C   LIG    1        1.185   1.780   0.000  0.00  0.00    -0.130 A 
ATOM     15  C   LIG    1        1.185   3.157   0.007  0.00  0.00    +0.160 A 
ATOM     16 BR   LIG    1        2.827   0.841  -0.020  0.00  0.00    -0.040 Br
ATOM     17  C   LIG    1       -0.029   3.845   0.022  0.00  0.00    -0.200 A 
ENDBRANCH   1   8
BRANCH   2  18
ATOM     18  C   LIG    1       -5.165   7.874   0.092  0.00  0.00    +0.410 C 
BRANCH  18  19
ATOM     19  C   LIG    1       -4.964   9.368   0.098  0.00  0.00    +0.010 A 
ATOM     20  N   LIG    1       -4.870  10.100  -0.957  0.00  0.00    -0.440 NA
ATOM     21  C   LIG    1       -4.697  11.402  -0.776  0.00  0.00    +0.100 A 
ATOM     22  C   LIG    1       -4.634  11.773   0.520  0.00  0.00    -0.040 A 
ATOM     23  S   LIG    1       -4.820  10.325   1.506  0.00  0.00    +0.180 S 
BRANCH  21  24
ATOM     24  C   LIG    1       -4.578  12.363  -1.898  0.00  0.00    +0.020 A 
ATOM     25  C   LIG    1       -4.396  13.729  -1.657  0.00  0.00    -0.020 A 
ATOM     26  C   LIG    1       -4.284  14.588  -2.730  0.00  0.00    +0.260 A 
ATOM     27  N   LIG    1       -4.358  14.139  -3.968  0.00  0.00    -0.480 NA
ATOM     28  C   LIG    1       -4.534  12.859  -4.239  0.00  0.00    +0.260 A 
ATOM     29  C   LIG    1       -4.650  11.931  -3.226  0.00  0.00    +0.000 A 
ENDBRANCH  21  24
ENDBRANCH  18  19
ENDBRANCH   2  18
TORSDOF 4
