REMARK  Name = ZINCpe000000Z50F.0
REMARK                            x       y       z     vdW  Elec       q    Type
REMARK                         _______ _______ _______ _____ _____    ______ ____
ROOT
ATOM      1  C   LIG    1        0.052   0.986   0.030  0.00  0.00    +0.200 C 
ATOM      2  C   LIG    1        1.013   2.080   0.500  0.00  0.00    +0.260 C 
ATOM      3  O   LIG    1        1.428   1.782   1.839  0.00  0.00    -0.360 OA
ATOM      4  C   LIG    1        0.369   1.908   2.792  0.00  0.00    +0.290 C 
ATOM      5  C   LIG    1       -0.842   1.160   2.310  0.00  0.00    +0.490 C 
ATOM      6  O   LIG    1       -1.727   0.909   3.101  0.00  0.00    -0.530 OA
ATOM      7  N   LIG    1       -0.980   0.762   1.040  0.00  0.00    -0.580 N 
ENDROOT
BRANCH   1   9
ATOM      8  O   LIG    1       -1.629   2.049  -1.240  0.00  0.00    -0.520 OA
ATOM      9  C   LIG    1       -0.598   1.411  -1.261  0.00  0.00    +0.510 C 
ATOM     10  N   LIG    1       -0.033   1.083  -2.440  0.00  0.00    -0.720 N 
ATOM     11  H   LIG    1        0.792   0.573  -2.458  0.00  0.00    +0.410 HD
BRANCH  10  12
ATOM     12  C   LIG    1       -0.664   1.497  -3.696  0.00  0.00    +0.270 C 
BRANCH  12  13
ATOM     13  C   LIG    1        0.173   1.001  -4.876  0.00  0.00    +0.030 C 
BRANCH  13  14
ATOM     14  C   LIG    1       -0.487   1.433  -6.187  0.00  0.00    +0.330 C 
BRANCH  14  15
ATOM     15  N   LIG    1        0.315   0.958  -7.317  0.00  0.00    -0.380 N 
ATOM     16  C   LIG    1       -0.128   0.195  -8.339  0.00  0.00    +0.220 A 
ATOM     17  C   LIG    1        0.916  -0.023  -9.173  0.00  0.00    -0.120 A 
ATOM     18  C   LIG    1        2.036   0.621  -8.637  0.00  0.00    +0.230 A 
ATOM     19  N   LIG    1        1.677   1.209  -7.525  0.00  0.00    -0.300 NA
ENDBRANCH  14  15
ENDBRANCH  13  14
ENDBRANCH  12  13
ENDBRANCH  10  12
ENDBRANCH   1   9
BRANCH   7  20
ATOM     20  C   LIG    1       -2.212   0.075   0.646  0.00  0.00    +0.340 C 
BRANCH  20  21
ATOM     21  C   LIG    1       -2.040  -1.411   0.830  0.00  0.00    -0.110 A 
ATOM     22  C   LIG    1       -1.558  -2.185  -0.209  0.00  0.00    +0.000 A 
ATOM     23  C   LIG    1       -1.396  -3.547  -0.039  0.00  0.00    +0.000 A 
ATOM     24  C   LIG    1       -1.724  -4.137   1.167  0.00  0.00    +0.010 A 
ATOM     25  C   LIG    1       -2.212  -3.364   2.204  0.00  0.00    +0.000 A 
ATOM     26  C   LIG    1       -2.370  -2.001   2.036  0.00  0.00    +0.040 A 
ENDBRANCH  20  21
ENDBRANCH   7  20
TORSDOF 7
