REMARK  Name = ZINCrH000004ms66.1
REMARK                            x       y       z     vdW  Elec       q    Type
REMARK                         _______ _______ _______ _____ _____    ______ ____
ROOT
ATOM      1  C   LIG    1        2.154   1.488   1.241  0.00  0.00    -0.040 C 
ATOM      2  C   LIG    1        1.416   1.997  -0.001  0.00  0.00    +0.070 C 
ATOM      3  C   LIG    1       -0.018   1.464   0.010  0.00  0.00    +0.250 C 
ATOM      4  N   LIG    1        0.002  -0.004   0.002  0.00  0.00    -0.360 N 
ATOM      5  C   LIG    1        0.644  -0.500   1.225  0.00  0.00    +0.270 C 
ATOM      6  H   LIG    1        0.518  -0.328  -0.802  0.00  0.00    +0.420 HD
ATOM      7  C   LIG    1        2.104  -0.042   1.261  0.00  0.00    +0.080 C 
ENDROOT
BRANCH   1   8
ATOM      8  C   LIG    1        3.589   1.945   1.197  0.00  0.00    +0.410 C 
ATOM      9  O   LIG    1        4.429   1.256   0.658  0.00  0.00    -0.440 OA
BRANCH   8  13
ATOM     10  C   LIG    1        4.691   5.636   2.958  0.00  0.00    +0.170 A 
ATOM     11  C   LIG    1        5.656   4.848   2.340  0.00  0.00    -0.020 A 
ATOM     12  C   LIG    1        5.304   3.652   1.769  0.00  0.00    +0.120 A 
ATOM     13  C   LIG    1        3.971   3.225   1.808  0.00  0.00    -0.220 A 
ATOM     14  C   LIG    1        3.003   4.025   2.426  0.00  0.00    +0.100 A 
ATOM     15  C   LIG    1        3.366   5.217   3.000  0.00  0.00    -0.080 A 
BRANCH  10  17
ATOM     16  C   LIG    1        4.004   7.579   4.139  0.00  0.00    +0.250 C 
ATOM     17  O   LIG    1        5.044   6.819   3.521  0.00  0.00    -0.310 OA
ENDBRANCH  10  17
ENDBRANCH   8  13
ENDBRANCH   1   8
BRANCH   4  18
ATOM     18  C   LIG    1       -1.375  -0.511  -0.066  0.00  0.00    +0.130 C 
BRANCH  18  19
ATOM     19  C   LIG    1       -2.033  -0.009  -1.326  0.00  0.00    -0.100 A 
ATOM     20  C   LIG    1       -1.260   0.335  -2.419  0.00  0.00    -0.020 A 
ATOM     21  C   LIG    1       -1.864   0.795  -3.575  0.00  0.00    +0.010 A 
ATOM     22  C   LIG    1       -3.240   0.910  -3.638  0.00  0.00    +0.020 A 
ATOM     23  C   LIG    1       -4.013   0.564  -2.545  0.00  0.00    +0.020 A 
ATOM     24  C   LIG    1       -3.410   0.100  -1.391  0.00  0.00    -0.050 A 
ATOM     25  C   LIG    1       -4.252  -0.281  -0.201  0.00  0.00    +0.100 C 
ENDBRANCH  18  19
BRANCH  18  26
ATOM     26  C   LIG    1       -1.356  -2.018  -0.074  0.00  0.00    +0.500 C 
ATOM     27  O   LIG    1       -0.410  -2.613  -0.562  0.00  0.00    -0.660 OA
ATOM     28  O   LIG    1       -2.287  -2.641   0.406  0.00  0.00    -0.630 OA
ENDBRANCH  18  26
ENDBRANCH   4  18
TORSDOF 6
