REMARK  Name = ZINCpe000000XafX.0
REMARK                            x       y       z     vdW  Elec       q    Type
REMARK                         _______ _______ _______ _____ _____    ______ ____
ROOT
ATOM      1  N   LIG    1       -0.579   5.033   4.817  0.00  0.00    -0.520 NA
ATOM      2  C   LIG    1        0.298   6.028   4.186  0.00  0.00    +0.190 C 
ATOM      3  C   LIG    1        0.724   7.064   5.231  0.00  0.00    +0.280 C 
ATOM      4  N   LIG    1        1.312   6.356   6.378  0.00  0.00    -0.610 N 
ATOM      5  C   LIG    1        0.549   5.252   6.979  0.00  0.00    +0.300 C 
ATOM      6  C   LIG    1        2.518   6.709   6.865  0.00  0.00    +0.560 C 
ATOM      7  O   LIG    1        3.034   6.050   7.747  0.00  0.00    -0.520 OA
ATOM      8  C   LIG    1        0.129   4.287   5.865  0.00  0.00    +0.170 C 
ENDROOT
BRANCH   6   9
ATOM      9  C   LIG    1        3.212   7.897   6.328  0.00  0.00    -0.170 A 
ATOM     10  C   LIG    1        2.525   9.103   6.177  0.00  0.00    +0.080 A 
ATOM     11  C   LIG    1        3.179  10.208   5.675  0.00  0.00    +0.010 A 
ATOM     12  C   LIG    1        4.514  10.126   5.320  0.00  0.00    +0.070 A 
ATOM     13  C   LIG    1        5.204   8.937   5.466  0.00  0.00    -0.020 A 
ATOM     14  C   LIG    1        4.563   7.822   5.974  0.00  0.00    +0.150 A 
ATOM     15  F   LIG    1        5.239   6.661   6.122  0.00  0.00    -0.120 F 
ENDBRANCH   6   9
BRANCH   1  17
ATOM     16  C   LIG    1       -0.030   3.593   2.914  0.00  0.00    +0.030 C 
ATOM     17  C   LIG    1       -1.148   4.122   3.815  0.00  0.00    +0.180 C 
BRANCH  17  18
ATOM     18  C   LIG    1       -2.159   4.863   2.978  0.00  0.00    +0.530 C 
ATOM     19  N   LIG    1       -3.123   4.182   2.327  0.00  0.00    -0.620 N 
ATOM     20  C   LIG    1       -3.145   2.711   2.330  0.00  0.00    +0.250 C 
ATOM     21  C   LIG    1       -3.282   2.226   0.882  0.00  0.00    +0.220 C 
ATOM     22  O   LIG    1       -4.398   2.877   0.271  0.00  0.00    -0.380 OA
ATOM     23  C   LIG    1       -4.269   4.298   0.179  0.00  0.00    +0.220 C 
ATOM     24  C   LIG    1       -4.184   4.889   1.591  0.00  0.00    +0.260 C 
ATOM     25  O   LIG    1       -2.105   6.071   2.891  0.00  0.00    -0.520 OA
ENDBRANCH  17  18
ENDBRANCH   1  17
TORSDOF 3
