REMARK  Name = ZINCvU0000000CMr.0
REMARK                            x       y       z     vdW  Elec       q    Type
REMARK                         _______ _______ _______ _____ _____    ______ ____
ROOT
ATOM      1  N   LIG    1        1.314  -0.394   0.038  0.00  0.00    -0.410 N 
ATOM      2  C   LIG    1        0.002  -0.007   0.043  0.00  0.00    +0.150 A 
ATOM      3  N   LIG    1       -0.015   1.308   0.054  0.00  0.00    -0.290 NA
ATOM      4  N   LIG    1        1.185   1.766   0.056  0.00  0.00    -0.260 NA
ATOM      5  C   LIG    1        2.045   0.774   0.046  0.00  0.00    +0.240 A 
ENDROOT
BRANCH   1  12
ATOM      6  C   LIG    1        1.794  -1.672   2.536  0.00  0.00    +0.100 C 
ATOM      7  C   LIG    1        2.059  -2.365   1.224  0.00  0.00    -0.060 A 
ATOM      8  C   LIG    1        2.548  -3.656   1.211  0.00  0.00    +0.030 A 
ATOM      9  C   LIG    1        2.790  -4.293   0.007  0.00  0.00    +0.050 A 
ATOM     10  C   LIG    1        2.545  -3.638  -1.186  0.00  0.00    +0.030 A 
ATOM     11  C   LIG    1        2.050  -2.348  -1.179  0.00  0.00    +0.040 A 
ATOM     12  C   LIG    1        1.811  -1.705   0.028  0.00  0.00    +0.080 A 
ENDBRANCH   1  12
BRANCH   5  13
ATOM     13  C   LIG    1        3.519   0.888   0.044  0.00  0.00    -0.080 A 
ATOM     14  C   LIG    1        4.138   2.106  -0.259  0.00  0.00    +0.120 A 
ATOM     15  C   LIG    1        5.521   2.160  -0.246  0.00  0.00    -0.020 A 
ATOM     16  C   LIG    1        6.240   1.020   0.062  0.00  0.00    +0.270 A 
ATOM     17  N   LIG    1        5.630  -0.115   0.344  0.00  0.00    -0.480 NA
ATOM     18  C   LIG    1        4.317  -0.216   0.351  0.00  0.00    +0.280 A 
ENDBRANCH   5  13
BRANCH   2  19
ATOM     19  S   LIG    1       -1.402  -1.071   0.038  0.00  0.00    +0.100 S 
BRANCH  19  20
ATOM     20  C   LIG    1       -2.729   0.160   0.049  0.00  0.00    +0.120 C 
BRANCH  20  21
ATOM     21  C   LIG    1       -4.064  -0.540   0.046  0.00  0.00    +0.540 C 
ATOM     22  N   LIG    1       -5.203   0.181   0.053  0.00  0.00    -0.660 N 
ATOM     23  H   LIG    1       -5.165   1.147   0.126  0.00  0.00    +0.420 HD
ATOM     24  O   LIG    1       -4.113  -1.752   0.037  0.00  0.00    -0.500 OA
BRANCH  22  25
ATOM     25  C   LIG    1       -6.441  -0.466  -0.044  0.00  0.00    +0.130 A 
ATOM     26  C   LIG    1       -6.624  -1.710   0.542  0.00  0.00    +0.070 A 
ATOM     27  C   LIG    1       -7.848  -2.344   0.450  0.00  0.00    +0.070 A 
ATOM     28  C   LIG    1       -8.889  -1.745  -0.236  0.00  0.00    -0.080 A 
ATOM     29  C   LIG    1       -8.710  -0.507  -0.827  0.00  0.00    +0.040 A 
ATOM     30 BR   LIG    1      -10.561  -2.620  -0.365  0.00  0.00    -0.030 Br
ATOM     31  C   LIG    1       -7.489   0.135  -0.733  0.00  0.00    +0.080 A 
ATOM     32  F   LIG    1       -7.314   1.344  -1.310  0.00  0.00    -0.130 F 
ENDBRANCH  22  25
ENDBRANCH  20  21
ENDBRANCH  19  20
ENDBRANCH   2  19
TORSDOF 6
