REMARK  Name = ZINCvU00000007M9.0
REMARK                            x       y       z     vdW  Elec       q    Type
REMARK                         _______ _______ _______ _____ _____    ______ ____
ROOT
ATOM      1  C   LIG    1       -0.197   5.778   0.228  0.00  0.00    +0.290 C 
ATOM      2  C   LIG    1       -0.393   6.431   1.619  0.00  0.00    +0.020 C 
ATOM      3  C   LIG    1       -0.100   7.871   1.553  0.00  0.00    +0.000 C 
ATOM      4  C   LIG    1       -1.027   8.659   0.632  0.00  0.00    +0.000 C 
ATOM      5  C   LIG    1       -0.509   8.584  -0.782  0.00  0.00    +0.020 C 
ATOM      6  C   LIG    1       -1.151   7.395  -1.519  0.00  0.00    +0.250 C 
ATOM      7  N   LIG    1       -1.258   6.200  -0.659  0.00  0.00    -0.600 N 
ATOM      8  C   LIG    1       -2.392   5.472  -0.702  0.00  0.00    +0.500 C 
ATOM      9  O   LIG    1       -2.478   4.445  -0.063  0.00  0.00    -0.480 OA
ENDROOT
BRANCH   1  13
ATOM     10  C   LIG    1       -0.284   1.524   0.627  0.00  0.00    +0.120 A 
ATOM     11  C   LIG    1       -0.529   2.331   1.729  0.00  0.00    -0.070 A 
ATOM     12  C   LIG    1       -0.495   3.706   1.599  0.00  0.00    +0.070 A 
ATOM     13  C   LIG    1       -0.228   4.278   0.369  0.00  0.00    -0.080 A 
ATOM     14  C   LIG    1        0.011   3.477  -0.732  0.00  0.00    +0.030 A 
ATOM     15  C   LIG    1       -0.016   2.101  -0.606  0.00  0.00    -0.030 A 
BRANCH  10  17
ATOM     16  C   LIG    1       -0.479  -0.353   2.073  0.00  0.00    +0.230 C 
ATOM     17  O   LIG    1       -0.312   0.172   0.754  0.00  0.00    -0.320 OA
ENDBRANCH  10  17
ENDBRANCH   1  13
BRANCH   8  18
ATOM     18  C   LIG    1       -3.552   5.934  -1.545  0.00  0.00    +0.040 C 
BRANCH  18  19
ATOM     19  C   LIG    1       -4.734   4.982  -1.352  0.00  0.00    +0.320 C 
ATOM     20  C   LIG    1       -5.946   5.532  -2.062  0.00  0.00    -0.100 A 
ATOM     21  C   LIG    1       -6.790   6.417  -1.430  0.00  0.00    +0.020 A 
ATOM     22  C   LIG    1       -7.890   6.924  -2.101  0.00  0.00    +0.000 A 
ATOM     23  C   LIG    1       -8.147   6.547  -3.407  0.00  0.00    +0.010 A 
ATOM     24  C   LIG    1       -7.309   5.652  -4.054  0.00  0.00    +0.020 A 
ATOM     25  C   LIG    1       -6.205   5.134  -3.379  0.00  0.00    -0.030 A 
ATOM     26  C   LIG    1       -5.305   4.166  -4.035  0.00  0.00    -0.040 C 
ATOM     27  C   LIG    1       -4.430   3.479  -3.291  0.00  0.00    +0.240 C 
ATOM     28  N   LIG    1       -4.403   3.668  -1.914  0.00  0.00    -0.560 N 
ATOM     29  C   LIG    1       -4.073   2.647  -1.098  0.00  0.00    +0.520 C 
ATOM     30  O   LIG    1       -4.149   2.784   0.104  0.00  0.00    -0.480 OA
ATOM     31  C   LIG    1       -3.609   1.337  -1.680  0.00  0.00    +0.090 C 
ENDBRANCH  18  19
ENDBRANCH   8  18
TORSDOF 4
