REMARK  Name = ZINCnE000004RdNw.0
REMARK                            x       y       z     vdW  Elec       q    Type
REMARK                         _______ _______ _______ _____ _____    ______ ____
ROOT
ATOM      1  CA  LIG    1        3.711  -0.707  -0.038  0.00  0.00    +0.210 C 
ENDROOT
BRANCH   1   5
ATOM      2  C   LIG    1        1.155   3.595   0.010  0.00  0.00    +0.100 C 
ATOM      3  C   LIG    1        1.174   2.088   0.002  0.00  0.00    -0.120 A 
ATOM      4  C   LIG    1        2.379   1.412  -0.013  0.00  0.00    +0.050 A 
ATOM      5  C   LIG    1        2.396   0.029  -0.021  0.00  0.00    -0.060 A 
ATOM      6  C   LIG    1        1.209  -0.678  -0.013  0.00  0.00    +0.030 A 
ATOM      7  C   LIG    1        0.002  -0.004   0.002  0.00  0.00    -0.020 A 
ATOM      8  C   LIG    1       -0.017   1.380   0.010  0.00  0.00    +0.080 A 
ATOM      9  F   LIG    1       -1.195   2.040   0.019  0.00  0.00    -0.140 F 
ENDBRANCH   1   5
BRANCH   1  10
ATOM     10  N   LIG    1        3.629  -1.873   0.845  0.00  0.00    -0.690 N 
ATOM     11  H   LIG    1        2.768  -2.277   1.037  0.00  0.00    +0.390 HD
ATOM     12  C   LIG    1        4.749  -2.385   1.391  0.00  0.00    +0.560 C 
ATOM     13  O   LIG    1        5.829  -1.880   1.151  0.00  0.00    -0.520 OA
BRANCH  12  14
ATOM     14  C   LIG    1        4.667  -3.561   2.281  0.00  0.00    -0.150 A 
ATOM     15  C   LIG    1        3.428  -4.141   2.563  0.00  0.00    +0.100 A 
ATOM     16  C   LIG    1        3.357  -5.241   3.390  0.00  0.00    +0.020 A 
ATOM     17  C   LIG    1        4.510  -5.766   3.952  0.00  0.00    +0.010 A 
ATOM     18  C   LIG    1        5.742  -5.195   3.682  0.00  0.00    -0.010 A 
ATOM     19 CL   LIG    1        4.410  -7.148   4.998  0.00  0.00    -0.060 Cl
ATOM     20  C   LIG    1        5.828  -4.095   2.850  0.00  0.00    +0.170 A 
ATOM     21  F   LIG    1        7.030  -3.537   2.587  0.00  0.00    -0.110 F 
ENDBRANCH  12  14
ENDBRANCH   1  10
BRANCH   1  22
ATOM     22  C   LIG    1        4.015  -1.161  -1.442  0.00  0.00    +0.500 C 
ATOM     23  OXT LIG    1        3.971  -2.346  -1.723  0.00  0.00    -0.680 OA
ATOM     24  O   LIG    1        4.305  -0.342  -2.298  0.00  0.00    -0.680 OA
ENDBRANCH   1  22
TORSDOF 4
