REMARK  Name = ZINCqH0000007f2K.0
REMARK                            x       y       z     vdW  Elec       q    Type
REMARK                         _______ _______ _______ _____ _____    ______ ____
ROOT
ATOM      1  N   LIG    1       -5.312   2.735  -0.273  0.00  0.00    -0.530 NA
ATOM      2  C   LIG    1       -4.940   3.562  -1.429  0.00  0.00    +0.180 C 
ATOM      3  C   LIG    1       -4.492   2.653  -2.579  0.00  0.00    +0.300 C 
ATOM      4  N   LIG    1       -5.553   1.667  -2.835  0.00  0.00    -0.610 N 
ATOM      5  C   LIG    1       -6.075   0.895  -1.697  0.00  0.00    +0.280 C 
ATOM      6  C   LIG    1       -6.033   1.476  -4.080  0.00  0.00    +0.570 C 
ATOM      7  O   LIG    1       -5.663   2.191  -4.991  0.00  0.00    -0.530 OA
ATOM      8  C   LIG    1       -6.461   1.873  -0.582  0.00  0.00    +0.170 C 
ENDROOT
BRANCH   6   9
ATOM      9  C   LIG    1       -7.009   0.399  -4.336  0.00  0.00    -0.160 A 
ATOM     10  C   LIG    1       -6.786  -0.885  -3.833  0.00  0.00    +0.100 A 
ATOM     11  C   LIG    1       -7.705  -1.885  -4.072  0.00  0.00    -0.110 A 
ATOM     12  C   LIG    1       -8.843  -1.626  -4.819  0.00  0.00    +0.090 A 
ATOM     13  C   LIG    1       -9.071  -0.362  -5.327  0.00  0.00    +0.010 A 
ATOM     14 BR   LIG    1       -7.406  -3.621  -3.384  0.00  0.00    -0.030 Br
ATOM     15  C   LIG    1       -8.161   0.657  -5.092  0.00  0.00    +0.180 A 
BRANCH  15  16
ATOM     16  O   LIG    1       -8.385   1.899  -5.590  0.00  0.00    -0.490 OA
ATOM     17  H   LIG    1       -8.015   2.041  -6.472  0.00  0.00    +0.410 HD
ENDBRANCH  15  16
ENDBRANCH   6   9
BRANCH   1  18
ATOM     18  C   LIG    1       -5.583   3.570   0.906  0.00  0.00    +0.240 C 
BRANCH  18  25
ATOM     19  C   LIG    1       -3.878   5.395   0.681  0.00  0.00    +0.140 A 
ATOM     20  C   LIG    1       -2.705   6.020   1.078  0.00  0.00    -0.050 A 
ATOM     21  C   LIG    1       -1.974   5.508   2.132  0.00  0.00    +0.070 A 
ATOM     22  C   LIG    1       -2.411   4.372   2.792  0.00  0.00    -0.070 A 
ATOM     23  C   LIG    1       -3.581   3.748   2.397  0.00  0.00    +0.090 A 
ATOM     24 CL   LIG    1       -1.490   3.731   4.116  0.00  0.00    -0.070 Cl
ATOM     25  C   LIG    1       -4.312   4.254   1.339  0.00  0.00    -0.100 A 
BRANCH  19  27
ATOM     26  C   LIG    1       -4.089   7.071  -0.993  0.00  0.00    +0.240 C 
ATOM     27  O   LIG    1       -4.599   5.897  -0.357  0.00  0.00    -0.310 OA
ENDBRANCH  19  27
ENDBRANCH  18  25
ENDBRANCH   1  18
TORSDOF 5
