REMARK  Name = ZINCpe00000gMPtP.0
REMARK                            x       y       z     vdW  Elec       q    Type
REMARK                         _______ _______ _______ _____ _____    ______ ____
ROOT
ATOM      1  O   LIG    1       -0.018   1.448   0.010  0.00  0.00    -0.330 OA
ENDROOT
BRANCH   1   2
ATOM      2  C   LIG    1        1.170   2.073   0.002  0.00  0.00    +0.470 C 
ATOM      3  O   LIG    1        2.192   1.429  -0.011  0.00  0.00    -0.480 OA
BRANCH   2   4
ATOM      4  C   LIG    1        1.228   3.579   0.010  0.00  0.00    +0.290 C 
BRANCH   4   5
ATOM      5  O   LIG    1        2.593   4.003  -0.001  0.00  0.00    -0.300 OA
BRANCH   5  11
ATOM      6  C   LIG    1        0.837   8.557   0.042  0.00  0.00    +0.090 C 
ATOM      7  C   LIG    1        1.994   7.591   0.024  0.00  0.00    -0.040 A 
ATOM      8  C   LIG    1        3.292   8.069   0.014  0.00  0.00    -0.030 A 
ATOM      9  C   LIG    1        4.356   7.186  -0.001  0.00  0.00    -0.040 A 
ATOM     10  C   LIG    1        4.124   5.824  -0.006  0.00  0.00    -0.020 A 
ATOM     11  C   LIG    1        2.823   5.342   0.004  0.00  0.00    +0.130 A 
ATOM     12  C   LIG    1        5.769   7.709  -0.011  0.00  0.00    +0.100 C 
ATOM     13  C   LIG    1        1.758   6.231   0.013  0.00  0.00    -0.090 A 
ENDBRANCH   5  11
ENDBRANCH   4   5
ENDBRANCH   2   4
ENDBRANCH   1   2
BRANCH   1  14
ATOM     14  C   LIG    1        0.002  -0.004   0.002  0.00  0.00    +0.270 C 
BRANCH  14  15
ATOM     15  C   LIG    1       -1.412  -0.526   0.013  0.00  0.00    +0.520 C 
ATOM     16  N   LIG    1       -1.640  -1.854   0.008  0.00  0.00    -0.600 N 
ATOM     17  C   LIG    1       -0.514  -2.791  -0.008  0.00  0.00    +0.290 C 
ATOM     18  O   LIG    1       -2.344   0.250   0.026  0.00  0.00    -0.510 OA
BRANCH  16  19
ATOM     19  C   LIG    1       -3.014  -2.361   0.018  0.00  0.00    +0.280 C 
ATOM     20  C   LIG    1       -3.237  -3.227   1.271  0.00  0.00    +0.070 C 
ATOM     21  C   LIG    1       -4.570  -3.987   1.053  0.00  0.00    -0.300 C 
ATOM     22  S   LIG    1       -4.450  -4.509  -0.700  0.00  0.00    +2.400 S 
ATOM     23  O   LIG    1       -5.697  -4.286  -1.344  0.00  0.00    -0.930 OA
ATOM     24  O   LIG    1       -3.833  -5.787  -0.770  0.00  0.00    -0.930 OA
ATOM     25  C   LIG    1       -3.256  -3.230  -1.232  0.00  0.00    -0.330 C 
ENDBRANCH  16  19
ENDBRANCH  14  15
ENDBRANCH   1  14
TORSDOF 7
