REMARK  Name = ZINCrH000004qVsp.0
REMARK                            x       y       z     vdW  Elec       q    Type
REMARK                         _______ _______ _______ _____ _____    ______ ____
ROOT
ATOM      1  S   LIG    1       -0.124   1.646   0.069  0.00  0.00    +2.690 S 
ATOM      2  O   LIG    1       -0.564   1.740   1.417  0.00  0.00    -0.940 OA
ATOM      3  O   LIG    1       -0.811   2.254  -1.016  0.00  0.00    -0.950 OA
ENDROOT
BRANCH   1   9
ATOM      4  C   LIG    1        5.934   4.528  -3.672  0.00  0.00    +0.130 C 
ATOM      5  C   LIG    1        5.264   4.082  -2.398  0.00  0.00    -0.180 A 
ATOM      6  C   LIG    1        3.997   3.599  -2.434  0.00  0.00    +0.130 A 
ATOM      7  C   LIG    1        3.375   3.175  -1.178  0.00  0.00    -0.150 A 
ATOM      8  C   LIG    1        2.071   2.670  -1.152  0.00  0.00    +0.200 A 
ATOM      9  C   LIG    1        1.519   2.282   0.036  0.00  0.00    -0.710 A 
ATOM     10  C   LIG    1        2.238   2.390   1.218  0.00  0.00    +0.180 A 
ATOM     11  C   LIG    1        3.527   2.879   1.215  0.00  0.00    -0.030 A 
ATOM     12  C   LIG    1        4.110   3.280   0.018  0.00  0.00    +0.230 A 
ATOM     13  N   LIG    1        5.395   3.779  -0.014  0.00  0.00    -0.630 N 
ATOM     14  H   LIG    1        5.900   3.851   0.811  0.00  0.00    +0.420 HD
ATOM     15  C   LIG    1        5.958   4.167  -1.172  0.00  0.00    +0.540 A 
ATOM     16  O   LIG    1        7.096   4.604  -1.162  0.00  0.00    -0.520 OA
ENDBRANCH   1   9
BRANCH   1  17
ATOM     17  N   LIG    1       -0.032   0.031  -0.281  0.00  0.00    -1.060 N 
ATOM     18  H   LIG    1       -0.448  -0.316  -1.086  0.00  0.00    +0.430 HD
BRANCH  17  19
ATOM     19  C   LIG    1        0.646  -0.832   0.580  0.00  0.00    +0.140 A 
ATOM     20  C   LIG    1        1.901  -1.317   0.231  0.00  0.00    +0.030 A 
ATOM     21  C   LIG    1        2.575  -2.166   1.082  0.00  0.00    +0.070 A 
ATOM     22  C   LIG    1        1.991  -2.547   2.292  0.00  0.00    -0.020 A 
ATOM     23  C   LIG    1        0.728  -2.063   2.637  0.00  0.00    +0.040 A 
ATOM     24  C   LIG    1        0.062  -1.210   1.784  0.00  0.00    +0.050 A 
BRANCH  22  25
ATOM     25  C   LIG    1        2.709  -3.462   3.204  0.00  0.00    +0.110 A 
ATOM     26  N   LIG    1        3.887  -3.974   2.989  0.00  0.00    -0.460 NA
ATOM     27  C   LIG    1        4.370  -4.770   3.916  0.00  0.00    +0.220 A 
ATOM     28  C   LIG    1        3.589  -4.963   4.983  0.00  0.00    -0.060 A 
ATOM     29  S   LIG    1        2.112  -4.027   4.763  0.00  0.00    +0.100 S 
ENDBRANCH  22  25
ENDBRANCH  17  19
ENDBRANCH   1  17
TORSDOF 4
