REMARK  Name = ZINCpk00000y6uX9.0
REMARK                            x       y       z     vdW  Elec       q    Type
REMARK                         _______ _______ _______ _____ _____    ______ ____
ROOT
ATOM      1  N   LIG    1       -1.323   3.724  -1.347  0.00  0.00    -0.740 N 
ATOM      2  H   LIG    1       -1.383   3.097  -2.085  0.00  0.00    +0.400 HD
ATOM      3  C   LIG    1       -1.364   5.050  -1.585  0.00  0.00    +0.730 C 
ATOM      4  N   LIG    1       -1.487   5.505  -2.848  0.00  0.00    -0.640 N 
ATOM      5  C   LIG    1       -1.591   4.709  -4.093  0.00  0.00    +0.270 C 
ATOM      6  C   LIG    1       -0.802   5.516  -5.160  0.00  0.00    -0.010 C 
ATOM      7  C   LIG    1       -1.564   5.417  -6.467  0.00  0.00    +0.220 C 
ATOM      8  O   LIG    1       -1.458   6.582  -7.267  0.00  0.00    -0.370 OA
ATOM      9  C   LIG    1       -1.956   7.745  -6.592  0.00  0.00    +0.220 C 
ATOM     10  C   LIG    1       -0.968   8.081  -5.477  0.00  0.00    +0.030 C 
ATOM     11  C   LIG    1       -0.690   6.913  -4.581  0.00  0.00    -0.080 C 
ATOM     12  C   LIG    1       -1.555   6.917  -3.304  0.00  0.00    +0.320 C 
ATOM     13  O   LIG    1       -1.290   5.836  -0.661  0.00  0.00    -0.580 OA
ENDROOT
BRANCH  11  14
ATOM     14  C   LIG    1        0.738   7.070  -4.124  0.00  0.00    +0.520 C 
ATOM     15  N   LIG    1        1.141   8.225  -3.559  0.00  0.00    -0.730 N 
ATOM     16  H   LIG    1        0.512   8.956  -3.447  0.00  0.00    +0.400 HD
ATOM     17  C   LIG    1        2.528   8.378  -3.115  0.00  0.00    +0.290 C 
ATOM     18  O   LIG    1        1.523   6.157  -4.264  0.00  0.00    -0.530 OA
ENDBRANCH  11  14
BRANCH   1  19
ATOM     19  C   LIG    1       -1.190   3.230   0.025  0.00  0.00    +0.330 C 
BRANCH  19  21
ATOM     20  C   LIG    1       -0.013   1.076   0.008  0.00  0.00    +0.090 C 
ATOM     21  C   LIG    1       -1.169   1.723   0.017  0.00  0.00    -0.120 C 
BRANCH  21  22
ATOM     22  C   LIG    1       -2.439   0.967   0.019  0.00  0.00    -0.050 A 
ATOM     23  C   LIG    1       -3.310   1.057  -1.068  0.00  0.00    +0.010 A 
ATOM     24  C   LIG    1       -4.491   0.343  -1.063  0.00  0.00    +0.000 A 
ATOM     25  C   LIG    1       -4.818  -0.451   0.022  0.00  0.00    +0.000 A 
ATOM     26  C   LIG    1       -3.962  -0.539   1.105  0.00  0.00    +0.000 A 
ATOM     27  C   LIG    1       -2.775   0.164   1.110  0.00  0.00    +0.010 A 
ENDBRANCH  21  22
ENDBRANCH  19  21
ENDBRANCH   1  19
TORSDOF 4
