REMARK  Name = ZINCvU00000009Re.0
REMARK                            x       y       z     vdW  Elec       q    Type
REMARK                         _______ _______ _______ _____ _____    ______ ____
ROOT
ATOM      1  C   LIG    1       -3.300   2.115  -1.418  0.00  0.00    +0.590 C 
ATOM      2  N   LIG    1       -2.279   1.429  -0.867  0.00  0.00    -0.720 N 
ATOM      3  H   LIG    1       -2.170   0.484  -1.058  0.00  0.00    +0.400 HD
ATOM      4  O   LIG    1       -3.437   3.299  -1.179  0.00  0.00    -0.510 OA
ENDROOT
BRANCH   1   6
ATOM      5  C   LIG    1       -5.295   2.017  -2.899  0.00  0.00    +0.000 A 
ATOM      6  C   LIG    1       -4.249   1.431  -2.308  0.00  0.00    -0.210 A 
ATOM      7  S   LIG    1       -4.168  -0.270  -2.735  0.00  0.00    +0.140 S 
ATOM      8  C   LIG    1       -5.603  -0.135  -3.746  0.00  0.00    -0.100 A 
ATOM      9  C   LIG    1       -6.270  -1.099  -4.509  0.00  0.00    +0.040 A 
ATOM     10  C   LIG    1       -7.390  -0.761  -5.231  0.00  0.00    +0.090 A 
ATOM     11  C   LIG    1       -7.869   0.543  -5.208  0.00  0.00    -0.010 A 
ATOM     12  C   LIG    1       -7.232   1.506  -4.467  0.00  0.00    +0.150 A 
ATOM     13  F   LIG    1       -7.710   2.770  -4.455  0.00  0.00    -0.120 F 
ATOM     14  C   LIG    1       -6.076   1.183  -3.715  0.00  0.00    -0.110 A 
BRANCH   5  15
ATOM     15  C   LIG    1       -5.613   3.477  -2.705  0.00  0.00    +0.250 C 
BRANCH  15  17
ATOM     16  C   LIG    1       -5.178   5.653  -3.611  0.00  0.00    +0.220 C 
ATOM     17  O   LIG    1       -4.942   4.247  -3.705  0.00  0.00    -0.380 OA
ENDBRANCH  15  17
ENDBRANCH   5  15
ENDBRANCH   1   6
BRANCH   2  18
ATOM     18  C   LIG    1       -1.333   2.111   0.020  0.00  0.00    +0.290 C 
BRANCH  18  19
ATOM     19  C   LIG    1       -0.017   1.378   0.010  0.00  0.00    -0.080 A 
ATOM     20  C   LIG    1        0.002  -0.004   0.002  0.00  0.00    +0.020 A 
ATOM     21  C   LIG    1        1.207  -0.684  -0.014  0.00  0.00    +0.030 A 
ATOM     22  C   LIG    1        2.396   0.025  -0.022  0.00  0.00    +0.070 A 
ATOM     23  O   LIG    1        3.591  -0.633  -0.039  0.00  0.00    -0.320 OA
ATOM     24  C   LIG    1        4.380  -0.525   1.148  0.00  0.00    +0.230 C 
ATOM     25  C   LIG    1        5.208   0.750   1.131  0.00  0.00    -0.010 C 
ATOM     26  C   LIG    1        4.346   2.002   1.164  0.00  0.00    +0.230 C 
ATOM     27  O   LIG    1        3.554   2.104  -0.021  0.00  0.00    -0.320 OA
ATOM     28  C   LIG    1        2.377   1.413  -0.014  0.00  0.00    +0.070 A 
ATOM     29  C   LIG    1        1.170   2.091   0.002  0.00  0.00    +0.040 A 
ENDBRANCH  18  19
BRANCH  18  30
ATOM     30  C   LIG    1       -1.894   2.133   1.443  0.00  0.00    -0.020 C 
ATOM     31  C   LIG    1       -0.967   2.952   2.344  0.00  0.00    +0.030 C 
ATOM     32  C   LIG    1       -1.988   0.702   1.976  0.00  0.00    +0.010 C 
ENDBRANCH  18  30
ENDBRANCH   2  18
TORSDOF 6
