REMARK  Name = ZINCrg00000BiJk3.0
REMARK                            x       y       z     vdW  Elec       q    Type
REMARK                         _______ _______ _______ _____ _____    ______ ____
ROOT
ATOM      1  N   LIG    1       -0.011   0.966   0.007  0.00  0.00    -0.720 N 
ATOM      2  H   LIG    1        0.002  -0.004   0.002  0.00  0.00    +0.400 HD
ATOM      3  C   LIG    1       -1.187   1.624   0.017  0.00  0.00    +0.570 C 
ATOM      4  O   LIG    1       -1.204   2.839   0.023  0.00  0.00    -0.530 OA
ENDROOT
BRANCH   1  10
ATOM      5  C   LIG    1        4.894   1.290  -1.622  0.00  0.00    +0.230 C 
ATOM      6  C   LIG    1        5.437   2.590  -1.025  0.00  0.00    +0.030 C 
ATOM      7  C   LIG    1        3.995   2.165  -0.749  0.00  0.00    -0.130 C 
ATOM      8  C   LIG    1        3.658   1.659   0.657  0.00  0.00    +0.070 C 
ATOM      9  C   LIG    1        2.359   0.849   0.594  0.00  0.00    +0.020 C 
ATOM     10  C   LIG    1        1.248   1.716  -0.001  0.00  0.00    +0.240 C 
ATOM     11  C   LIG    1        1.602   2.099  -1.438  0.00  0.00    +0.010 C 
ATOM     12  C   LIG    1        2.876   2.949  -1.440  0.00  0.00    +0.070 C 
BRANCH   5  15
ATOM     13  O   LIG    1        5.629  -0.867  -3.063  0.00  0.00    -0.510 OA
ATOM     14  C   LIG    1        5.717  -0.992  -1.859  0.00  0.00    +0.510 C 
ATOM     15  N   LIG    1        5.374   0.029  -1.049  0.00  0.00    -0.700 N 
ATOM     16  H   LIG    1        5.444  -0.070  -0.087  0.00  0.00    +0.400 HD
BRANCH  14  17
ATOM     17  C   LIG    1        6.211  -2.288  -1.270  0.00  0.00    +0.220 C 
BRANCH  17  18
ATOM     18  O   LIG    1        6.508  -3.207  -2.323  0.00  0.00    -0.550 OA
ATOM     19  H   LIG    1        6.832  -4.065  -2.017  0.00  0.00    +0.390 HD
ENDBRANCH  17  18
ENDBRANCH  14  17
ENDBRANCH   5  15
ENDBRANCH   1  10
BRANCH   3  20
ATOM     20  C   LIG    1       -2.458   0.867   0.018  0.00  0.00    -0.190 A 
ATOM     21  C   LIG    1       -2.451  -0.529   0.005  0.00  0.00    +0.300 A 
ATOM     22  N   LIG    1       -3.579  -1.209   0.013  0.00  0.00    -0.480 NA
ATOM     23  C   LIG    1       -4.754  -0.613   0.021  0.00  0.00    +0.320 A 
ATOM     24  C   LIG    1       -4.852   0.777   0.029  0.00  0.00    -0.070 A 
ATOM     25  C   LIG    1       -3.684   1.539   0.028  0.00  0.00    +0.160 A 
BRANCH  24  26
ATOM     26  C   LIG    1       -6.181   1.438   0.040  0.00  0.00    +0.110 A 
ATOM     27  N   LIG    1       -6.401   2.736   0.048  0.00  0.00    -0.280 NA
ATOM     28  N   LIG    1       -7.786   2.943   0.056  0.00  0.00    -0.470 N 
ATOM     29  H   LIG    1       -8.233   3.804   0.063  0.00  0.00    +0.440 HD
ATOM     30  C   LIG    1       -8.392   1.736   0.053  0.00  0.00    +0.240 A 
ATOM     31  C   LIG    1       -7.430   0.787   0.037  0.00  0.00    -0.110 A 
ENDBRANCH  24  26
ENDBRANCH   3  20
TORSDOF 6
