REMARK  Name = ZINCb80000002l7S.0
REMARK                            x       y       z     vdW  Elec       q    Type
REMARK                         _______ _______ _______ _____ _____    ______ ____
ROOT
ATOM      1  C   LIG    1       -5.548  -2.108  -0.967  0.00  0.00    +0.150 C 
ATOM      2  C   LIG    1       -4.524  -1.139  -0.434  0.00  0.00    -0.240 A 
ATOM      3  C   LIG    1       -4.275  -0.915   0.861  0.00  0.00    +0.160 A 
ATOM      4  C   LIG    1       -3.281   0.021   1.109  0.00  0.00    +0.140 A 
ATOM      5  C   LIG    1       -2.733   0.560   0.018  0.00  0.00    -0.780 A 
ATOM      6  S   LIG    1       -3.473  -0.130  -1.420  0.00  0.00    +0.230 S 
ENDROOT
BRANCH   5   7
ATOM      7  S   LIG    1       -1.456   1.774   0.019  0.00  0.00    +2.730 S 
ATOM      8  O   LIG    1       -1.547   2.452  -1.227  0.00  0.00    -0.960 OA
ATOM      9  O   LIG    1       -1.535   2.438   1.272  0.00  0.00    -0.960 OA
BRANCH   7  10
ATOM     10  N   LIG    1       -0.011   0.966   0.007  0.00  0.00    -1.250 NA
ATOM     11  H   LIG    1        0.822   1.462   0.002  0.00  0.00    +0.420 HD
ATOM     12  H   LIG    1        0.002  -0.004   0.002  0.00  0.00    +0.420 HD
ENDBRANCH   7  10
ENDBRANCH   5   7
BRANCH   3  13
ATOM     13  N   LIG    1       -4.964  -1.581   1.892  0.00  0.00    -0.870 N 
ATOM     14  H   LIG    1       -4.753  -1.389   2.819  0.00  0.00    +0.400 HD
ATOM     15  H   LIG    1       -5.650  -2.232   1.675  0.00  0.00    +0.400 HD
ENDBRANCH   3  13
TORSDOF 3
