REMARK  Name = ZINCpe000000TvYo.0
REMARK                            x       y       z     vdW  Elec       q    Type
REMARK                         _______ _______ _______ _____ _____    ______ ____
ROOT
ATOM      1  S   LIG    1        0.743   4.571   0.786  0.00  0.00    +2.700 S 
ATOM      2  O   LIG    1       -0.630   4.656   1.144  0.00  0.00    -0.950 OA
ATOM      3  O   LIG    1        1.325   5.349  -0.251  0.00  0.00    -0.940 OA
ENDROOT
BRANCH   1   4
ATOM      4  C   LIG    1        1.047   2.885   0.374  0.00  0.00    -0.690 A 
ATOM      5  C   LIG    1        0.016   1.968   0.415  0.00  0.00    +0.170 A 
ATOM      6  C   LIG    1        0.256   0.639   0.090  0.00  0.00    +0.090 A 
ATOM      7  C   LIG    1        1.532   0.235  -0.277  0.00  0.00    +0.090 A 
ATOM      8  C   LIG    1        2.562   1.153  -0.317  0.00  0.00    -0.060 A 
ATOM      9  C   LIG    1        2.322   2.480   0.008  0.00  0.00    +0.210 A 
BRANCH   6  10
ATOM     10  N   LIG    1       -0.790  -0.292   0.132  0.00  0.00    -0.680 N 
ATOM     11  H   LIG    1       -0.614  -1.208   0.398  0.00  0.00    +0.410 HD
ATOM     12  C   LIG    1       -2.042   0.085  -0.198  0.00  0.00    +0.510 C 
ATOM     13  O   LIG    1       -2.246   1.201  -0.627  0.00  0.00    -0.520 OA
ATOM     14  C   LIG    1       -3.187  -0.881  -0.034  0.00  0.00    +0.110 C 
ENDBRANCH   6  10
BRANCH   9  15
ATOM     15  O   LIG    1        3.337   3.384  -0.031  0.00  0.00    -0.310 OA
ATOM     16  C   LIG    1        4.625   2.897  -0.417  0.00  0.00    +0.260 C 
ENDBRANCH   9  15
ENDBRANCH   1   4
BRANCH   1  17
ATOM     17  N   LIG    1        1.605   4.903   2.160  0.00  0.00    -0.980 NA
BRANCH  17  18
ATOM     18  C   LIG    1        2.979   5.402   2.060  0.00  0.00    +0.290 C 
ATOM     19  C   LIG    1        3.917   4.507   2.889  0.00  0.00    +0.060 C 
ATOM     20  C   LIG    1        5.263   5.267   3.011  0.00  0.00    -0.310 C 
ATOM     21  S   LIG    1        4.721   6.986   3.343  0.00  0.00    +2.390 S 
ATOM     22  O   LIG    1        5.501   7.884   2.565  0.00  0.00    -0.930 OA
ATOM     23  O   LIG    1        4.607   7.181   4.746  0.00  0.00    -0.930 OA
ATOM     24  C   LIG    1        3.051   6.838   2.617  0.00  0.00    -0.320 C 
ENDBRANCH  17  18
BRANCH  17  26
ATOM     25  C   LIG    1        1.275   3.271   3.951  0.00  0.00    +0.010 C 
ATOM     26  C   LIG    1        0.995   4.698   3.476  0.00  0.00    +0.290 C 
ENDBRANCH  17  26
ENDBRANCH   1  17
TORSDOF 6
