REMARK  Name = ZINCpe000027pHai.0
REMARK                            x       y       z     vdW  Elec       q    Type
REMARK                         _______ _______ _______ _____ _____    ______ ____
ROOT
ATOM      1  N   LIG    1        1.304  -2.570  -0.149  0.00  0.00    -0.530 NA
ATOM      2  C   LIG    1        0.592  -1.974  -1.288  0.00  0.00    +0.180 C 
ATOM      3  C   LIG    1        0.745  -0.451  -1.241  0.00  0.00    +0.190 C 
ATOM      4  N   LIG    1        0.211   0.053   0.032  0.00  0.00    -0.520 NA
ATOM      5  C   LIG    1        0.922  -0.543   1.171  0.00  0.00    +0.190 C 
ATOM      6  C   LIG    1        0.770  -2.066   1.124  0.00  0.00    +0.200 C 
ENDROOT
BRANCH   1   7
ATOM      7  C   LIG    1        1.245  -4.037  -0.201  0.00  0.00    +0.270 C 
ATOM      8  C   LIG    1        1.955  -4.619   1.023  0.00  0.00    +0.080 C 
BRANCH   7  13
ATOM      9  C   LIG    1        2.347  -6.444  -4.451  0.00  0.00    +0.210 C 
ATOM     10  C   LIG    1        2.402  -5.533  -3.252  0.00  0.00    +0.170 A 
ATOM     11  N   LIG    1        3.362  -4.709  -2.956  0.00  0.00    -0.390 NA
ATOM     12  O   LIG    1        3.104  -4.115  -1.930  0.00  0.00    +0.090 OA
ATOM     13  C   LIG    1        1.924  -4.523  -1.455  0.00  0.00    +0.190 A 
ATOM     14  N   LIG    1        1.467  -5.423  -2.292  0.00  0.00    -0.480 NA
ENDBRANCH   7  13
ENDBRANCH   1   7
BRANCH   4  15
ATOM     15  C   LIG    1        0.270   1.520   0.083  0.00  0.00    +0.220 C 
BRANCH  15  16
ATOM     16  C   LIG    1       -0.502   2.012   1.281  0.00  0.00    +0.520 C 
ATOM     17  N   LIG    1       -0.585   3.333   1.532  0.00  0.00    -0.720 N 
ATOM     18  H   LIG    1       -0.149   3.968   0.942  0.00  0.00    +0.410 HD
ATOM     19  O   LIG    1       -1.047   1.218   2.018  0.00  0.00    -0.500 OA
BRANCH  17  20
ATOM     20  C   LIG    1       -1.335   3.812   2.696  0.00  0.00    +0.320 C 
ATOM     21  C   LIG    1       -0.722   3.231   3.972  0.00  0.00    +0.080 C 
BRANCH  20  22
ATOM     22  C   LIG    1       -1.274   5.339   2.750  0.00  0.00    -0.050 C 
ATOM     23  C   LIG    1       -0.570   5.976   3.950  0.00  0.00    +0.050 C 
ATOM     24  C   LIG    1       -2.095   6.042   3.833  0.00  0.00    +0.030 C 
ENDBRANCH  20  22
BRANCH  20  25
ATOM     25  C   LIG    1       -2.739   3.381   2.587  0.00  0.00    +0.200 C 
ATOM     26  N   LIG    1       -3.821   3.048   2.502  0.00  0.00    -0.410 NA
ENDBRANCH  20  25
ENDBRANCH  17  20
ENDBRANCH  15  16
ENDBRANCH   4  15
TORSDOF 7
