REMARK  Name = ZINCrg000000nH8F.0
REMARK                            x       y       z     vdW  Elec       q    Type
REMARK                         _______ _______ _______ _____ _____    ______ ____
ROOT
ATOM      1  C   LIG    1        0.749   1.299   0.136  0.00  0.00    +0.260 C 
ENDROOT
BRANCH   1   4
ATOM      2  N   LIG    1        2.582   1.362   1.795  0.00  0.00    -0.720 N 
ATOM      3  H   LIG    1        2.033   0.814   2.377  0.00  0.00    +0.410 HD
ATOM      4  C   LIG    1        2.120   1.734   0.585  0.00  0.00    +0.500 C 
ATOM      5  O   LIG    1        2.807   2.419  -0.142  0.00  0.00    -0.510 OA
BRANCH   2   6
ATOM      6  C   LIG    1        3.915   1.785   2.232  0.00  0.00    +0.300 C 
BRANCH   6   9
ATOM      7  N   LIG    1        5.363   1.503   4.218  0.00  0.00    -0.730 N 
ATOM      8  H   LIG    1        6.031   2.043   3.768  0.00  0.00    +0.410 HD
ATOM      9  C   LIG    1        4.189   1.240   3.610  0.00  0.00    +0.510 C 
ATOM     10  O   LIG    1        3.353   0.565   4.172  0.00  0.00    -0.540 OA
BRANCH   7  11
ATOM     11  C   LIG    1        5.629   0.974   5.557  0.00  0.00    +0.260 C 
BRANCH  11  13
ATOM     12  C   LIG    1        7.299   0.862   7.412  0.00  0.00    +0.030 C 
ATOM     13  C   LIG    1        7.021   1.415   6.013  0.00  0.00    +0.000 C 
ENDBRANCH  11  13
ENDBRANCH   7  11
ENDBRANCH   6   9
ENDBRANCH   2   6
ENDBRANCH   1   4
BRANCH   1  14
ATOM     14  N   LIG    1        0.483   1.829  -1.204  0.00  0.00    -1.090 NA
ATOM     15  H   LIG    1        0.116   2.721  -1.309  0.00  0.00    +0.430 HD
BRANCH  14  16
ATOM     16  S   LIG    1        0.808   0.905  -2.539  0.00  0.00    +2.690 S 
ATOM     17  O   LIG    1        2.117   0.382  -2.356  0.00  0.00    -0.950 OA
ATOM     18  O   LIG    1        0.433   1.684  -3.667  0.00  0.00    -0.950 OA
BRANCH  16  19
ATOM     19  C   LIG    1       -0.288  -0.474  -2.499  0.00  0.00    -0.720 A 
ATOM     20  C   LIG    1        0.046  -1.601  -1.771  0.00  0.00    +0.160 A 
ATOM     21  C   LIG    1       -0.815  -2.681  -1.734  0.00  0.00    -0.090 A 
ATOM     22  C   LIG    1       -2.010  -2.639  -2.437  0.00  0.00    +0.190 A 
ATOM     23  C   LIG    1       -2.340  -1.509  -3.171  0.00  0.00    -0.030 A 
ATOM     24  C   LIG    1       -1.479  -0.429  -3.201  0.00  0.00    +0.170 A 
BRANCH  22  25
ATOM     25  O   LIG    1       -2.855  -3.702  -2.407  0.00  0.00    -0.310 OA
ATOM     26  C   LIG    1       -2.450  -4.831  -1.630  0.00  0.00    +0.250 C 
ENDBRANCH  22  25
ENDBRANCH  16  19
ENDBRANCH  14  16
ENDBRANCH   1  14
BRANCH   1  27
ATOM     27  C   LIG    1       -0.301   1.832   1.113  0.00  0.00    +0.050 C 
BRANCH  27  28
ATOM     28  C   LIG    1       -1.677   1.280   0.735  0.00  0.00    -0.020 C 
ATOM     29  C   LIG    1       -2.096   1.843  -0.625  0.00  0.00    +0.010 C 
ATOM     30  C   LIG    1       -2.700   1.691   1.795  0.00  0.00    +0.030 C 
ENDBRANCH  27  28
ENDBRANCH   1  27
TORSDOF 11
