REMARK  Name = ZINCpk000000oBSg.0
REMARK                            x       y       z     vdW  Elec       q    Type
REMARK                         _______ _______ _______ _____ _____    ______ ____
ROOT
ATOM      1  N   LIG    1       -8.279   1.635  -1.212  0.00  0.00    -1.010 NA
ATOM      2  C   LIG    1       -8.357   2.529  -0.047  0.00  0.00    +0.310 C 
ATOM      3  C   LIG    1       -7.237   3.568  -0.154  0.00  0.00    +0.180 C 
ATOM      4  N   LIG    1       -5.950   2.880  -0.324  0.00  0.00    -0.520 NA
ATOM      5  C   LIG    1       -5.917   2.113  -1.577  0.00  0.00    +0.180 C 
ATOM      6  C   LIG    1       -6.984   1.014  -1.527  0.00  0.00    +0.310 C 
ENDROOT
BRANCH   1   7
ATOM      7  S   LIG    1       -9.615   1.334  -2.144  0.00  0.00    +2.780 S 
ATOM      8  O   LIG    1      -10.742   1.700  -1.359  0.00  0.00    -0.970 OA
ATOM      9  O   LIG    1       -9.438   0.035  -2.692  0.00  0.00    -0.970 OA
BRANCH   7  10
ATOM     10  N   LIG    1       -9.570   2.389  -3.419  0.00  0.00    -1.010 NA
BRANCH  10  12
ATOM     11  C   LIG    1       -9.678   1.410  -5.657  0.00  0.00    +0.010 C 
ATOM     12  C   LIG    1       -8.778   2.068  -4.609  0.00  0.00    +0.280 C 
ENDBRANCH  10  12
BRANCH  10  13
ATOM     13  C   LIG    1      -10.323   3.645  -3.357  0.00  0.00    +0.280 C 
ATOM     14  C   LIG    1       -9.379   4.787  -2.976  0.00  0.00    +0.020 C 
ENDBRANCH  10  13
ENDBRANCH   7  10
ENDBRANCH   1   7
BRANCH   4  15
ATOM     15  C   LIG    1       -4.832   3.831  -0.259  0.00  0.00    +0.220 C 
BRANCH  15  16
ATOM     16  C   LIG    1       -3.531   3.073  -0.190  0.00  0.00    +0.510 C 
ATOM     17  N   LIG    1       -2.364   3.743  -0.124  0.00  0.00    -0.680 N 
ATOM     18  H   LIG    1       -2.363   4.711  -0.059  0.00  0.00    +0.410 HD
ATOM     19  O   LIG    1       -3.535   1.860  -0.194  0.00  0.00    -0.490 OA
BRANCH  17  20
ATOM     20  C   LIG    1       -1.153   3.043  -0.147  0.00  0.00    +0.160 A 
ATOM     21  C   LIG    1       -0.044   3.590  -0.779  0.00  0.00    -0.010 A 
ATOM     22  C   LIG    1        1.149   2.894  -0.805  0.00  0.00    +0.050 A 
ATOM     23  C   LIG    1        1.244   1.658  -0.193  0.00  0.00    +0.010 A 
ATOM     24  C   LIG    1        0.142   1.112   0.443  0.00  0.00    -0.020 A 
ATOM     25 CL   LIG    1        0.265  -0.441   1.210  0.00  0.00    -0.060 Cl
ATOM     26  C   LIG    1       -1.056   1.801   0.467  0.00  0.00    +0.040 A 
ENDBRANCH  17  20
ENDBRANCH  15  16
ENDBRANCH   4  15
TORSDOF 7
