REMARK  Name = ZINCrH000004joP7.0
REMARK                            x       y       z     vdW  Elec       q    Type
REMARK                         _______ _______ _______ _____ _____    ______ ____
ROOT
ATOM      1  C   LIG    1       -2.165   2.138   0.030  0.00  0.00    +0.300 C 
ATOM      2  C   LIG    1       -2.608   2.678   1.407  0.00  0.00    +0.060 C 
ATOM      3  C   LIG    1       -4.103   3.032   1.174  0.00  0.00    +0.050 C 
ATOM      4  C   LIG    1       -4.081   3.536  -0.291  0.00  0.00    +0.280 C 
ATOM      5  N   LIG    1       -3.099   2.672  -0.972  0.00  0.00    -0.590 N 
ATOM      6  C   LIG    1       -3.064   2.415  -2.294  0.00  0.00    +0.580 C 
ATOM      7  O   LIG    1       -3.886   2.920  -3.034  0.00  0.00    -0.520 OA
ENDROOT
BRANCH   1  16
ATOM      8  N   LIG    1        0.354   1.839  -0.153  0.00  0.00    -0.480 N 
ATOM      9  C   LIG    1        1.428   2.619  -0.532  0.00  0.00    +0.060 A 
ATOM     10  C   LIG    1        2.796   2.403  -0.621  0.00  0.00    +0.010 A 
ATOM     11  C   LIG    1        3.622   3.421  -1.048  0.00  0.00    +0.030 A 
ATOM     12  C   LIG    1        3.094   4.659  -1.388  0.00  0.00    +0.000 A 
ATOM     13  C   LIG    1        1.750   4.890  -1.306  0.00  0.00    +0.070 A 
ATOM     14  C   LIG    1        0.894   3.873  -0.876  0.00  0.00    +0.050 A 
ATOM     15  N   LIG    1       -0.449   3.794  -0.693  0.00  0.00    -0.460 NA
ATOM     16  C   LIG    1       -0.765   2.603  -0.276  0.00  0.00    +0.260 A 
BRANCH   8  18
ATOM     17  C   LIG    1        0.688   0.400   1.797  0.00  0.00    +0.050 C 
ATOM     18  C   LIG    1        0.408   0.444   0.293  0.00  0.00    +0.290 C 
ENDBRANCH   8  18
ENDBRANCH   1  16
BRANCH   6  19
ATOM     19  C   LIG    1       -2.026   1.518  -2.845  0.00  0.00    -0.090 A 
ATOM     20  C   LIG    1       -1.188   0.805  -1.987  0.00  0.00    +0.010 A 
ATOM     21  C   LIG    1       -0.225  -0.035  -2.507  0.00  0.00    +0.060 A 
ATOM     22  C   LIG    1       -0.081  -0.161  -3.878  0.00  0.00    -0.440 A 
ATOM     23  C   LIG    1       -0.904   0.548  -4.734  0.00  0.00    +0.100 A 
ATOM     24  C   LIG    1       -1.875   1.386  -4.227  0.00  0.00    +0.070 A 
BRANCH  22  25
ATOM     25  S   LIG    1        1.156  -1.230  -4.535  0.00  0.00    +1.330 S 
ATOM     26  O   LIG    1        1.373  -2.155  -3.478  0.00  0.00    -0.850 OA
ATOM     27  C   LIG    1        2.598  -0.140  -4.689  0.00  0.00    -0.190 C 
ENDBRANCH  22  25
ENDBRANCH   6  19
TORSDOF 4
