REMARK  Name = ZINCrH000004nhU7.0
REMARK                            x       y       z     vdW  Elec       q    Type
REMARK                         _______ _______ _______ _____ _____    ______ ____
ROOT
ATOM      1  C   LIG    1        4.375   8.715  -0.793  0.00  0.00    +0.570 C 
ATOM      2  N   LIG    1        3.426   8.237   0.036  0.00  0.00    -0.610 N 
ATOM      3  C   LIG    1        2.090   8.848   0.074  0.00  0.00    +0.290 C 
ATOM      4  C   LIG    1        1.779   9.256   1.520  0.00  0.00    +0.290 C 
ATOM      5  N   LIG    1        2.062   8.114   2.401  0.00  0.00    -0.610 N 
ATOM      6  C   LIG    1        3.399   7.506   2.366  0.00  0.00    +0.260 C 
ATOM      7  C   LIG    1        1.113   7.636   3.230  0.00  0.00    +0.560 C 
ATOM      8  O   LIG    1       -0.016   8.085   3.184  0.00  0.00    -0.500 OA
ATOM      9  C   LIG    1        3.708   7.095   0.917  0.00  0.00    +0.270 C 
ATOM     10  O   LIG    1        4.167   9.724  -1.437  0.00  0.00    -0.520 OA
ENDROOT
BRANCH   7  11
ATOM     11  C   LIG    1        1.444   6.567   4.194  0.00  0.00    -0.090 A 
ATOM     12  C   LIG    1        2.523   6.720   5.067  0.00  0.00    +0.060 A 
ATOM     13  C   LIG    1        2.828   5.717   5.965  0.00  0.00    +0.120 A 
ATOM     14  C   LIG    1        2.064   4.559   6.002  0.00  0.00    -0.050 A 
ATOM     15  C   LIG    1        0.997   4.400   5.135  0.00  0.00    +0.080 A 
ATOM     16 CL   LIG    1        2.454   3.302   7.134  0.00  0.00    -0.020 Cl
ATOM     17  F   LIG    1        3.872   5.863   6.811  0.00  0.00    -0.110 F 
ATOM     18  C   LIG    1        0.679   5.398   4.236  0.00  0.00    +0.000 A 
ATOM     19 CL   LIG    1       -0.664   5.199   3.155  0.00  0.00    -0.020 Cl
ENDBRANCH   7  11
BRANCH   1  24
ATOM     20  C   LIG    1        8.070   8.069  -1.044  0.00  0.00    +0.130 A 
ATOM     21  C   LIG    1        8.093   6.685  -1.155  0.00  0.00    -0.060 A 
ATOM     22  C   LIG    1        6.912   5.966  -1.148  0.00  0.00    +0.050 A 
ATOM     23  C   LIG    1        5.702   6.619  -1.026  0.00  0.00    +0.000 A 
ATOM     24  C   LIG    1        5.669   8.011  -0.919  0.00  0.00    -0.090 A 
ATOM     25  C   LIG    1        6.862   8.735  -0.926  0.00  0.00    +0.040 A 
BRANCH  20  27
ATOM     26  C   LIG    1       10.444   8.018  -1.176  0.00  0.00    +0.250 C 
ATOM     27  O   LIG    1        9.234   8.770  -1.051  0.00  0.00    -0.310 OA
ENDBRANCH  20  27
ENDBRANCH   1  24
TORSDOF 3
