REMARK  Name = ZINCrH000004qzbD.0
REMARK                            x       y       z     vdW  Elec       q    Type
REMARK                         _______ _______ _______ _____ _____    ______ ____
ROOT
ATOM      1  N   LIG    1       -1.889  -3.345  -3.638  0.00  0.00    -0.670 N 
ATOM      2  H   LIG    1       -2.134  -2.478  -3.997  0.00  0.00    +0.410 HD
ATOM      3  C   LIG    1       -2.111  -4.460  -4.361  0.00  0.00    +0.520 C 
ATOM      4  O   LIG    1       -1.732  -5.536  -3.947  0.00  0.00    -0.510 OA
ENDROOT
BRANCH   1   9
ATOM      5  C   LIG    1        0.253  -4.474  -0.866  0.00  0.00    +0.170 A 
ATOM      6  C   LIG    1       -0.153  -3.612   0.144  0.00  0.00    -0.010 A 
ATOM      7  C   LIG    1       -1.130  -2.667  -0.103  0.00  0.00    +0.060 A 
ATOM      8  C   LIG    1       -1.706  -2.576  -1.355  0.00  0.00    -0.010 A 
ATOM      9  C   LIG    1       -1.305  -3.437  -2.370  0.00  0.00    +0.160 A 
ATOM     10  C   LIG    1       -0.320  -4.383  -2.126  0.00  0.00    +0.040 A 
BRANCH   5  17
ATOM     11  C   LIG    1        0.479  -6.099   1.726  0.00  0.00    +0.150 C 
ATOM     12  C   LIG    1        1.373  -6.166   0.515  0.00  0.00    +0.090 A 
ATOM     13  C   LIG    1        2.451  -6.971   0.362  0.00  0.00    -0.110 A 
ATOM     14  C   LIG    1        2.998  -6.722  -0.901  0.00  0.00    +0.080 A 
ATOM     15  N   LIG    1        2.280  -5.797  -1.484  0.00  0.00    -0.290 NA
ATOM     16  C   LIG    1        4.211  -7.398  -1.486  0.00  0.00    +0.160 C 
ATOM     17  N   LIG    1        1.244  -5.433  -0.614  0.00  0.00    -0.330 N 
ENDBRANCH   5  17
ENDBRANCH   1   9
BRANCH   3  18
ATOM     18  C   LIG    1       -2.829  -4.372  -5.683  0.00  0.00    -0.010 C 
ATOM     19  C   LIG    1       -4.229  -3.791  -5.466  0.00  0.00    +0.050 C 
ATOM     20  C   LIG    1       -4.976  -3.762  -6.802  0.00  0.00    +0.200 C 
ATOM     21  N   LIG    1       -5.068  -5.124  -7.344  0.00  0.00    -0.530 NA
ATOM     22  C   LIG    1       -3.736  -5.683  -7.604  0.00  0.00    +0.170 C 
ATOM     23  C   LIG    1       -2.952  -5.771  -6.292  0.00  0.00    +0.060 C 
BRANCH  21  24
ATOM     24  C   LIG    1       -5.897  -5.153  -8.556  0.00  0.00    +0.220 C 
BRANCH  24  25
ATOM     25  C   LIG    1       -6.383  -6.582  -8.807  0.00  0.00    +0.460 C 
ATOM     26  F   LIG    1       -5.289  -7.400  -9.109  0.00  0.00    -0.180 F 
ATOM     27  F   LIG    1       -7.280  -6.587  -9.881  0.00  0.00    -0.180 F 
ATOM     28  F   LIG    1       -7.024  -7.065  -7.662  0.00  0.00    -0.170 F 
ENDBRANCH  24  25
ENDBRANCH  21  24
ENDBRANCH   3  18
TORSDOF 5
