REMARK  Name = ZINCpk00000xIgkO.0
REMARK                            x       y       z     vdW  Elec       q    Type
REMARK                         _______ _______ _______ _____ _____    ______ ____
ROOT
ATOM      1  N   LIG    1        2.108  -1.696  -3.622  0.00  0.00    -0.280 N 
ATOM      2  N   LIG    1        2.580  -2.533  -4.481  0.00  0.00    -0.250 NA
ATOM      3  C   LIG    1        2.325  -3.754  -4.123  0.00  0.00    +0.000 A 
ATOM      4  C   LIG    1        1.622  -3.704  -2.909  0.00  0.00    -0.150 A 
ATOM      5  C   LIG    1        1.142  -4.936  -2.190  0.00  0.00    +0.100 C 
ATOM      6  C   LIG    1        1.221  -6.109  -3.180  0.00  0.00    +0.150 C 
ATOM      7  O   LIG    1        2.493  -6.108  -3.834  0.00  0.00    -0.370 OA
ATOM      8  C   LIG    1        1.040  -7.427  -2.424  0.00  0.00    +0.060 C 
ATOM      9  C   LIG    1        2.674  -5.059  -4.795  0.00  0.00    +0.260 C 
ATOM     10  C   LIG    1        4.131  -5.029  -5.261  0.00  0.00    +0.070 C 
ATOM     11  C   LIG    1        1.489  -2.377  -2.606  0.00  0.00    -0.020 A 
ENDROOT
BRANCH  11  12
ATOM     12  C   LIG    1        0.823  -1.798  -1.428  0.00  0.00    +0.590 C 
ATOM     13  N   LIG    1       -0.475  -1.440  -1.495  0.00  0.00    -0.720 N 
ATOM     14  H   LIG    1       -0.949  -1.492  -2.340  0.00  0.00    +0.400 HD
ATOM     15  O   LIG    1        1.443  -1.644  -0.393  0.00  0.00    -0.510 OA
BRANCH  13  16
ATOM     16  C   LIG    1       -1.170  -0.973  -0.293  0.00  0.00    +0.260 C 
BRANCH  16  17
ATOM     17  C   LIG    1       -2.620  -0.634  -0.642  0.00  0.00    +0.020 C 
BRANCH  17  18
ATOM     18  C   LIG    1       -3.346  -0.146   0.614  0.00  0.00    -0.010 C 
ATOM     19  C   LIG    1       -3.967  -1.280   1.446  0.00  0.00    -0.010 C 
ATOM     20  C   LIG    1       -5.175  -0.353   1.663  0.00  0.00    +0.150 C 
ATOM     21  C   LIG    1       -4.781   0.338   0.347  0.00  0.00    +0.040 C 
BRANCH  20  22
ATOM     22  O   LIG    1       -6.434  -1.026   1.601  0.00  0.00    -0.560 OA
ATOM     23  H   LIG    1       -6.687  -1.463   2.426  0.00  0.00    +0.380 HD
ENDBRANCH  20  22
ENDBRANCH  17  18
ENDBRANCH  16  17
ENDBRANCH  13  16
ENDBRANCH  11  12
BRANCH   1  24
ATOM     24  C   LIG    1        2.218  -0.238  -3.716  0.00  0.00    +0.350 C 
BRANCH  24  25
ATOM     25  C   LIG    1        3.561   0.211  -3.134  0.00  0.00    +0.170 C 
BRANCH  25  27
ATOM     26  C   LIG    1        4.891   2.158  -2.708  0.00  0.00    +0.220 C 
ATOM     27  O   LIG    1        3.668   1.633  -3.226  0.00  0.00    -0.390 OA
ENDBRANCH  25  27
ENDBRANCH  24  25
ENDBRANCH   1  24
TORSDOF 8
