REMARK  Name = ZINCtV000002MuVW.0
REMARK                            x       y       z     vdW  Elec       q    Type
REMARK                         _______ _______ _______ _____ _____    ______ ____
ROOT
ATOM      1  O   LIG    1        3.408   2.163   2.314  0.00  0.00    -0.480 OA
ATOM      2  C   LIG    1        4.125   2.484   1.390  0.00  0.00    +0.510 C 
ATOM      3  N   LIG    1        5.273   3.150   1.627  0.00  0.00    -0.620 N 
ATOM      4  H   LIG    1        5.846   3.406   0.888  0.00  0.00    +0.430 HD
ENDROOT
BRANCH   3   5
ATOM      5  C   LIG    1        5.634   3.470   2.930  0.00  0.00    +0.280 A 
ATOM      6  N   LIG    1        6.710   4.105   3.275  0.00  0.00    -0.500 NA
ATOM      7  C   LIG    1        6.891   4.323   4.570  0.00  0.00    +0.130 A 
ATOM      8  C   LIG    1        5.923   3.851   5.375  0.00  0.00    -0.110 A 
ATOM      9  S   LIG    1        4.697   3.081   4.370  0.00  0.00    +0.200 S 
BRANCH   7  10
ATOM     10  C   LIG    1        8.080   5.039   5.095  0.00  0.00    -0.030 A 
ATOM     11  C   LIG    1        8.280   5.154   6.469  0.00  0.00    +0.020 A 
ATOM     12  C   LIG    1        9.387   5.823   6.942  0.00  0.00    +0.000 A 
ATOM     13  C   LIG    1       10.308   6.382   6.064  0.00  0.00    -0.070 A 
ATOM     14  C   LIG    1       11.490   7.104   6.658  0.00  0.00    +0.080 C 
ATOM     15  C   LIG    1       12.595   7.271   5.618  0.00  0.00    +0.020 C 
ATOM     16  C   LIG    1       11.982   7.887   4.355  0.00  0.00    +0.020 C 
ATOM     17  C   LIG    1       11.081   6.843   3.699  0.00  0.00    +0.070 C 
ATOM     18  C   LIG    1       10.117   6.268   4.704  0.00  0.00    -0.080 A 
ATOM     19  C   LIG    1        9.006   5.595   4.218  0.00  0.00    +0.040 A 
ENDBRANCH   7  10
ENDBRANCH   3   5
BRANCH   2  20
ATOM     20  C   LIG    1        3.734   2.137  -0.023  0.00  0.00    +0.150 C 
BRANCH  20  21
ATOM     21  C   LIG    1        2.420   1.399  -0.014  0.00  0.00    -0.070 A 
ATOM     22  C   LIG    1        2.399   0.038  -0.021  0.00  0.00    +0.030 A 
ATOM     23  C   LIG    1        1.194  -0.661  -0.013  0.00  0.00    +0.010 A 
ATOM     24  C   LIG    1        0.002  -0.004   0.002  0.00  0.00    +0.030 A 
ATOM     25  C   LIG    1       -0.017   1.401   0.010  0.00  0.00    -0.050 A 
ATOM     26  C   LIG    1       -1.227   2.115   0.019  0.00  0.00    +0.030 A 
ATOM     27  C   LIG    1       -1.207   3.476   0.032  0.00  0.00    +0.000 A 
ATOM     28  C   LIG    1       -0.002   4.175   0.023  0.00  0.00    +0.010 A 
ATOM     29  C   LIG    1        1.190   3.518   0.009  0.00  0.00    +0.010 A 
ATOM     30  C   LIG    1        1.209   2.113   0.002  0.00  0.00    -0.030 A 
ENDBRANCH  20  21
ENDBRANCH   2  20
TORSDOF 4
