REMARK  Name = ZINCkj00000kIYWW.0
REMARK                            x       y       z     vdW  Elec       q    Type
REMARK                         _______ _______ _______ _____ _____    ______ ____
ROOT
ATOM      1  C   LIG    1        0.002  -0.004   0.002  0.00  0.00    +0.150 A 
ATOM      2  C   LIG    1       -0.017   1.381   0.010  0.00  0.00    -0.030 A 
ATOM      3  C   LIG    1        1.171   2.089   0.002  0.00  0.00    -0.050 A 
ATOM      4  C   LIG    1        2.379   1.417  -0.013  0.00  0.00    -0.170 A 
ATOM      5  C   LIG    1        2.405   0.035  -0.021  0.00  0.00    +0.010 A 
ATOM      6  C   LIG    1        1.149   3.595   0.010  0.00  0.00    +0.090 C 
ATOM      7  C   LIG    1        1.218  -0.680  -0.013  0.00  0.00    +0.100 A 
ENDROOT
BRANCH   1   9
ATOM      8  C   LIG    1       -2.375   0.059   0.026  0.00  0.00    +0.250 C 
ATOM      9  O   LIG    1       -1.165  -0.702   0.010  0.00  0.00    -0.300 OA
ENDBRANCH   1   9
BRANCH   7  10
ATOM     10  O   LIG    1        1.242  -2.040  -0.020  0.00  0.00    -0.300 OA
ATOM     11  C   LIG    1        2.526  -2.667  -0.036  0.00  0.00    +0.250 C 
ENDBRANCH   7  10
BRANCH   4  12
ATOM     12  C   LIG    1        3.671   2.193  -0.022  0.00  0.00    +0.330 C 
BRANCH  12  13
ATOM     13  N   LIG    1        3.980   2.644   1.342  0.00  0.00    -0.490 N 
ATOM     14  H   LIG    1        4.073   1.843   1.948  0.00  0.00    +0.430 HD
ATOM     15  H   LIG    1        3.235   3.236   1.678  0.00  0.00    +0.420 HD
BRANCH  13  16
ATOM     16  C   LIG    1        5.239   3.401   1.333  0.00  0.00    +0.160 C 
ATOM     17  C   LIG    1        5.604   3.861   2.764  0.00  0.00    +0.100 C 
ATOM     18  C   LIG    1        4.992   5.279   2.804  0.00  0.00    +0.280 C 
ATOM     19  N   LIG    1        4.947   5.725   1.406  0.00  0.00    -0.600 N 
ATOM     20  C   LIG    1        4.780   7.120   0.988  0.00  0.00    +0.330 C 
ATOM     21  C   LIG    1        5.077   4.690   0.559  0.00  0.00    +0.500 C 
ATOM     22  O   LIG    1        5.067   4.777  -0.651  0.00  0.00    -0.480 OA
ENDBRANCH  13  16
ENDBRANCH  12  13
ENDBRANCH   4  12
TORSDOF 5
