REMARK  Name = ZINCtV00000L6jdT.0
REMARK                            x       y       z     vdW  Elec       q    Type
REMARK                         _______ _______ _______ _____ _____    ______ ____
ROOT
ATOM      1  N   LIG    1        3.395   2.336  -0.017  0.00  0.00    -0.470 N 
ATOM      2  C   LIG    1        2.404   1.375  -0.013  0.00  0.00    +0.060 A 
ATOM      3  C   LIG    1        2.403  -0.013  -0.021  0.00  0.00    +0.010 A 
ATOM      4  C   LIG    1        1.205  -0.695  -0.014  0.00  0.00    +0.040 A 
ATOM      5  C   LIG    1        0.002  -0.004   0.002  0.00  0.00    +0.000 A 
ATOM      6  C   LIG    1       -0.017   1.362   0.009  0.00  0.00    +0.070 A 
ATOM      7  C   LIG    1        1.185   2.075   0.002  0.00  0.00    +0.040 A 
ATOM      8  N   LIG    1        1.489   3.398   0.007  0.00  0.00    -0.460 NA
ATOM      9  C   LIG    1        2.781   3.550  -0.004  0.00  0.00    +0.270 A 
ENDROOT
BRANCH   1  10
ATOM     10  C   LIG    1        4.840   2.093  -0.033  0.00  0.00    +0.350 C 
BRANCH  10  14
ATOM     11  C   LIG    1        6.206   1.881  -4.074  0.00  0.00    -0.050 A 
ATOM     12  C   LIG    1        6.183   3.096  -3.415  0.00  0.00    +0.010 A 
ATOM     13  C   LIG    1        5.741   3.165  -2.107  0.00  0.00    +0.040 A 
ATOM     14  C   LIG    1        5.321   2.019  -1.458  0.00  0.00    -0.130 A 
ATOM     15  C   LIG    1        5.349   0.803  -2.116  0.00  0.00    +0.030 A 
ATOM     16  C   LIG    1        5.787   0.735  -3.425  0.00  0.00    +0.010 A 
BRANCH  11  18
ATOM     17  C   LIG    1        8.137   2.295  -5.574  0.00  0.00    +0.040 C 
ATOM     18  C   LIG    1        6.689   1.807  -5.500  0.00  0.00    -0.030 C 
ATOM     19  C   LIG    1        5.806   2.690  -6.384  0.00  0.00    +0.040 C 
ATOM     20  C   LIG    1        6.613   0.359  -5.989  0.00  0.00    +0.030 C 
ENDBRANCH  11  18
ENDBRANCH  10  14
ENDBRANCH   1  10
BRANCH   9  21
ATOM     21  C   LIG    1        3.494   4.878  -0.004  0.00  0.00    +0.320 C 
BRANCH  21  22
ATOM     22  O   LIG    1        3.706   5.305  -1.351  0.00  0.00    -0.300 OA
BRANCH  22  23
ATOM     23  C   LIG    1        4.342   6.493  -1.529  0.00  0.00    +0.140 A 
ATOM     24  C   LIG    1        4.748   7.235  -0.429  0.00  0.00    -0.060 A 
ATOM     25  C   LIG    1        5.398   8.440  -0.612  0.00  0.00    +0.070 A 
ATOM     26  C   LIG    1        5.635   8.912  -1.890  0.00  0.00    -0.070 A 
ATOM     27  C   LIG    1        5.226   8.176  -2.989  0.00  0.00    +0.070 A 
ATOM     28 CL   LIG    1        6.447  10.430  -2.118  0.00  0.00    -0.070 Cl
ATOM     29  C   LIG    1        4.580   6.968  -2.810  0.00  0.00    +0.010 A 
ENDBRANCH  22  23
ENDBRANCH  21  22
ENDBRANCH   9  21
TORSDOF 6
