REMARK  Name = ZINCrD0000074kyA.0
REMARK                            x       y       z     vdW  Elec       q    Type
REMARK                         _______ _______ _______ _____ _____    ______ ____
ROOT
ATOM      1  N   LIG    1       -0.723   2.617  -3.267  0.00  0.00    -0.750 N 
ATOM      2  H   LIG    1       -1.673   2.443  -3.358  0.00  0.00    +0.390 HD
ATOM      3  C   LIG    1       -0.078   2.261  -2.138  0.00  0.00    +0.710 C 
ATOM      4  N   LIG    1       -0.728   1.574  -1.179  0.00  0.00    -0.630 N 
ATOM      5  C   LIG    1       -2.167   1.300  -1.298  0.00  0.00    +0.260 C 
ATOM      6  C   LIG    1       -2.400  -0.206  -1.143  0.00  0.00    +0.040 C 
ATOM      7  C   LIG    1       -1.775  -0.678   0.175  0.00  0.00    +0.060 C 
ATOM      8  C   LIG    1       -0.266  -0.420   0.149  0.00  0.00    +0.040 C 
ATOM      9  C   LIG    1       -0.012   1.083   0.007  0.00  0.00    +0.300 C 
ATOM     10  O   LIG    1        1.091   2.561  -1.986  0.00  0.00    -0.590 OA
ENDROOT
BRANCH   7  11
ATOM     11  C   LIG    1       -2.029  -2.154   0.350  0.00  0.00    +0.090 A 
ATOM     12  C   LIG    1       -1.282  -3.158  -0.165  0.00  0.00    -0.120 A 
ATOM     13  C   LIG    1       -1.857  -4.369   0.233  0.00  0.00    +0.230 A 
ATOM     14  N   LIG    1       -2.916  -4.101   0.954  0.00  0.00    -0.300 NA
ATOM     15  N   LIG    1       -3.045  -2.709   1.042  0.00  0.00    -0.370 N 
ATOM     16  C   LIG    1       -4.098  -1.985   1.758  0.00  0.00    +0.360 C 
ENDBRANCH   7  11
BRANCH   1  17
ATOM     17  C   LIG    1        0.011   3.265  -4.357  0.00  0.00    +0.270 C 
BRANCH  17  18
ATOM     18  C   LIG    1       -0.948   3.562  -5.512  0.00  0.00    +0.100 C 
BRANCH  18  21
ATOM     19  C   LIG    1        0.471   2.125  -7.868  0.00  0.00    +0.140 C 
ATOM     20  C   LIG    1        0.423   3.616  -7.655  0.00  0.00    +0.090 A 
ATOM     21  C   LIG    1       -0.194   4.229  -6.633  0.00  0.00    -0.170 A 
ATOM     22  C   LIG    1        0.000   5.669  -6.816  0.00  0.00    -0.100 A 
ATOM     23  C   LIG    1       -0.397   6.801  -6.102  0.00  0.00    +0.050 A 
ATOM     24  C   LIG    1       -0.045   8.043  -6.549  0.00  0.00    -0.020 A 
ATOM     25  C   LIG    1        0.706   8.190  -7.707  0.00  0.00    +0.030 A 
ATOM     26  C   LIG    1        1.115   7.086  -8.423  0.00  0.00    -0.010 A 
ATOM     27  C   LIG    1        0.764   5.812  -7.989  0.00  0.00    +0.100 A 
ATOM     28  N   LIG    1        1.001   4.546  -8.476  0.00  0.00    -0.590 N 
ATOM     29  H   LIG    1        1.503   4.343  -9.281  0.00  0.00    +0.420 HD
ENDBRANCH  18  21
ENDBRANCH  17  18
ENDBRANCH   1  17
TORSDOF 4
