REMARK  Name = ZINCkj000005hGHT.0
REMARK                            x       y       z     vdW  Elec       q    Type
REMARK                         _______ _______ _______ _____ _____    ______ ____
ROOT
ATOM      1  C   LIG    1       -0.699   1.479   1.216  0.00  0.00    +0.400 C 
ENDROOT
BRANCH   1   4
ATOM      2  N   LIG    1        1.342   0.816   4.150  0.00  0.00    -0.280 N 
ATOM      3  C   LIG    1        0.974   1.643   3.144  0.00  0.00    +0.210 A 
ATOM      4  C   LIG    1        0.030   0.979   2.437  0.00  0.00    -0.100 A 
ATOM      5  N   LIG    1       -0.125  -0.209   3.031  0.00  0.00    -0.240 NA
ATOM      6  N   LIG    1        0.667  -0.275   4.043  0.00  0.00    -0.020 NA
BRANCH   2   7
ATOM      7  C   LIG    1        2.342   1.109   5.180  0.00  0.00    +0.440 C 
BRANCH   7   8
ATOM      8  C   LIG    1        1.729   0.923   6.543  0.00  0.00    +0.450 C 
ATOM      9  O   LIG    1        0.574   0.582   6.645  0.00  0.00    -0.480 OA
BRANCH   8  11
ATOM     10  C   LIG    1        1.808   0.940   8.925  0.00  0.00    +0.290 C 
ATOM     11  O   LIG    1        2.465   1.138   7.645  0.00  0.00    -0.350 OA
ENDBRANCH   8  11
ENDBRANCH   7   8
ENDBRANCH   2   7
ENDBRANCH   1   4
BRANCH   1  12
ATOM     12  N   LIG    1       -0.012   1.005   0.008  0.00  0.00    -0.510 N 
ATOM     13  H   LIG    1        0.935   1.354   0.000  0.00  0.00    +0.420 HD
ATOM     14  H   LIG    1        0.002  -0.004   0.002  0.00  0.00    +0.430 HD
BRANCH  12  15
ATOM     15  C   LIG    1       -0.722   1.492  -1.183  0.00  0.00    +0.170 C 
ATOM     16  C   LIG    1       -2.116   0.863  -1.237  0.00  0.00    +0.040 C 
ATOM     17  C   LIG    1       -2.856   1.370  -2.477  0.00  0.00    +0.040 C 
ATOM     18  C   LIG    1       -2.072   0.982  -3.732  0.00  0.00    +0.020 C 
ATOM     19  C   LIG    1       -0.678   1.611  -3.678  0.00  0.00    +0.010 C 
ATOM     20  C   LIG    1       -0.808   3.134  -3.607  0.00  0.00    +0.030 C 
ATOM     21  C   LIG    1        0.062   1.104  -2.438  0.00  0.00    +0.000 C 
ATOM     22  C   LIG    1        1.455   1.733  -2.384  0.00  0.00    +0.050 C 
ENDBRANCH  12  15
ENDBRANCH   1  12
TORSDOF 6
