REMARK  Name = ZINCrm000000GjsG.0
REMARK                            x       y       z     vdW  Elec       q    Type
REMARK                         _______ _______ _______ _____ _____    ______ ____
ROOT
ATOM      1  C   LIG    1       -0.558   1.618   2.375  0.00  0.00    +0.520 C 
ATOM      2  N   LIG    1       -1.049   2.073   1.205  0.00  0.00    -0.700 N 
ATOM      3  H   LIG    1       -1.779   2.711   1.201  0.00  0.00    +0.420 HD
ATOM      4  O   LIG    1        0.356   0.820   2.380  0.00  0.00    -0.500 OA
ENDROOT
BRANCH   1   9
ATOM      5  C   LIG    1        0.078   1.768   7.116  0.00  0.00    +0.160 C 
ATOM      6  C   LIG    1        0.681   0.477   6.500  0.00  0.00    +0.070 C 
ATOM      7  C   LIG    1        0.447   0.673   4.987  0.00  0.00    +0.310 C 
ATOM      8  N   LIG    1       -0.648   1.642   4.836  0.00  0.00    -0.590 N 
ATOM      9  C   LIG    1       -1.139   2.097   3.666  0.00  0.00    +0.530 C 
ATOM     10  O   LIG    1       -2.053   2.895   3.661  0.00  0.00    -0.500 OA
ATOM     11  C   LIG    1       -1.125   2.029   6.176  0.00  0.00    +0.310 C 
BRANCH   5  12
ATOM     12  N   LIG    1       -0.371   1.532   8.495  0.00  0.00    -0.380 N 
ATOM     13  H   LIG    1       -0.975   0.724   8.518  0.00  0.00    +0.420 HD
BRANCH  12  15
ATOM     14  C   LIG    1        0.323   0.930  10.765  0.00  0.00    +0.080 C 
ATOM     15  C   LIG    1        0.795   1.298   9.357  0.00  0.00    +0.240 C 
ENDBRANCH  12  15
BRANCH  12  16
ATOM     16  C   LIG    1       -1.108   2.708   8.977  0.00  0.00    +0.250 C 
ATOM     17  C   LIG    1       -0.235   3.955   8.823  0.00  0.00    +0.080 C 
ENDBRANCH  12  16
ENDBRANCH   5  12
ENDBRANCH   1   9
BRANCH   2  18
ATOM     18  C   LIG    1       -0.479   1.604  -0.060  0.00  0.00    +0.270 C 
BRANCH  18  19
ATOM     19  C   LIG    1       -1.211   2.269  -1.227  0.00  0.00    +0.000 C 
ATOM     20  C   LIG    1       -2.670   1.804  -1.248  0.00  0.00    +0.040 C 
ATOM     21  C   LIG    1       -2.710   0.292  -1.492  0.00  0.00    +0.060 C 
ATOM     22  C   LIG    1       -1.980  -0.027  -2.799  0.00  0.00    +0.250 C 
ATOM     23  N   LIG    1       -0.585   0.419  -2.706  0.00  0.00    -0.380 N 
ATOM     24  H   LIG    1       -0.146  -0.021  -1.912  0.00  0.00    +0.420 HD
ATOM     25  C   LIG    1       -0.537   1.877  -2.543  0.00  0.00    +0.280 C 
BRANCH  23  26
ATOM     26  C   LIG    1        0.131   0.041  -3.932  0.00  0.00    +0.160 C 
ATOM     27  C   LIG    1        0.151  -1.494  -4.080  0.00  0.00    +0.050 C 
ATOM     28  C   LIG    1        1.548  -1.801  -4.674  0.00  0.00    +0.050 C 
ATOM     29  C   LIG    1        2.460  -0.783  -3.945  0.00  0.00    +0.040 C 
ATOM     30  C   LIG    1        1.599   0.493  -3.846  0.00  0.00    +0.040 C 
ENDBRANCH  23  26
ENDBRANCH  18  19
ENDBRANCH   2  18
TORSDOF 7
