REMARK  Name = ZINCrm000000GjsG.1
REMARK                            x       y       z     vdW  Elec       q    Type
REMARK                         _______ _______ _______ _____ _____    ______ ____
ROOT
ATOM      1  C   LIG    1       -6.608   0.157   0.539  0.00  0.00    +0.520 C 
ATOM      2  N   LIG    1       -7.664  -0.213  -0.213  0.00  0.00    -0.700 N 
ATOM      3  H   LIG    1       -7.557  -0.344  -1.168  0.00  0.00    +0.420 HD
ATOM      4  O   LIG    1       -6.743   0.322   1.734  0.00  0.00    -0.500 OA
ENDROOT
BRANCH   1   9
ATOM      5  C   LIG    1       -1.936   0.751   1.389  0.00  0.00    +0.160 C 
ATOM      6  C   LIG    1       -2.804   1.345   2.530  0.00  0.00    +0.070 C 
ATOM      7  C   LIG    1       -4.239   0.968   2.105  0.00  0.00    +0.310 C 
ATOM      8  N   LIG    1       -4.217   0.734   0.654  0.00  0.00    -0.590 N 
ATOM      9  C   LIG    1       -5.273   0.364  -0.098  0.00  0.00    +0.530 C 
ATOM     10  O   LIG    1       -5.138   0.199  -1.293  0.00  0.00    -0.500 OA
ATOM     11  C   LIG    1       -2.849   0.972   0.158  0.00  0.00    +0.300 C 
BRANCH   5  12
ATOM     12  N   LIG    1       -0.675   1.490   1.249  0.00  0.00    -0.380 N 
ATOM     13  H   LIG    1       -0.867   2.480   1.210  0.00  0.00    +0.420 HD
BRANCH  12  15
ATOM     14  C   LIG    1        0.287  -0.428   0.068  0.00  0.00    +0.080 C 
ATOM     15  C   LIG    1        0.001   1.074   0.012  0.00  0.00    +0.250 C 
ENDBRANCH  12  15
BRANCH  12  16
ATOM     16  C   LIG    1        0.192   1.204   2.400  0.00  0.00    +0.240 C 
ATOM     17  C   LIG    1        1.452   2.067   2.317  0.00  0.00    +0.080 C 
ENDBRANCH  12  16
ENDBRANCH   5  12
ENDBRANCH   1   9
BRANCH   2  18
ATOM     18  C   LIG    1       -8.973  -0.416   0.412  0.00  0.00    +0.310 C 
BRANCH  18  19
ATOM     19  C   LIG    1       -9.989  -0.828  -0.655  0.00  0.00    -0.020 C 
ATOM     20  C   LIG    1      -10.187   0.324  -1.645  0.00  0.00    +0.040 C 
ATOM     21  C   LIG    1      -11.262  -0.069  -2.662  0.00  0.00    +0.070 C 
ATOM     22  C   LIG    1      -12.553  -0.425  -1.920  0.00  0.00    +0.250 C 
ATOM     23  N   LIG    1      -12.304  -1.549  -1.010  0.00  0.00    -0.380 N 
ATOM     24  H   LIG    1      -11.944  -2.332  -1.534  0.00  0.00    +0.420 HD
ATOM     25  C   LIG    1      -11.327  -1.156   0.012  0.00  0.00    +0.270 C 
BRANCH  23  26
ATOM     26  C   LIG    1      -13.562  -1.936  -0.357  0.00  0.00    +0.160 C 
ATOM     27  C   LIG    1      -13.327  -3.151   0.564  0.00  0.00    +0.050 C 
ATOM     28  C   LIG    1      -14.614  -4.000   0.406  0.00  0.00    +0.040 C 
ATOM     29  C   LIG    1      -14.945  -3.844  -1.098  0.00  0.00    +0.040 C 
ATOM     30  C   LIG    1      -14.590  -2.376  -1.413  0.00  0.00    +0.040 C 
ENDBRANCH  23  26
ENDBRANCH  18  19
ENDBRANCH   2  18
TORSDOF 7
