REMARK  Name = ZINCpe00000VVGCI.0
REMARK                            x       y       z     vdW  Elec       q    Type
REMARK                         _______ _______ _______ _____ _____    ______ ____
ROOT
ATOM      1  N   LIG    1       -5.545   6.254   2.073  0.00  0.00    -0.520 N 
ATOM      2  H   LIG    1       -5.087   7.004   1.663  0.00  0.00    +0.430 HD
ATOM      3  C   LIG    1       -6.531   6.473   2.965  0.00  0.00    +0.510 C 
ATOM      4  O   LIG    1       -7.164   5.538   3.410  0.00  0.00    -0.510 OA
ENDROOT
BRANCH   1   6
ATOM      5  C   LIG    1       -4.193   4.725   0.848  0.00  0.00    +0.500 C 
ATOM      6  N   LIG    1       -5.179   4.943   1.740  0.00  0.00    -0.520 N 
ATOM      7  H   LIG    1       -5.637   4.193   2.150  0.00  0.00    +0.430 HD
ATOM      8  O   LIG    1       -3.621   5.663   0.334  0.00  0.00    -0.520 OA
BRANCH   5   9
ATOM      9  C   LIG    1       -3.800   3.315   0.489  0.00  0.00    +0.390 C 
BRANCH   9  16
ATOM     10  C   LIG    1       -0.774   3.346   1.159  0.00  0.00    +0.140 C 
ATOM     11  C   LIG    1       -1.393   3.360  -0.215  0.00  0.00    +0.100 A 
ATOM     12  C   LIG    1       -0.724   3.388  -1.391  0.00  0.00    -0.120 A 
ATOM     13  C   LIG    1       -1.668   3.391  -2.423  0.00  0.00    +0.080 A 
ATOM     14  N   LIG    1       -2.861   3.371  -1.886  0.00  0.00    -0.290 NA
ATOM     15  C   LIG    1       -1.364   3.418  -3.899  0.00  0.00    +0.160 C 
ATOM     16  N   LIG    1       -2.713   3.346  -0.493  0.00  0.00    -0.360 N 
ENDBRANCH   9  16
ENDBRANCH   5   9
ENDBRANCH   1   6
BRANCH   3  17
ATOM     17  C   LIG    1       -6.848   7.877   3.409  0.00  0.00    +0.180 C 
BRANCH  17  18
ATOM     18  C   LIG    1       -5.672   8.435   4.213  0.00  0.00    -0.020 C 
ATOM     19  C   LIG    1       -5.514   7.636   5.508  0.00  0.00    +0.030 C 
ATOM     20  C   LIG    1       -5.935   9.905   4.549  0.00  0.00    +0.030 C 
ENDBRANCH  17  18
BRANCH  17  21
ATOM     21  O   LIG    1       -8.020   7.865   4.226  0.00  0.00    -0.340 OA
BRANCH  21  22
ATOM     22  C   LIG    1       -8.983   8.862   3.876  0.00  0.00    +0.200 C 
BRANCH  22  23
ATOM     23  C   LIG    1      -10.216   8.717   4.770  0.00  0.00    +0.160 C 
ATOM     24  C   LIG    1      -11.320   9.702   4.327  0.00  0.00    +0.010 C 
ATOM     25  C   LIG    1      -11.964  10.165   5.653  0.00  0.00    +0.000 C 
ATOM     26  C   LIG    1      -11.173   9.404   6.740  0.00  0.00    +0.190 C 
ATOM     27  O   LIG    1       -9.902   9.100   6.126  0.00  0.00    -0.360 OA
ENDBRANCH  22  23
ENDBRANCH  21  22
ENDBRANCH  17  21
ENDBRANCH   3  17
TORSDOF 8
