REMARK  Name = ZINCvU00000009il.0
REMARK                            x       y       z     vdW  Elec       q    Type
REMARK                         _______ _______ _______ _____ _____    ______ ____
ROOT
ATOM      1  N   LIG    1        1.979   3.982  -1.565  0.00  0.00    -0.500 N 
ATOM      2  C   LIG    1        1.972   2.898  -2.369  0.00  0.00    +0.570 A 
ATOM      3  C   LIG    1        2.040   3.093  -3.828  0.00  0.00    -0.160 A 
ATOM      4  C   LIG    1        2.030   2.011  -4.706  0.00  0.00    +0.130 A 
ATOM      5  C   LIG    1        2.102   2.236  -6.065  0.00  0.00    +0.020 A 
ATOM      6  C   LIG    1        2.183   3.528  -6.558  0.00  0.00    +0.080 A 
ATOM      7  C   LIG    1        2.194   4.609  -5.698  0.00  0.00    +0.010 A 
ATOM      8  C   LIG    1        2.122   4.403  -4.329  0.00  0.00    +0.170 A 
ATOM      9  N   LIG    1        2.131   5.468  -3.438  0.00  0.00    -0.430 N 
ATOM     10  C   LIG    1        2.200   6.829  -3.605  0.00  0.00    +0.230 A 
ATOM     11  N   LIG    1        2.170   7.363  -2.405  0.00  0.00    -0.230 NA
ATOM     12  N   LIG    1        2.088   6.440  -1.515  0.00  0.00    -0.290 NA
ATOM     13  O   LIG    1        1.905   1.779  -1.897  0.00  0.00    -0.490 OA
ATOM     14  C   LIG    1        2.060   5.256  -2.091  0.00  0.00    +0.420 A 
ENDROOT
BRANCH  10  15
ATOM     15  C   LIG    1        2.292   7.554  -4.890  0.00  0.00    -0.030 A 
ATOM     16  C   LIG    1        3.331   7.275  -5.779  0.00  0.00    +0.040 A 
ATOM     17  C   LIG    1        3.408   7.952  -6.979  0.00  0.00    +0.020 A 
ATOM     18  C   LIG    1        2.465   8.913  -7.296  0.00  0.00    -0.050 A 
ATOM     19  C   LIG    1        1.436   9.198  -6.417  0.00  0.00    +0.020 A 
ATOM     20  C   LIG    1        1.344   8.525  -5.216  0.00  0.00    +0.060 A 
BRANCH  18  21
ATOM     21  C   LIG    1        2.559   9.653  -8.606  0.00  0.00    +0.020 C 
ATOM     22  C   LIG    1        2.476   8.654  -9.763  0.00  0.00    +0.030 C 
ATOM     23  C   LIG    1        3.891  10.403  -8.674  0.00  0.00    +0.030 C 
ENDBRANCH  18  21
ENDBRANCH  10  15
BRANCH   1  24
ATOM     24  C   LIG    1        1.905   3.804  -0.113  0.00  0.00    +0.370 C 
BRANCH  24  29
ATOM     25  C   LIG    1       -3.632   3.817   1.541  0.00  0.00    +0.090 C 
ATOM     26  C   LIG    1       -2.187   3.813   1.112  0.00  0.00    -0.070 A 
ATOM     27  C   LIG    1       -1.571   2.624   0.770  0.00  0.00    -0.010 A 
ATOM     28  C   LIG    1       -0.247   2.621   0.372  0.00  0.00    +0.040 A 
ATOM     29  C   LIG    1        0.461   3.807   0.321  0.00  0.00    -0.130 A 
ATOM     30  C   LIG    1       -0.153   4.995   0.668  0.00  0.00    +0.040 A 
ATOM     31  C   LIG    1       -1.477   4.998   1.065  0.00  0.00    -0.010 A 
ENDBRANCH  24  29
ENDBRANCH   1  24
TORSDOF 4
