REMARK  Name = ZINCrH000004mhbA.1
REMARK                            x       y       z     vdW  Elec       q    Type
REMARK                         _______ _______ _______ _____ _____    ______ ____
ROOT
ATOM      1  C   LIG    1        3.289   1.807  -2.451  0.00  0.00    +0.120 A 
ATOM      2  C   LIG    1        3.921   2.950  -1.986  0.00  0.00    +0.000 A 
ATOM      3  C   LIG    1        4.096   4.034  -2.826  0.00  0.00    +0.020 A 
ATOM      4  C   LIG    1        3.642   3.982  -4.131  0.00  0.00    +0.020 A 
ATOM      5  C   LIG    1        3.011   2.846  -4.603  0.00  0.00    +0.050 A 
ATOM      6  C   LIG    1        2.837   1.752  -3.769  0.00  0.00    +0.150 A 
ENDROOT
BRANCH   6   7
ATOM      7  N   LIG    1        2.203   0.597  -4.248  0.00  0.00    -0.680 N 
ATOM      8  H   LIG    1        1.644   0.070  -3.656  0.00  0.00    +0.400 HD
ATOM      9  C   LIG    1        2.369   0.220  -5.531  0.00  0.00    +0.720 C 
ATOM     10  N   LIG    1        1.833  -0.937  -5.968  0.00  0.00    -0.630 N 
ATOM     11  C   LIG    1        1.052  -1.881  -5.155  0.00  0.00    +0.230 C 
ATOM     12  C   LIG    1        0.669  -3.064  -6.067  0.00  0.00    +0.040 C 
ATOM     13  C   LIG    1        1.740  -2.998  -7.188  0.00  0.00    +0.030 C 
ATOM     14  C   LIG    1        1.937  -1.468  -7.339  0.00  0.00    +0.270 C 
ATOM     15  O   LIG    1        3.004   0.922  -6.294  0.00  0.00    -0.570 OA
ENDBRANCH   6   7
BRANCH   1  16
ATOM     16  N   LIG    1        3.111   0.709  -1.602  0.00  0.00    -1.050 N 
ATOM     17  H   LIG    1        3.170  -0.192  -1.956  0.00  0.00    +0.420 HD
BRANCH  16  18
ATOM     18  S   LIG    1        2.797   0.948   0.006  0.00  0.00    +2.690 S 
ATOM     19  O   LIG    1        2.530  -0.334   0.558  0.00  0.00    -0.940 OA
ATOM     20  O   LIG    1        3.822   1.805   0.492  0.00  0.00    -0.940 OA
BRANCH  18  23
ATOM     21  C   LIG    1        0.139   3.958   0.210  0.00  0.00    +0.120 A 
ATOM     22  C   LIG    1        1.323   3.241   0.125  0.00  0.00    +0.070 A 
ATOM     23  C   LIG    1        1.293   1.860   0.115  0.00  0.00    -0.640 A 
ATOM     24  C   LIG    1        0.085   1.192   0.189  0.00  0.00    +0.110 A 
ATOM     25  C   LIG    1       -1.098   1.904   0.269  0.00  0.00    +0.060 A 
ATOM     26  C   LIG    1       -1.074   3.286   0.285  0.00  0.00    -0.010 A 
ATOM     27 CL   LIG    1       -2.558   4.180   0.392  0.00  0.00    -0.040 Cl
BRANCH  21  29
ATOM     28  C   LIG    1        1.448   5.942   0.141  0.00  0.00    +0.250 C 
ATOM     29  O   LIG    1        0.165   5.317   0.221  0.00  0.00    -0.300 OA
ENDBRANCH  21  29
ENDBRANCH  18  23
ENDBRANCH  16  18
ENDBRANCH   1  16
TORSDOF 5
