REMARK  Name = ZINCqH0000038f0X.0
REMARK                            x       y       z     vdW  Elec       q    Type
REMARK                         _______ _______ _______ _____ _____    ______ ____
ROOT
ATOM      1  C   LIG    1       -2.488   1.078   4.404  0.00  0.00    +0.320 C 
ATOM      2  C   LIG    1       -3.949   0.759   4.063  0.00  0.00    +0.220 C 
ATOM      3  O   LIG    1       -4.561   0.108   5.179  0.00  0.00    -0.370 OA
ATOM      4  C   LIG    1       -3.972  -1.150   5.517  0.00  0.00    +0.220 C 
ATOM      5  C   LIG    1       -2.513  -0.929   5.932  0.00  0.00    +0.250 C 
ATOM      6  N   LIG    1       -1.842  -0.157   4.875  0.00  0.00    -0.630 N 
ATOM      7  C   LIG    1       -0.669  -0.569   4.353  0.00  0.00    +0.710 C 
ATOM      8  N   LIG    1       -0.138  -1.747   4.736  0.00  0.00    -0.730 N 
ATOM      9  H   LIG    1       -0.630  -2.329   5.336  0.00  0.00    +0.400 HD
ATOM     10  O   LIG    1       -0.091   0.122   3.537  0.00  0.00    -0.550 OA
ENDROOT
BRANCH   1  15
ATOM     11  C   LIG    1       -0.400   1.208  -0.186  0.00  0.00    +0.160 C 
ATOM     12  C   LIG    1       -0.871   1.641   1.179  0.00  0.00    +0.000 A 
ATOM     13  C   LIG    1       -0.714   2.865   1.714  0.00  0.00    -0.080 A 
ATOM     14  C   LIG    1       -1.304   2.830   2.998  0.00  0.00    -0.060 A 
ATOM     15  C   LIG    1       -1.779   1.585   3.174  0.00  0.00    +0.020 A 
ATOM     16  O   LIG    1       -1.514   0.869   2.069  0.00  0.00    -0.150 OA
ENDBRANCH   1  15
BRANCH   8  17
ATOM     17  C   LIG    1        1.183  -2.149   4.247  0.00  0.00    +0.330 C 
BRANCH  17  18
ATOM     18  C   LIG    1        1.808  -3.113   5.221  0.00  0.00    +0.120 A 
ATOM     19  N   LIG    1        1.084  -4.095   5.721  0.00  0.00    -0.480 NA
ATOM     20  C   LIG    1        1.591  -4.966   6.573  0.00  0.00    +0.250 A 
ATOM     21  C   LIG    1        2.907  -4.870   6.983  0.00  0.00    -0.030 A 
ATOM     22  C   LIG    1        3.698  -3.847   6.483  0.00  0.00    +0.060 A 
ATOM     23  C   LIG    1        3.132  -2.955   5.585  0.00  0.00    -0.120 A 
ATOM     24  C   LIG    1        3.951  -1.826   5.013  0.00  0.00    +0.110 C 
ENDBRANCH  17  18
BRANCH  17  25
ATOM     25  C   LIG    1        1.037  -2.825   2.882  0.00  0.00    -0.030 C 
ATOM     26  C   LIG    1        2.417  -3.245   2.371  0.00  0.00    +0.020 C 
ATOM     27  C   LIG    1        0.403  -1.846   1.893  0.00  0.00    +0.030 C 
ENDBRANCH  17  25
ENDBRANCH   8  17
TORSDOF 4
