REMARK  Name = ZINCpk000000nQvz.0
REMARK                            x       y       z     vdW  Elec       q    Type
REMARK                         _______ _______ _______ _____ _____    ______ ____
ROOT
ATOM      1  N   LIG    1        0.135  -4.117   2.204  0.00  0.00    -0.730 N 
ATOM      2  H   LIG    1       -0.743  -4.244   1.811  0.00  0.00    +0.400 HD
ATOM      3  C   LIG    1        0.753  -2.924   2.100  0.00  0.00    +0.730 C 
ATOM      4  N   LIG    1        0.152  -1.907   1.450  0.00  0.00    -0.630 N 
ATOM      5  C   LIG    1       -1.170  -1.962   0.810  0.00  0.00    +0.260 C 
ATOM      6  C   LIG    1       -1.428  -0.581   0.173  0.00  0.00    +0.100 C 
ATOM      7  C   LIG    1        0.002  -0.004   0.002  0.00  0.00    +0.080 C 
ATOM      8  C   LIG    1        0.713  -0.557   1.263  0.00  0.00    +0.300 C 
ATOM      9  O   LIG    1        1.854  -2.765   2.592  0.00  0.00    -0.580 OA
ENDROOT
BRANCH   1  14
ATOM     10  C   LIG    1        1.588  -7.790   6.551  0.00  0.00    +0.230 A 
ATOM     11  N   LIG    1        1.198  -6.546   6.431  0.00  0.00    -0.310 NA
ATOM     12  N   LIG    1        0.955  -6.333   5.072  0.00  0.00    -0.370 N 
ATOM     13  C   LIG    1        0.502  -5.108   4.412  0.00  0.00    +0.310 C 
ATOM     14  C   LIG    1        0.788  -5.221   2.910  0.00  0.00    +0.260 C 
ATOM     15  C   LIG    1        0.244  -6.554   2.386  0.00  0.00    +0.040 C 
ATOM     16  C   LIG    1        1.087  -7.703   2.957  0.00  0.00    +0.180 C 
ATOM     17  C   LIG    1        1.222  -7.495   4.445  0.00  0.00    +0.270 A 
ATOM     18  N   LIG    1        1.601  -8.360   5.344  0.00  0.00    -0.530 NA
BRANCH  10  20
ATOM     19  C   LIG    1        1.040  -9.667   8.075  0.00  0.00    +0.050 C 
ATOM     20  C   LIG    1        1.963  -8.470   7.843  0.00  0.00    +0.090 C 
ATOM     21  C   LIG    1        3.413  -8.951   7.764  0.00  0.00    +0.050 C 
ENDBRANCH  10  20
ENDBRANCH   1  14
BRANCH   7  22
ATOM     22  C   LIG    1       -0.019   1.526   0.010  0.00  0.00    +0.440 C 
ATOM     23  F   LIG    1       -0.673   1.977   1.161  0.00  0.00    -0.170 F 
ATOM     24  F   LIG    1       -0.695   1.989  -1.123  0.00  0.00    -0.170 F 
ATOM     25  F   LIG    1        1.294   2.010   0.001  0.00  0.00    -0.180 F 
ENDBRANCH   7  22
BRANCH   7  26
ATOM     26  O   LIG    1        0.616  -0.499  -1.190  0.00  0.00    -0.510 OA
ATOM     27  H   LIG    1        1.528  -0.204  -1.314  0.00  0.00    +0.390 HD
ENDBRANCH   7  26
TORSDOF 4
