REMARK  Name = ZINCkj000005f5K0.0
REMARK                            x       y       z     vdW  Elec       q    Type
REMARK                         _______ _______ _______ _____ _____    ______ ____
ROOT
ATOM      1  C   LIG    1       -3.426   2.342   0.029  0.00  0.00    +0.480 C 
ATOM      2  O   LIG    1       -3.184   3.534   0.035  0.00  0.00    -0.610 OA
ENDROOT
BRANCH   1   8
ATOM      3  C   LIG    1        1.071   1.883   0.002  0.00  0.00    +0.200 A 
ATOM      4  C   LIG    1       -0.013   1.076   0.008  0.00  0.00    -0.090 A 
ATOM      5  C   LIG    1       -1.166   1.887   0.017  0.00  0.00    +0.480 A 
ATOM      6  N   LIG    1       -0.746   3.193   0.026  0.00  0.00    -0.480 N 
ATOM      7  H   LIG    1       -1.314   3.980   0.036  0.00  0.00    +0.460 HD
ATOM      8  N   LIG    1       -2.430   1.463   0.020  0.00  0.00    -0.650 NA
ATOM      9  N   LIG    1        0.656   3.181   0.013  0.00  0.00    -0.480 N 
ATOM     10  H   LIG    1        1.231   3.962   0.011  0.00  0.00    +0.450 HD
BRANCH   3  11
ATOM     11  C   LIG    1        2.506   1.422  -0.014  0.00  0.00    +0.130 C 
BRANCH  11  13
ATOM     12  C   LIG    1        3.042   2.817  -2.016  0.00  0.00    +0.010 C 
ATOM     13  C   LIG    1        3.017   1.393  -1.456  0.00  0.00    -0.010 C 
ATOM     14  C   LIG    1        4.430   0.808  -1.485  0.00  0.00    +0.030 C 
ENDBRANCH  11  13
ENDBRANCH   3  11
ENDBRANCH   1   8
BRANCH   1  15
ATOM     15  C   LIG    1       -4.855   1.863   0.033  0.00  0.00    +0.080 C 
BRANCH  15  16
ATOM     16  C   LIG    1       -5.797   3.069   0.043  0.00  0.00    -0.010 C 
ATOM     17  C   LIG    1       -5.680   3.858  -1.280  0.00  0.00    +0.240 C 
ATOM     18  O   LIG    1       -7.027   4.291  -1.571  0.00  0.00    -0.380 OA
ATOM     19  C   LIG    1       -7.869   3.168  -1.233  0.00  0.00    +0.130 C 
ATOM     20  C   LIG    1       -7.270   2.604   0.074  0.00  0.00    +0.050 C 
BRANCH  19  21
ATOM     21  C   LIG    1       -9.309   3.631  -1.005  0.00  0.00    +0.290 C 
BRANCH  21  22
ATOM     22  N   LIG    1       -9.873   4.121  -2.271  0.00  0.00    -0.640 N 
ATOM     23  H   LIG    1       -9.319   4.895  -2.608  0.00  0.00    +0.440 HD
ATOM     24  H   LIG    1      -10.822   4.427  -2.120  0.00  0.00    +0.440 HD
ATOM     25  H   LIG    1       -9.863   3.378  -2.953  0.00  0.00    +0.430 HD
ENDBRANCH  21  22
ENDBRANCH  19  21
ENDBRANCH  15  16
ENDBRANCH   1  15
TORSDOF 7
