REMARK  Name = ZINCrD000006Qnxh.2
REMARK                            x       y       z     vdW  Elec       q    Type
REMARK                         _______ _______ _______ _____ _____    ______ ____
ROOT
ATOM      1  N   LIG    1        2.654   1.417   3.439  0.00  0.00    -0.610 N 
ATOM      2  C   LIG    1        1.986   1.911   2.378  0.00  0.00    +0.530 C 
ATOM      3  O   LIG    1        1.219   2.839   2.523  0.00  0.00    -0.510 OA
ATOM      4  C   LIG    1        3.581   0.296   3.264  0.00  0.00    +0.270 C 
ENDROOT
BRANCH   2   5
ATOM      5  C   LIG    1        2.193   1.312   1.011  0.00  0.00    +0.130 C 
ATOM      6  C   LIG    1        3.639   1.565   0.516  0.00  0.00    +0.050 C 
ATOM      7  C   LIG    1        3.498   1.481  -1.022  0.00  0.00    +0.020 C 
ATOM      8  C   LIG    1        2.009   1.756  -1.304  0.00  0.00    +0.170 C 
ATOM      9  N   LIG    1        1.360   2.011  -0.000  0.00  0.00    -0.480 NA
BRANCH   9  10
ATOM     10  C   LIG    1       -0.018   1.503   0.010  0.00  0.00    +0.260 C 
BRANCH  10  11
ATOM     11  C   LIG    1        0.002  -0.004   0.002  0.00  0.00    -0.120 A 
ATOM     12  C   LIG    1       -0.006  -0.689  -1.199  0.00  0.00    +0.010 A 
ATOM     13  C   LIG    1        0.018  -2.071  -1.206  0.00  0.00    +0.000 A 
ATOM     14  C   LIG    1        0.039  -2.768  -0.013  0.00  0.00    +0.000 A 
ATOM     15  C   LIG    1        0.041  -2.084   1.188  0.00  0.00    +0.000 A 
ATOM     16  C   LIG    1        0.023  -0.702   1.195  0.00  0.00    +0.010 A 
ENDBRANCH  10  11
ENDBRANCH   9  10
ENDBRANCH   2   5
BRANCH   1  17
ATOM     17  C   LIG    1        2.453   2.000   4.768  0.00  0.00    +0.350 C 
BRANCH  17  20
ATOM     18  C   LIG    1        0.548  -0.485   6.886  0.00  0.00    +0.160 A 
ATOM     19  C   LIG    1        1.587   0.175   6.245  0.00  0.00    -0.050 A 
ATOM     20  C   LIG    1        1.324   1.285   5.464  0.00  0.00    -0.030 A 
ATOM     21  C   LIG    1        0.028   1.744   5.326  0.00  0.00    -0.020 A 
ATOM     22  C   LIG    1       -1.015   1.084   5.962  0.00  0.00    +0.160 A 
ATOM     23  C   LIG    1       -0.753  -0.030   6.745  0.00  0.00    -0.160 A 
BRANCH  18  25
ATOM     24  C   LIG    1       -0.309  -2.206   8.284  0.00  0.00    +0.240 C 
ATOM     25  O   LIG    1        0.807  -1.577   7.653  0.00  0.00    -0.310 OA
ENDBRANCH  18  25
BRANCH  22  26
ATOM     26  O   LIG    1       -2.290   1.532   5.821  0.00  0.00    -0.310 OA
ATOM     27  C   LIG    1       -3.312   0.808   6.508  0.00  0.00    +0.240 C 
ENDBRANCH  22  26
ENDBRANCH  17  20
ENDBRANCH   1  17
TORSDOF 7
