REMARK  Name = ZINCrH000004oioA.0
REMARK                            x       y       z     vdW  Elec       q    Type
REMARK                         _______ _______ _______ _____ _____    ______ ____
ROOT
ATOM      1  C   LIG    1        2.447   4.220   0.001  0.00  0.00    +0.070 C 
ENDROOT
BRANCH   1   2
ATOM      2  C   LIG    1        1.153   3.447   0.009  0.00  0.00    -0.040 A 
ATOM      3  C   LIG    1       -0.054   4.121   0.023  0.00  0.00    -0.030 A 
ATOM      4  C   LIG    1       -1.243   3.414   0.031  0.00  0.00    +0.050 A 
ATOM      5  C   LIG    1       -1.227   2.033   0.019  0.00  0.00    -0.080 A 
ATOM      6  C   LIG    1       -0.016   1.355   0.009  0.00  0.00    +0.130 A 
ATOM      7  C   LIG    1        1.175   2.066   0.002  0.00  0.00    -0.020 A 
BRANCH   6   8
ATOM      8  O   LIG    1        0.002  -0.004   0.002  0.00  0.00    -0.310 OA
BRANCH   8   9
ATOM      9  C   LIG    1       -1.262  -0.670   0.011  0.00  0.00    +0.240 C 
BRANCH   9  10
ATOM     10  C   LIG    1       -1.044  -2.161   0.000  0.00  0.00    -0.100 A 
ATOM     11  C   LIG    1       -0.962  -2.840  -1.201  0.00  0.00    +0.020 A 
ATOM     12  C   LIG    1       -0.757  -4.207  -1.210  0.00  0.00    +0.010 A 
ATOM     13  C   LIG    1       -0.646  -4.897  -0.018  0.00  0.00    +0.020 A 
ATOM     14  C   LIG    1       -0.734  -4.220   1.184  0.00  0.00    +0.010 A 
ATOM     15  C   LIG    1       -0.933  -2.852   1.193  0.00  0.00    +0.020 A 
ENDBRANCH   9  10
ENDBRANCH   8   9
ENDBRANCH   6   8
ENDBRANCH   1   2
BRANCH   1  16
ATOM     16  C   LIG    1        2.871   4.489  -1.444  0.00  0.00    +0.280 C 
BRANCH  16  20
ATOM     17  N   LIG    1        5.853   6.284  -2.630  0.00  0.00    -0.740 N 
ATOM     18  H   LIG    1        6.277   6.528  -1.793  0.00  0.00    +0.410 HD
ATOM     19  C   LIG    1        4.696   5.592  -2.623  0.00  0.00    +0.710 C 
ATOM     20  N   LIG    1        4.129   5.241  -1.452  0.00  0.00    -0.750 N 
ATOM     21  H   LIG    1        4.553   5.485  -0.615  0.00  0.00    +0.400 HD
ATOM     22  O   LIG    1        4.165   5.286  -3.673  0.00  0.00    -0.590 OA
BRANCH  17  24
ATOM     23  C   LIG    1        7.328   5.510  -4.421  0.00  0.00    +0.050 C 
ATOM     24  C   LIG    1        6.470   6.666  -3.903  0.00  0.00    +0.360 C 
BRANCH  24  25
ATOM     25  C   LIG    1        7.337   7.881  -3.696  0.00  0.00    +0.020 A 
ATOM     26  C   LIG    1        7.651   8.757  -4.679  0.00  0.00    -0.090 A 
ATOM     27  S   LIG    1        8.642   9.928  -3.898  0.00  0.00    +0.450 S 
ATOM     28  N   LIG    1        8.595   9.260  -2.483  0.00  0.00    -0.280 NA
ATOM     29  N   LIG    1        7.878   8.206  -2.540  0.00  0.00    -0.240 NA
ENDBRANCH  24  25
ENDBRANCH  17  24
ENDBRANCH  16  20
ENDBRANCH   1  16
TORSDOF 8
