REMARK  Name = ZINCb80000001OdU.0
REMARK                            x       y       z     vdW  Elec       q    Type
REMARK                         _______ _______ _______ _____ _____    ______ ____
ROOT
ATOM      1  C   LIG    1       -0.692   1.593   1.298  0.00  0.00    +0.070 C 
ATOM      2  C   LIG    1        0.525   1.919   2.206  0.00  0.00    +0.040 C 
ATOM      3  C   LIG    1        1.552   2.412   1.155  0.00  0.00    +0.220 C 
ATOM      4  O   LIG    1        1.328   1.590  -0.002  0.00  0.00    -0.370 OA
ATOM      5  F   LIG    1       -1.446   2.744   1.044  0.00  0.00    -0.180 F 
ATOM      6  C   LIG    1       -0.013   1.086   0.008  0.00  0.00    +0.190 C 
ATOM      7  C   LIG    1       -0.770   1.601  -1.217  0.00  0.00    +0.050 C 
ENDROOT
BRANCH   1  11
ATOM      8  C   LIG    1       -3.212  -0.233   3.528  0.00  0.00    +0.300 C 
ATOM      9  N   LIG    1       -2.381   0.815   2.929  0.00  0.00    -0.720 N 
ATOM     10  H   LIG    1       -2.431   1.724   3.264  0.00  0.00    +0.410 HD
ATOM     11  C   LIG    1       -1.547   0.515   1.914  0.00  0.00    +0.510 C 
ATOM     12  O   LIG    1       -1.484  -0.621   1.495  0.00  0.00    -0.510 OA
ENDBRANCH   1  11
TORSDOF 1
