REMARK  Name = ZINCvU00000005x5.0
REMARK                            x       y       z     vdW  Elec       q    Type
REMARK                         _______ _______ _______ _____ _____    ______ ____
ROOT
ATOM      1  C   LIG    1        6.869   0.845   5.410  0.00  0.00    +0.190 A 
ATOM      2  C   LIG    1        6.451  -0.477   5.405  0.00  0.00    -0.090 A 
ATOM      3  C   LIG    1        6.639  -1.256   4.279  0.00  0.00    +0.160 A 
ATOM      4  C   LIG    1        7.242  -0.717   3.158  0.00  0.00    -0.710 A 
ATOM      5  C   LIG    1        7.665   0.600   3.162  0.00  0.00    +0.160 A 
ATOM      6  C   LIG    1        7.475   1.384   4.284  0.00  0.00    -0.120 A 
ENDROOT
BRANCH   6   7
ATOM      7  C   LIG    1        7.930   2.820   4.286  0.00  0.00    -0.020 C 
ATOM      8  C   LIG    1        8.964   3.026   5.395  0.00  0.00    +0.040 C 
ATOM      9  C   LIG    1        6.729   3.736   4.533  0.00  0.00    +0.040 C 
ATOM     10  C   LIG    1        8.560   3.158   2.933  0.00  0.00    +0.030 C 
ENDBRANCH   6   7
BRANCH   4  11
ATOM     11  S   LIG    1        7.480  -1.712   1.723  0.00  0.00    +2.690 S 
ATOM     12  O   LIG    1        8.554  -1.124   1.001  0.00  0.00    -0.950 OA
ATOM     13  O   LIG    1        7.489  -3.061   2.168  0.00  0.00    -0.950 OA
BRANCH  11  14
ATOM     14  N   LIG    1        6.131  -1.539   0.778  0.00  0.00    -1.000 NA
ATOM     15  C   LIG    1        6.054  -0.483  -0.242  0.00  0.00    +0.310 C 
ATOM     16  C   LIG    1        4.747   0.292  -0.042  0.00  0.00    +0.190 C 
ATOM     17  N   LIG    1        3.620  -0.649  -0.037  0.00  0.00    -0.480 N 
ATOM     18  C   LIG    1        3.714  -1.587   1.090  0.00  0.00    +0.190 C 
ATOM     19  C   LIG    1        4.979  -2.439   0.937  0.00  0.00    +0.310 C 
BRANCH  17  20
ATOM     20  C   LIG    1        2.400   0.031  -0.021  0.00  0.00    +0.110 A 
ATOM     21  C   LIG    1        1.206  -0.680  -0.013  0.00  0.00    -0.010 A 
ATOM     22  C   LIG    1        0.002  -0.004   0.002  0.00  0.00    +0.030 A 
ATOM     23  C   LIG    1       -0.017   1.379   0.010  0.00  0.00    -0.030 A 
ATOM     24  C   LIG    1        1.169   2.089   0.002  0.00  0.00    +0.030 A 
ATOM     25  C   LIG    1        2.377   1.420  -0.013  0.00  0.00    -0.040 A 
ENDBRANCH  17  20
ENDBRANCH  11  14
ENDBRANCH   4  11
BRANCH   1  26
ATOM     26  O   LIG    1        6.685   1.613   6.517  0.00  0.00    -0.300 OA
BRANCH  26  27
ATOM     27  C   LIG    1        6.055   0.992   7.639  0.00  0.00    +0.190 C 
BRANCH  27  28
ATOM     28  C   LIG    1        5.936   2.004   8.781  0.00  0.00    +0.030 C 
BRANCH  28  29
ATOM     29  C   LIG    1        5.262   1.340   9.983  0.00  0.00    +0.020 C 
BRANCH  29  31
ATOM     30  C   LIG    1        4.468   1.687  12.326  0.00  0.00    +0.010 C 
ATOM     31  C   LIG    1        5.142   2.351  11.124  0.00  0.00    +0.000 C 
ENDBRANCH  29  31
ENDBRANCH  28  29
ENDBRANCH  27  28
ENDBRANCH  26  27
ENDBRANCH   1  26
TORSDOF 9
