REMARK  Name = ZINCpe00000MJLbI.1
REMARK                            x       y       z     vdW  Elec       q    Type
REMARK                         _______ _______ _______ _____ _____    ______ ____
ROOT
ATOM      1  C   LIG    1        3.944  -2.311   5.797  0.00  0.00    +0.080 C 
ATOM      2  C   LIG    1        4.573  -1.028   6.347  0.00  0.00    +0.030 C 
ATOM      3  C   LIG    1        4.502   0.069   5.280  0.00  0.00    +0.290 C 
ATOM      4  N   LIG    1        3.105   0.218   4.848  0.00  0.00    -0.610 N 
ATOM      5  C   LIG    1        2.376  -0.972   4.391  0.00  0.00    +0.270 C 
ATOM      6  C   LIG    1        2.503   1.424   4.875  0.00  0.00    +0.530 C 
ATOM      7  O   LIG    1        3.115   2.398   5.260  0.00  0.00    -0.510 OA
ATOM      8  C   LIG    1        2.472  -2.057   5.462  0.00  0.00    +0.020 C 
ENDROOT
BRANCH   6   9
ATOM      9  C   LIG    1        1.071   1.562   4.429  0.00  0.00    +0.130 C 
ATOM     10  C   LIG    1        1.031   1.856   2.923  0.00  0.00    +0.330 C 
ATOM     11  N   LIG    1       -0.338   2.227   2.567  0.00  0.00    -0.470 N 
ATOM     12  C   LIG    1       -0.927   2.284   1.360  0.00  0.00    +0.190 A 
ATOM     13  N   LIG    1       -2.163   2.670   1.554  0.00  0.00    -0.290 NA
ATOM     14  N   LIG    1       -2.371   2.848   2.814  0.00  0.00    -0.280 NA
ATOM     15  C   LIG    1       -0.284   1.968   0.034  0.00  0.00    +0.200 C 
ATOM     16  C   LIG    1       -1.284   2.594   3.472  0.00  0.00    +0.170 A 
ATOM     17  C   LIG    1       -1.026   2.669   4.956  0.00  0.00    +0.330 C 
ATOM     18  N   LIG    1        0.432   2.661   5.166  0.00  0.00    -0.520 NA
ATOM     19  C   LIG    1        0.757   2.594   6.598  0.00  0.00    +0.220 C 
ENDBRANCH   6   9
BRANCH   1  23
ATOM     20  C   LIG    1        2.911  -5.287   9.798  0.00  0.00    +0.140 C 
ATOM     21  C   LIG    1        3.577  -4.693   8.583  0.00  0.00    +0.090 A 
ATOM     22  C   LIG    1        3.141  -3.624   7.878  0.00  0.00    -0.120 A 
ATOM     23  C   LIG    1        4.042  -3.402   6.831  0.00  0.00    +0.080 A 
ATOM     24  N   LIG    1        4.982  -4.309   6.903  0.00  0.00    -0.290 NA
ATOM     25  N   LIG    1        4.714  -5.132   8.004  0.00  0.00    -0.480 N 
ATOM     26  H   LIG    1        5.248  -5.887   8.296  0.00  0.00    +0.440 HD
ENDBRANCH   1  23
TORSDOF 2
