REMARK  Name = ZINCpe00000MJLbI.0
REMARK                            x       y       z     vdW  Elec       q    Type
REMARK                         _______ _______ _______ _____ _____    ______ ____
ROOT
ATOM      1  C   LIG    1        4.614  -1.928   3.775  0.00  0.00    +0.080 C 
ATOM      2  C   LIG    1        5.300  -0.610   4.143  0.00  0.00    +0.030 C 
ATOM      3  C   LIG    1        4.512   0.076   5.263  0.00  0.00    +0.290 C 
ATOM      4  N   LIG    1        3.114   0.223   4.836  0.00  0.00    -0.610 N 
ATOM      5  C   LIG    1        2.385  -0.969   4.381  0.00  0.00    +0.270 C 
ATOM      6  C   LIG    1        2.509   1.427   4.866  0.00  0.00    +0.530 C 
ATOM      7  O   LIG    1        3.120   2.403   5.248  0.00  0.00    -0.500 OA
ATOM      8  C   LIG    1        3.199  -1.643   3.266  0.00  0.00    +0.030 C 
ENDROOT
BRANCH   6   9
ATOM      9  C   LIG    1        1.074   1.561   4.425  0.00  0.00    +0.130 C 
ATOM     10  C   LIG    1        1.029   1.882   2.925  0.00  0.00    +0.330 C 
ATOM     11  N   LIG    1       -0.344   2.249   2.578  0.00  0.00    -0.470 N 
ATOM     12  C   LIG    1       -0.936   2.323   1.374  0.00  0.00    +0.190 A 
ATOM     13  N   LIG    1       -2.174   2.696   1.577  0.00  0.00    -0.290 NA
ATOM     14  N   LIG    1       -2.381   2.849   2.841  0.00  0.00    -0.280 NA
ATOM     15  C   LIG    1       -0.293   2.037   0.041  0.00  0.00    +0.200 C 
ATOM     16  C   LIG    1       -1.290   2.592   3.492  0.00  0.00    +0.170 A 
ATOM     17  C   LIG    1       -1.030   2.643   4.976  0.00  0.00    +0.330 C 
ATOM     18  N   LIG    1        0.429   2.642   5.184  0.00  0.00    -0.520 NA
ATOM     19  C   LIG    1        0.757   2.551   6.613  0.00  0.00    +0.220 C 
ENDBRANCH   6   9
BRANCH   1  25
ATOM     20  C   LIG    1        6.803  -5.530   0.918  0.00  0.00    +0.150 C 
ATOM     21  C   LIG    1        6.369  -4.184   1.438  0.00  0.00    +0.080 A 
ATOM     22  N   LIG    1        6.675  -3.025   0.916  0.00  0.00    -0.290 NA
ATOM     23  N   LIG    1        6.078  -2.023   1.693  0.00  0.00    -0.470 N 
ATOM     24  H   LIG    1        6.138  -1.068   1.536  0.00  0.00    +0.440 HD
ATOM     25  C   LIG    1        5.405  -2.623   2.697  0.00  0.00    +0.090 A 
ATOM     26  C   LIG    1        5.572  -3.959   2.566  0.00  0.00    -0.120 A 
ENDBRANCH   1  25
TORSDOF 2
