REMARK  Name = ZINCpk00000xIkgv.0
REMARK                            x       y       z     vdW  Elec       q    Type
REMARK                         _______ _______ _______ _____ _____    ______ ____
ROOT
ATOM      1  O   LIG    1       -0.922  -0.494   2.014  0.00  0.00    -0.510 OA
ATOM      2  C   LIG    1       -1.121   0.694   2.155  0.00  0.00    +0.530 C 
ATOM      3  N   LIG    1       -0.707   1.563   1.212  0.00  0.00    -0.600 N 
ATOM      4  C   LIG    1       -0.013   1.086   0.008  0.00  0.00    +0.290 C 
ATOM      5  C   LIG    1       -0.761   1.597  -1.229  0.00  0.00    +0.290 C 
ATOM      6  N   LIG    1       -0.997   3.039  -1.073  0.00  0.00    -0.990 NA
ATOM      7  C   LIG    1       -1.695   3.517   0.130  0.00  0.00    +0.290 C 
ATOM      8  C   LIG    1       -0.947   3.005   1.367  0.00  0.00    +0.280 C 
ENDROOT
BRANCH   6   9
ATOM      9  S   LIG    1       -0.484   4.108  -2.229  0.00  0.00    +2.690 S 
ATOM     10  O   LIG    1        0.578   3.469  -2.923  0.00  0.00    -0.930 OA
ATOM     11  O   LIG    1       -0.345   5.364  -1.581  0.00  0.00    -0.940 OA
BRANCH   9  12
ATOM     12  C   LIG    1       -1.798   4.290  -3.390  0.00  0.00    -0.670 A 
ATOM     13  C   LIG    1       -2.433   5.509  -3.529  0.00  0.00    +0.150 A 
ATOM     14  C   LIG    1       -3.463   5.653  -4.440  0.00  0.00    +0.030 A 
ATOM     15  C   LIG    1       -3.860   4.577  -5.212  0.00  0.00    +0.110 A 
ATOM     16  C   LIG    1       -3.225   3.356  -5.073  0.00  0.00    -0.050 A 
ATOM     17 CL   LIG    1       -3.723   2.004  -6.042  0.00  0.00    -0.030 Cl
ATOM     18  C   LIG    1       -2.190   3.213  -4.165  0.00  0.00    +0.050 A 
ATOM     19 CL   LIG    1       -1.388   1.683  -3.996  0.00  0.00    -0.020 Cl
ENDBRANCH   9  12
ENDBRANCH   6   9
BRANCH   2  20
ATOM     20  C   LIG    1       -1.832   1.198   3.385  0.00  0.00    +0.000 C 
ATOM     21  C   LIG    1       -1.097   1.085   4.721  0.00  0.00    +0.160 C 
ATOM     22  C   LIG    1       -2.278   0.161   4.418  0.00  0.00    +0.120 C 
BRANCH  22  23
ATOM     23  N   LIG    1       -1.981  -1.246   4.136  0.00  0.00    +0.010 N 
ATOM     24  O   LIG    1       -2.888  -2.053   4.044  0.00  0.00    -0.180 OA
ATOM     25  O   LIG    1       -0.826  -1.608   3.994  0.00  0.00    -0.110 OA
ENDBRANCH  22  23
ENDBRANCH   2  20
TORSDOF 4
