REMARK  Name = ZINCc70000006cPa.0
REMARK                            x       y       z     vdW  Elec       q    Type
REMARK                         _______ _______ _______ _____ _____    ______ ____
ROOT
ATOM      1  C   LIG    1       -2.482   0.853   0.018  0.00  0.00    +0.230 C 
ENDROOT
BRANCH   1   5
ATOM      2  C   LIG    1        1.248   1.716  -0.001  0.00  0.00    +0.280 C 
ATOM      3  N   LIG    1       -0.011   0.966   0.007  0.00  0.00    -0.730 N 
ATOM      4  H   LIG    1        0.002  -0.004   0.002  0.00  0.00    +0.400 HD
ATOM      5  C   LIG    1       -1.187   1.624   0.017  0.00  0.00    +0.480 C 
ATOM      6  O   LIG    1       -1.204   2.837   0.023  0.00  0.00    -0.530 OA
ENDBRANCH   1   5
BRANCH   1   7
ATOM      7  O   LIG    1       -3.578   1.761   0.146  0.00  0.00    -0.530 OA
ATOM      8  H   LIG    1       -3.634   2.412  -0.567  0.00  0.00    +0.390 HD
ENDBRANCH   1   7
BRANCH   1   9
ATOM      9  C   LIG    1       -2.615   0.075  -1.292  0.00  0.00    +0.060 C 
BRANCH   9  10
ATOM     10  C   LIG    1       -3.866  -0.804  -1.240  0.00  0.00    +0.000 C 
ATOM     11  C   LIG    1       -4.982  -0.505  -2.243  0.00  0.00    +0.080 C 
ATOM     12  C   LIG    1       -4.112  -1.752  -2.415  0.00  0.00    +0.190 C 
ATOM     13  F   LIG    1       -4.698  -2.991  -2.133  0.00  0.00    -0.160 F 
ATOM     14  F   LIG    1       -3.177  -1.749  -3.455  0.00  0.00    -0.160 F 
ENDBRANCH   9  10
ENDBRANCH   1   9
TORSDOF 4
