REMARK  Name = ZINCpk00000yQIpe.0
REMARK                            x       y       z     vdW  Elec       q    Type
REMARK                         _______ _______ _______ _____ _____    ______ ____
ROOT
ATOM      1  N   LIG    1       -0.169  -4.602  -2.418  0.00  0.00    -0.690 NA
ATOM      2  H   LIG    1       -0.132  -3.662  -2.652  0.00  0.00    +0.410 HD
ENDROOT
BRANCH   1   7
ATOM      3  N   LIG    1        0.249  -4.186  -0.044  0.00  0.00    -0.370 N 
ATOM      4  N   LIG    1        0.286  -5.039   1.073  0.00  0.00    -0.090 NA
ATOM      5  N   LIG    1        0.030  -6.228   0.644  0.00  0.00    -0.010 NA
ATOM      6  N   LIG    1       -0.157  -6.214  -0.627  0.00  0.00    -0.350 NA
ATOM      7  C   LIG    1       -0.035  -4.992  -1.097  0.00  0.00    +0.500 C 
BRANCH   3  12
ATOM      8  C   LIG    1        1.122   1.422  -0.129  0.00  0.00    +0.100 C 
ATOM      9  C   LIG    1        0.890  -0.067  -0.106  0.00  0.00    -0.070 A 
ATOM     10  C   LIG    1        1.502  -0.875  -1.048  0.00  0.00    +0.040 A 
ATOM     11  C   LIG    1        1.295  -2.240  -1.026  0.00  0.00    +0.010 A 
ATOM     12  C   LIG    1        0.464  -2.801  -0.065  0.00  0.00    +0.120 A 
ATOM     13  C   LIG    1       -0.152  -1.986   0.875  0.00  0.00    +0.050 A 
ATOM     14  C   LIG    1        0.062  -0.622   0.852  0.00  0.00    +0.040 A 
ENDBRANCH   3  12
ENDBRANCH   1   7
BRANCH   1  15
ATOM     15  C   LIG    1       -0.368  -5.610  -3.462  0.00  0.00    +0.270 C 
ATOM     16  C   LIG    1        0.106  -5.060  -4.824  0.00  0.00    +0.060 C 
ATOM     17  C   LIG    1       -1.184  -4.514  -5.483  0.00  0.00    -0.020 C 
ATOM     18  C   LIG    1       -2.251  -5.555  -5.061  0.00  0.00    +0.010 C 
ATOM     19  C   LIG    1       -1.866  -5.925  -3.612  0.00  0.00    +0.150 C 
BRANCH  19  20
ATOM     20  O   LIG    1       -2.099  -7.317  -3.384  0.00  0.00    -0.550 OA
ATOM     21  H   LIG    1       -3.026  -7.579  -3.464  0.00  0.00    +0.380 HD
ENDBRANCH  19  20
BRANCH  17  22
ATOM     22  C   LIG    1       -1.040  -4.474  -7.006  0.00  0.00    +0.310 C 
BRANCH  22  23
ATOM     23  N   LIG    1       -2.225  -3.844  -7.593  0.00  0.00    -0.460 N 
ATOM     24  C   LIG    1       -2.395  -2.509  -7.845  0.00  0.00    +0.110 A 
ATOM     25  C   LIG    1       -3.621  -2.367  -8.383  0.00  0.00    +0.140 A 
ATOM     26  N   LIG    1       -4.185  -3.582  -8.457  0.00  0.00    -0.500 NA
ATOM     27  C   LIG    1       -3.352  -4.472  -7.990  0.00  0.00    +0.380 A 
ENDBRANCH  22  23
ENDBRANCH  17  22
ENDBRANCH   1  15
TORSDOF 6
