REMARK  Name = ZINCah0000002kM3.0
REMARK                            x       y       z     vdW  Elec       q    Type
REMARK                         _______ _______ _______ _____ _____    ______ ____
ROOT
ATOM      1  C   LIG    1        1.839   3.189   0.001  0.00  0.00    +0.170 C 
ATOM      2  C   LIG    1        1.325   1.772  -0.001  0.00  0.00    +0.040 A 
ATOM      3  N   LIG    1        2.058   0.688  -0.014  0.00  0.00    -0.250 NA
ATOM      4  N   LIG    1        1.323  -0.366  -0.013  0.00  0.00    -0.260 N 
ATOM      5  C   LIG    1        0.002  -0.004   0.002  0.00  0.00    -0.080 A 
ATOM      6  C   LIG    1        1.822  -1.743  -0.025  0.00  0.00    +0.380 C 
ATOM      7  C   LIG    1       -0.017   1.386   0.010  0.00  0.00    -0.080 A 
ATOM      8 CL   LIG    1       -1.411   2.420   0.022  0.00  0.00    -0.000 Cl
ENDROOT
BRANCH   5   9
ATOM      9  C   LIG    1       -1.154  -0.898   0.008  0.00  0.00    +0.520 C 
ATOM     10  O   LIG    1       -2.277  -0.439   0.021  0.00  0.00    -0.430 OA
ENDBRANCH   5   9
TORSDOF 1
