REMARK  Name = ZINCAx0000000hFv.0
REMARK                            x       y       z     vdW  Elec       q    Type
REMARK                         _______ _______ _______ _____ _____    ______ ____
ROOT
ATOM      1  C   LIG    1       -0.847   1.978   0.436  0.00  0.00    +0.570 C 
ATOM      2  N   LIG    1        0.240   1.202   0.251  0.00  0.00    -0.520 N 
ATOM      3  O   LIG    1       -1.903   1.474   0.769  0.00  0.00    -0.490 OA
ENDROOT
BRANCH   1   7
ATOM      4  C   LIG    1        1.206   6.403   1.516  0.00  0.00    +0.140 C 
ATOM      5  C   LIG    1        0.215   5.576   0.738  0.00  0.00    +0.200 A 
ATOM      6  C   LIG    1        0.157   4.208   0.957  0.00  0.00    -0.050 A 
ATOM      7  C   LIG    1       -0.755   3.439   0.236  0.00  0.00    +0.020 A 
ATOM      8  C   LIG    1       -1.592   4.103  -0.688  0.00  0.00    -0.190 A 
ATOM      9  C   LIG    1       -2.609   3.677  -1.568  0.00  0.00    +0.120 A 
ATOM     10  N   LIG    1       -3.068   4.716  -2.206  0.00  0.00    -0.240 NA
ATOM     11  N   LIG    1       -2.388   5.866  -1.788  0.00  0.00    -0.390 N 
ATOM     12  C   LIG    1       -2.622   7.227  -2.276  0.00  0.00    +0.360 C 
ATOM     13  C   LIG    1       -3.086   2.258  -1.741  0.00  0.00    +0.160 C 
ATOM     14  C   LIG    1       -1.467   5.498  -0.842  0.00  0.00    +0.320 A 
ATOM     15  N   LIG    1       -0.575   6.171  -0.129  0.00  0.00    -0.490 NA
ENDBRANCH   1   7
BRANCH   2  16
ATOM     16  C   LIG    1        0.130  -0.200   0.344  0.00  0.00    -0.140 A 
ATOM     17  C   LIG    1        0.758  -0.887   1.363  0.00  0.00    +0.490 A 
ATOM     18  N   LIG    1        0.627  -2.255   1.430  0.00  0.00    -0.530 N 
ATOM     19  C   LIG    1       -0.095  -2.916   0.507  0.00  0.00    +0.710 A 
ATOM     20  N   LIG    1       -0.709  -2.264  -0.496  0.00  0.00    -0.660 N 
ATOM     21  H   LIG    1       -1.223  -2.764  -1.149  0.00  0.00    +0.430 HD
ATOM     22  O   LIG    1       -0.194  -4.126   0.582  0.00  0.00    -0.530 OA
ATOM     23  C   LIG    1       -0.617  -0.924  -0.605  0.00  0.00    +0.570 A 
ATOM     24  O   LIG    1       -1.177  -0.343  -1.518  0.00  0.00    -0.510 OA
BRANCH  17  25
ATOM     25  N   LIG    1        1.500  -0.213   2.302  0.00  0.00    -0.830 N 
ATOM     26  H   LIG    1        1.891  -0.694   3.049  0.00  0.00    +0.410 HD
ATOM     27  H   LIG    1        1.633   0.744   2.219  0.00  0.00    +0.420 HD
ENDBRANCH  17  25
BRANCH  18  28
ATOM     28  C   LIG    1        1.283  -2.997   2.510  0.00  0.00    +0.370 C 
BRANCH  28  29
ATOM     29  C   LIG    1        2.670  -3.395   2.075  0.00  0.00    -0.130 A 
ATOM     30  C   LIG    1        2.874  -4.606   1.439  0.00  0.00    +0.040 A 
ATOM     31  C   LIG    1        4.145  -4.970   1.036  0.00  0.00    +0.010 A 
ATOM     32  C   LIG    1        5.214  -4.127   1.277  0.00  0.00    +0.030 A 
ATOM     33  C   LIG    1        5.011  -2.919   1.918  0.00  0.00    +0.010 A 
ATOM     34  C   LIG    1        3.739  -2.553   2.316  0.00  0.00    +0.020 A 
ENDBRANCH  28  29
ENDBRANCH  18  28
ENDBRANCH   2  16
BRANCH   2  35
ATOM     35  C   LIG    1        1.535   1.817  -0.054  0.00  0.00    +0.260 C 
BRANCH  35  36
ATOM     36  C   LIG    1        1.633   2.080  -1.558  0.00  0.00    +0.010 C 
BRANCH  36  37
ATOM     37  C   LIG    1        2.985   2.721  -1.876  0.00  0.00    -0.020 C 
ATOM     38  C   LIG    1        3.035   3.098  -3.358  0.00  0.00    +0.020 C 
ATOM     39  C   LIG    1        4.107   1.728  -1.565  0.00  0.00    +0.010 C 
ENDBRANCH  36  37
ENDBRANCH  35  36
ENDBRANCH   2  35
TORSDOF 8
