REMARK  Name = ZINCvU0000000CkC.0
REMARK                            x       y       z     vdW  Elec       q    Type
REMARK                         _______ _______ _______ _____ _____    ______ ____
ROOT
ATOM      1  C   LIG    1        0.483   7.537   0.457  0.00  0.00    -0.010 A 
ATOM      2  N   LIG    1        0.768   6.263   0.657  0.00  0.00    -0.250 NA
ATOM      3  N   LIG    1       -0.093   5.517   0.060  0.00  0.00    -0.230 N 
ATOM      4  C   LIG    1       -1.019   6.286  -0.562  0.00  0.00    +0.020 A 
ATOM      5  C   LIG    1       -2.220   5.821  -1.344  0.00  0.00    +0.120 C 
ATOM      6  C   LIG    1       -2.296   6.601  -2.660  0.00  0.00    +0.030 C 
ATOM      7  C   LIG    1       -3.099   7.883  -2.456  0.00  0.00    +0.010 C 
ATOM      8  C   LIG    1       -2.885   8.440  -1.051  0.00  0.00    +0.020 C 
ATOM      9  C   LIG    1       -1.405   8.788  -0.856  0.00  0.00    +0.120 C 
ATOM     10  C   LIG    1       -0.679   7.576  -0.341  0.00  0.00    -0.120 A 
ENDROOT
BRANCH   3  11
ATOM     11  C   LIG    1       -0.079   4.115   0.057  0.00  0.00    +0.120 A 
ATOM     12  C   LIG    1        1.130   3.432   0.039  0.00  0.00    +0.080 A 
ATOM     13  C   LIG    1        1.142   2.051   0.037  0.00  0.00    +0.020 A 
ATOM     14  C   LIG    1       -0.051   1.348   0.055  0.00  0.00    +0.110 A 
ATOM     15  C   LIG    1       -1.258   2.027   0.068  0.00  0.00    +0.020 A 
ATOM     16  F   LIG    1       -0.038  -0.003   0.053  0.00  0.00    -0.130 F 
ATOM     17  C   LIG    1       -1.274   3.408   0.075  0.00  0.00    +0.060 A 
ENDBRANCH   3  11
BRANCH   1  20
ATOM     18  N   LIG    1        2.333   8.508   1.729  0.00  0.00    -0.650 N 
ATOM     19  H   LIG    1        2.595   7.610   1.987  0.00  0.00    +0.420 HD
ATOM     20  C   LIG    1        1.233   8.699   0.975  0.00  0.00    +0.610 C 
ATOM     21  O   LIG    1        0.859   9.827   0.720  0.00  0.00    -0.510 OA
BRANCH  18  24
ATOM     22  C   LIG    1        3.238  11.896   2.851  0.00  0.00    +0.120 A 
ATOM     23  C   LIG    1        2.479  10.811   2.442  0.00  0.00    -0.010 A 
ATOM     24  C   LIG    1        3.099   9.607   2.142  0.00  0.00    +0.160 A 
ATOM     25  C   LIG    1        4.481   9.489   2.258  0.00  0.00    +0.080 A 
ATOM     26  C   LIG    1        5.237  10.578   2.662  0.00  0.00    +0.010 A 
ATOM     27  C   LIG    1        4.617  11.778   2.960  0.00  0.00    -0.050 A 
ATOM     28 CL   LIG    1        5.565  13.139   3.472  0.00  0.00    -0.050 Cl
BRANCH  22  30
ATOM     29  C   LIG    1        1.210  13.128   3.010  0.00  0.00    +0.240 C 
ATOM     30  O   LIG    1        2.632  13.078   3.144  0.00  0.00    -0.300 OA
ENDBRANCH  22  30
BRANCH  25  31
ATOM     31  O   LIG    1        5.091   8.308   1.969  0.00  0.00    -0.310 OA
ATOM     32  C   LIG    1        6.512   8.259   2.110  0.00  0.00    +0.250 C 
ENDBRANCH  25  31
ENDBRANCH  18  24
ENDBRANCH   1  20
TORSDOF 5
