REMARK  Name = ZINCnE000001QIJA.0
REMARK                            x       y       z     vdW  Elec       q    Type
REMARK                         _______ _______ _______ _____ _____    ______ ____
ROOT
ATOM      1  C   LIG    1       -1.171  -0.885   0.009  0.00  0.00    +0.590 C 
ATOM      2  N   LIG    1       -2.407  -0.360   0.125  0.00  0.00    -0.600 N 
ATOM      3  C   LIG    1       -2.604   1.095   0.142  0.00  0.00    +0.250 C 
ATOM      4  C   LIG    1       -3.407   1.474   1.385  0.00  0.00    +0.020 C 
ATOM      5  C   LIG    1       -4.705   0.664   1.418  0.00  0.00    +0.020 C 
ATOM      6  C   LIG    1       -4.374  -0.829   1.491  0.00  0.00    -0.030 C 
ATOM      7  C   LIG    1       -3.582  -1.234   0.244  0.00  0.00    +0.290 C 
ATOM      8  O   LIG    1       -1.027  -2.090  -0.075  0.00  0.00    -0.520 OA
ENDROOT
BRANCH   1  11
ATOM      9  C   LIG    1        1.334  -1.290   1.686  0.00  0.00    +0.170 C 
ATOM     10  C   LIG    1        1.132  -0.154   0.717  0.00  0.00    +0.140 A 
ATOM     11  C   LIG    1        0.001  -0.003  -0.017  0.00  0.00    -0.290 A 
ATOM     12  S   LIG    1        0.191   1.443  -1.006  0.00  0.00    +0.170 S 
ATOM     13  C   LIG    1        1.748   1.700  -0.347  0.00  0.00    +0.060 A 
ATOM     14  N   LIG    1        2.033   0.773   0.510  0.00  0.00    -0.470 NA
BRANCH  13  15
ATOM     15  C   LIG    1        2.659   2.843  -0.714  0.00  0.00    +0.010 C 
ATOM     16  C   LIG    1        2.964   3.673   0.535  0.00  0.00    +0.070 C 
ATOM     17  C   LIG    1        1.974   3.727  -1.758  0.00  0.00    +0.040 C 
ATOM     18  C   LIG    1        3.964   2.291  -1.290  0.00  0.00    +0.070 C 
ENDBRANCH  13  15
ENDBRANCH   1  11
BRANCH   6  19
ATOM     19  C   LIG    1       -5.672  -1.636   1.557  0.00  0.00    +0.040 C 
BRANCH  19  20
ATOM     20  C   LIG    1       -5.341  -3.118   1.751  0.00  0.00    -0.080 C 
BRANCH  20  21
ATOM     21  C   LIG    1       -6.619  -3.913   1.816  0.00  0.00    +0.490 C 
ATOM     22  O   LIG    1       -6.578  -5.122   1.968  0.00  0.00    -0.710 OA
ATOM     23  O   LIG    1       -7.695  -3.348   1.716  0.00  0.00    -0.700 OA
ENDBRANCH  20  21
ENDBRANCH  19  20
ENDBRANCH   6  19
TORSDOF 5
