REMARK  Name = ZINCnE000001HU5T.0
REMARK                            x       y       z     vdW  Elec       q    Type
REMARK                         _______ _______ _______ _____ _____    ______ ____
ROOT
ATOM      1  C   LIG    1        1.978  -4.620  -3.180  0.00  0.00    -0.030 A 
ATOM      2  C   LIG    1        1.888  -4.099  -1.930  0.00  0.00    +0.140 A 
ATOM      3  C   LIG    1        2.104  -5.139  -1.015  0.00  0.00    +0.110 A 
ATOM      4  N   LIG    1        2.307  -6.244  -1.686  0.00  0.00    -0.290 NA
ATOM      5  N   LIG    1        2.237  -5.949  -3.054  0.00  0.00    -0.380 N 
ENDROOT
BRANCH   5   6
ATOM      6  C   LIG    1        2.412  -6.902  -4.152  0.00  0.00    +0.260 C 
ATOM      7  C   LIG    1        1.397  -8.056  -4.018  0.00  0.00    +0.020 C 
ATOM      8  C   LIG    1        2.182  -9.308  -4.479  0.00  0.00    +0.020 C 
ATOM      9  C   LIG    1        3.598  -9.055  -3.905  0.00  0.00    +0.010 C 
ATOM     10  C   LIG    1        3.812  -7.537  -4.081  0.00  0.00    +0.020 C 
ENDBRANCH   5   6
BRANCH   1  12
ATOM     11  C   LIG    1        0.349  -3.882  -4.898  0.00  0.00    -0.000 C 
ATOM     12  C   LIG    1        1.819  -3.863  -4.474  0.00  0.00    +0.100 C 
ENDBRANCH   1  12
BRANCH   2  13
ATOM     13  N   LIG    1        1.630  -2.753  -1.609  0.00  0.00    -1.070 NA
BRANCH  13  14
ATOM     14  S   LIG    1        1.552  -2.280  -0.025  0.00  0.00    +2.620 S 
ATOM     15  O   LIG    1        0.407  -2.914   0.528  0.00  0.00    -1.030 OA
ATOM     16  O   LIG    1        2.861  -2.439   0.506  0.00  0.00    -1.040 OA
BRANCH  14  17
ATOM     17  C   LIG    1        1.218  -0.550  -0.013  0.00  0.00    -0.710 A 
ATOM     18  C   LIG    1        0.002  -0.004   0.002  0.00  0.00    +0.170 A 
ATOM     19  C   LIG    1       -0.017   1.382   0.010  0.00  0.00    -0.060 A 
ATOM     20  C   LIG    1        1.191   1.959   0.001  0.00  0.00    +0.030 A 
ATOM     21  S   LIG    1        2.437   0.717  -0.017  0.00  0.00    +0.170 S 
BRANCH  20  22
ATOM     22  O   LIG    1        1.420   3.299   0.005  0.00  0.00    -0.280 OA
ATOM     23  C   LIG    1        2.784   3.724  -0.005  0.00  0.00    +0.250 C 
ENDBRANCH  20  22
ENDBRANCH  14  17
ENDBRANCH  13  14
ENDBRANCH   2  13
TORSDOF 6
