REMARK  Name = ZINCtV00000tRPTQ.0
REMARK                            x       y       z     vdW  Elec       q    Type
REMARK                         _______ _______ _______ _____ _____    ______ ____
ROOT
ATOM      1  C   LIG    1        3.121   1.151  -0.206  0.00  0.00    +0.320 C 
ATOM      2  N   LIG    1        2.397   2.138   0.011  0.00  0.00    -0.590 NA
ATOM      3  C   LIG    1        1.131   2.545   0.102  0.00  0.00    +0.170 A 
ATOM      4  C   LIG    1        0.970   3.945   0.221  0.00  0.00    +0.050 A 
ATOM      5  C   LIG    1       -0.271   4.524   0.289  0.00  0.00    +0.020 A 
ATOM      6  C   LIG    1       -1.404   3.729   0.243  0.00  0.00    +0.030 A 
ATOM      7  C   LIG    1       -1.272   2.364   0.146  0.00  0.00    +0.040 A 
ATOM      8  C   LIG    1       -0.015   1.750   0.077  0.00  0.00    -0.130 A 
ATOM      9  S   LIG    1       -0.003   0.004  -0.027  0.00  0.00    -0.070 S 
ATOM     10  C   LIG    1        1.407  -0.455  -1.024  0.00  0.00    +0.050 C 
ATOM     11  C   LIG    1        2.725  -0.278  -0.327  0.00  0.00    +0.070 C 
ENDROOT
BRANCH   1  15
ATOM     12  C   LIG    1        7.260   1.963  -0.664  0.00  0.00    +0.150 A 
ATOM     13  C   LIG    1        6.352   3.013  -0.589  0.00  0.00    -0.030 A 
ATOM     14  C   LIG    1        5.008   2.755  -0.441  0.00  0.00    +0.110 A 
ATOM     15  C   LIG    1        4.556   1.433  -0.365  0.00  0.00    -0.120 A 
ATOM     16  C   LIG    1        5.474   0.380  -0.435  0.00  0.00    +0.080 A 
ATOM     17  C   LIG    1        6.816   0.648  -0.589  0.00  0.00    -0.090 A 
BRANCH  12  19
ATOM     18  C   LIG    1        9.462   1.098  -0.880  0.00  0.00    +0.240 C 
ATOM     19  O   LIG    1        8.584   2.223  -0.810  0.00  0.00    -0.310 OA
ENDBRANCH  12  19
ENDBRANCH   1  15
BRANCH  10  20
ATOM     20  C   LIG    1        1.266  -1.902  -1.420  0.00  0.00    -0.070 A 
ATOM     21  C   LIG    1        1.196  -2.880  -0.446  0.00  0.00    +0.030 A 
ATOM     22  C   LIG    1        1.066  -4.209  -0.805  0.00  0.00    -0.030 A 
ATOM     23  C   LIG    1        1.006  -4.562  -2.143  0.00  0.00    +0.110 A 
ATOM     24  C   LIG    1        1.077  -3.578  -3.124  0.00  0.00    +0.100 A 
ATOM     25  C   LIG    1        1.201  -2.247  -2.757  0.00  0.00    -0.010 A 
BRANCH  24  26
ATOM     26  O   LIG    1        1.018  -3.920  -4.439  0.00  0.00    -0.300 OA
ATOM     27  C   LIG    1        1.097  -2.856  -5.390  0.00  0.00    +0.240 C 
ENDBRANCH  24  26
BRANCH  23  28
ATOM     28  O   LIG    1        0.878  -5.869  -2.497  0.00  0.00    -0.300 OA
ATOM     29  C   LIG    1        0.811  -6.825  -1.437  0.00  0.00    +0.240 C 
ENDBRANCH  23  28
ENDBRANCH  10  20
TORSDOF 5
