REMARK  Name = ZINCpe00000FU6yg.0
REMARK                            x       y       z     vdW  Elec       q    Type
REMARK                         _______ _______ _______ _____ _____    ______ ____
ROOT
ATOM      1  C   LIG    1       -2.863   5.542  -2.896  0.00  0.00    +0.590 C 
ATOM      2  N   LIG    1       -2.261   4.521  -2.255  0.00  0.00    -0.650 N 
ATOM      3  C   LIG    1       -0.853   4.136  -2.019  0.00  0.00    +0.380 C 
ATOM      4  C   LIG    1       -1.386   3.371  -0.809  0.00  0.00    -0.580 C 
ATOM      5  C   LIG    1       -0.739   2.012  -0.531  0.00  0.00    +0.030 C 
ATOM      6  C   LIG    1        0.255   2.172   0.636  0.00  0.00    +0.110 C 
ATOM      7  C   LIG    1       -0.471   2.989   1.738  0.00  0.00    -0.280 C 
ATOM      8  S   LIG    1       -1.341   4.281   0.768  0.00  0.00    +2.410 S 
ATOM      9  O   LIG    1       -2.665   4.435   1.262  0.00  0.00    -0.920 OA
ATOM     10  O   LIG    1       -0.499   5.418   0.634  0.00  0.00    -0.910 OA
ATOM     11  C   LIG    1       -2.744   3.341  -1.508  0.00  0.00    +0.370 C 
ATOM     12  O   LIG    1       -2.194   6.392  -3.450  0.00  0.00    -0.510 OA
ENDROOT
BRANCH   1  17
ATOM     13  C   LIG    1       -8.609   5.874  -3.008  0.00  0.00    +0.110 C 
ATOM     14  C   LIG    1       -7.105   5.787  -2.980  0.00  0.00    -0.090 A 
ATOM     15  C   LIG    1       -6.489   4.675  -2.436  0.00  0.00    +0.040 A 
ATOM     16  C   LIG    1       -5.112   4.590  -2.406  0.00  0.00    +0.030 A 
ATOM     17  C   LIG    1       -4.339   5.628  -2.926  0.00  0.00    -0.110 A 
ATOM     18  C   LIG    1       -4.964   6.752  -3.469  0.00  0.00    +0.060 A 
ATOM     19  C   LIG    1       -6.344   6.823  -3.498  0.00  0.00    +0.090 A 
ATOM     20  F   LIG    1       -6.952   7.907  -4.028  0.00  0.00    -0.130 F 
ENDBRANCH   1  17
BRANCH   5  21
ATOM     21  C   LIG    1       -0.007   1.538  -1.760  0.00  0.00    +0.530 C 
ATOM     22  N   LIG    1       -0.498   0.513  -2.483  0.00  0.00    -0.620 N 
ATOM     23  C   LIG    1       -1.681  -0.214  -2.015  0.00  0.00    +0.290 C 
ATOM     24  C   LIG    1        0.150   0.125  -3.739  0.00  0.00    +0.290 C 
ATOM     25  O   LIG    1        1.025   2.079  -2.097  0.00  0.00    -0.520 OA
ENDBRANCH   5  21
TORSDOF 2
