REMARK  Name = ZINCrg000000nIEt.0
REMARK                            x       y       z     vdW  Elec       q    Type
REMARK                         _______ _______ _______ _____ _____    ______ ____
ROOT
ATOM      1  O   LIG    1        0.165  -0.811   0.712  0.00  0.00    -0.350 OA
ENDROOT
BRANCH   1   2
ATOM      2  C   LIG    1        0.691  -2.016   0.987  0.00  0.00    +0.450 C 
ATOM      3  O   LIG    1        0.772  -2.852   0.118  0.00  0.00    -0.490 OA
BRANCH   2   8
ATOM      4  N   LIG    1        1.138  -3.776   2.612  0.00  0.00    -1.000 NA
ATOM      5  C   LIG    1        2.513  -4.249   2.874  0.00  0.00    +0.280 C 
ATOM      6  C   LIG    1        3.268  -3.002   3.398  0.00  0.00    +0.040 C 
ATOM      7  C   LIG    1        2.647  -1.875   2.532  0.00  0.00    +0.060 C 
ATOM      8  C   LIG    1        1.179  -2.325   2.378  0.00  0.00    +0.280 C 
BRANCH   4   9
ATOM      9  S   LIG    1       -0.223  -4.719   2.586  0.00  0.00    +2.620 S 
ATOM     10  O   LIG    1        0.233  -5.978   2.107  0.00  0.00    -0.940 OA
ATOM     11  O   LIG    1       -1.166  -3.953   1.849  0.00  0.00    -0.940 OA
BRANCH   9  12
ATOM     12  C   LIG    1       -0.722  -4.843   4.325  0.00  0.00    -0.370 C 
BRANCH  12  14
ATOM     13  C   LIG    1       -2.383  -5.835   5.905  0.00  0.00    +0.030 C 
ATOM     14  C   LIG    1       -1.962  -5.731   4.438  0.00  0.00    +0.040 C 
ENDBRANCH  12  14
ENDBRANCH   9  12
ENDBRANCH   4   9
ENDBRANCH   2   8
ENDBRANCH   1   2
BRANCH   1  15
ATOM     15  C   LIG    1       -0.285  -0.584  -0.649  0.00  0.00    +0.230 C 
BRANCH  15  16
ATOM     16  C   LIG    1       -0.849   0.834  -0.770  0.00  0.00    +0.340 C 
BRANCH  16  17
ATOM     17  N   LIG    1        0.224   1.806  -0.548  0.00  0.00    -0.580 N 
ATOM     18  C   LIG    1        0.551   2.318   0.652  0.00  0.00    +0.580 C 
ATOM     19  C   LIG    1        1.678   3.258   0.472  0.00  0.00    -0.140 A 
ATOM     20  C   LIG    1        2.417   4.058   1.328  0.00  0.00    +0.100 A 
ATOM     21  C   LIG    1        3.436   4.850   0.821  0.00  0.00    +0.050 A 
ATOM     22  C   LIG    1        3.717   4.848  -0.532  0.00  0.00    +0.040 A 
ATOM     23  C   LIG    1        2.986   4.052  -1.401  0.00  0.00    +0.100 A 
ATOM     24  C   LIG    1        1.966   3.255  -0.908  0.00  0.00    -0.140 A 
ATOM     25  O   LIG    1        0.013   2.051   1.708  0.00  0.00    -0.450 OA
ATOM     26  C   LIG    1        1.008   2.310  -1.519  0.00  0.00    +0.570 C 
ATOM     27  O   LIG    1        0.940   2.033  -2.699  0.00  0.00    -0.460 OA
ENDBRANCH  16  17
ENDBRANCH  15  16
ENDBRANCH   1  15
TORSDOF 8
