REMARK  Name = ZINCpe00000bEMyp.0
REMARK                            x       y       z     vdW  Elec       q    Type
REMARK                         _______ _______ _______ _____ _____    ______ ____
ROOT
ATOM      1  C   LIG    1       -4.228   5.745  -0.741  0.00  0.00    +0.270 C 
ENDROOT
BRANCH   1   2
ATOM      2  N   LIG    1       -3.700   5.402  -2.064  0.00  0.00    -0.720 N 
ATOM      3  H   LIG    1       -3.356   4.511  -2.233  0.00  0.00    +0.400 HD
ATOM      4  C   LIG    1       -3.693   6.325  -3.046  0.00  0.00    +0.600 C 
ATOM      5  O   LIG    1       -4.125   7.443  -2.834  0.00  0.00    -0.540 OA
BRANCH   4   6
ATOM      6  C   LIG    1       -3.165   5.982  -4.372  0.00  0.00    -0.280 A 
ATOM      7  C   LIG    1       -3.091   6.832  -5.489  0.00  0.00    +0.100 A 
ATOM      8  C   LIG    1       -3.455   8.166  -5.718  0.00  0.00    +0.370 A 
ATOM      9  N   LIG    1       -3.257   8.700  -6.903  0.00  0.00    -0.440 NA
ATOM     10  C   LIG    1       -2.714   7.992  -7.893  0.00  0.00    +0.220 A 
ATOM     11  C   LIG    1       -2.349   6.702  -7.717  0.00  0.00    +0.260 A 
ATOM     12  N   LIG    1       -2.534   6.105  -6.505  0.00  0.00    -0.250 N 
ATOM     13  N   LIG    1       -2.267   4.822  -6.021  0.00  0.00    -0.300 NA
ATOM     14  C   LIG    1       -2.630   4.745  -4.764  0.00  0.00    +0.310 A 
ENDBRANCH   4   6
ENDBRANCH   1   2
BRANCH   1  15
ATOM     15  C   LIG    1       -4.121   4.528   0.181  0.00  0.00    +0.230 C 
ATOM     16  C   LIG    1       -4.555   4.920   1.595  0.00  0.00    +0.060 C 
BRANCH  15  18
ATOM     17  C   LIG    1       -2.439   2.805  -0.191  0.00  0.00    +0.500 C 
ATOM     18  N   LIG    1       -2.733   4.058   0.209  0.00  0.00    -0.600 N 
ATOM     19  C   LIG    1       -1.667   4.949   0.673  0.00  0.00    +0.290 C 
ATOM     20  O   LIG    1       -3.330   2.037  -0.486  0.00  0.00    -0.530 OA
BRANCH  17  21
ATOM     21  C   LIG    1       -1.001   2.359  -0.273  0.00  0.00    +0.070 C 
ATOM     22  C   LIG    1       -0.251   2.919  -1.493  0.00  0.00    +0.060 C 
ATOM     23  C   LIG    1        0.411   1.537  -1.621  0.00  0.00    +0.040 C 
ATOM     24  C   LIG    1       -0.820   0.965  -0.899  0.00  0.00    +0.040 C 
BRANCH  21  26
ATOM     25  C   LIG    1       -0.914   1.882   2.074  0.00  0.00    +0.210 C 
ATOM     26  O   LIG    1       -0.297   2.528   0.959  0.00  0.00    -0.350 OA
ENDBRANCH  21  26
ENDBRANCH  17  21
ENDBRANCH  15  18
ENDBRANCH   1  15
TORSDOF 6
