REMARK  Name = ZINCrg000000nyYT.0
REMARK                            x       y       z     vdW  Elec       q    Type
REMARK                         _______ _______ _______ _____ _____    ______ ____
ROOT
ATOM      1  N   LIG    1        5.778   4.407  -0.030  0.00  0.00    -0.500 N 
ATOM      2  H   LIG    1        5.097   5.097  -0.019  0.00  0.00    +0.430 HD
ATOM      3  C   LIG    1        5.421   3.107  -0.034  0.00  0.00    +0.540 C 
ATOM      4  O   LIG    1        6.274   2.245  -0.047  0.00  0.00    -0.500 OA
ENDROOT
BRANCH   1  13
ATOM      5  C   LIG    1       10.591   6.868   4.406  0.00  0.00    +0.030 C 
ATOM      6  C   LIG    1       10.586   6.470   2.929  0.00  0.00    -0.020 C 
ATOM      7  C   LIG    1       10.194   4.997   2.800  0.00  0.00    +0.040 C 
ATOM      8  C   LIG    1       10.200   4.596   1.322  0.00  0.00    +0.060 C 
ATOM      9  C   LIG    1        9.217   5.471   0.552  0.00  0.00    +0.140 C 
ATOM     10  N   LIG    1        9.184   5.082  -0.864  0.00  0.00    -0.710 N 
ATOM     11  H   LIG    1        9.923   5.108  -1.491  0.00  0.00    +0.450 HD
ATOM     12  C   LIG    1        7.923   4.681  -1.119  0.00  0.00    +0.710 C 
ATOM     13  N   LIG    1        7.134   4.761  -0.041  0.00  0.00    -0.380 N 
ATOM     14  O   LIG    1        7.546   4.290  -2.206  0.00  0.00    -0.520 OA
ATOM     15  C   LIG    1        9.580   6.945   0.692  0.00  0.00    +0.060 C 
ATOM     16  C   LIG    1        7.804   5.231   1.031  0.00  0.00    +0.530 C 
ATOM     17  O   LIG    1        7.365   5.420   2.146  0.00  0.00    -0.440 OA
ATOM     18  C   LIG    1        9.576   7.335   2.172  0.00  0.00    +0.040 C 
ENDBRANCH   1  13
BRANCH   3  19
ATOM     19  C   LIG    1        3.963   2.727  -0.021  0.00  0.00    +0.120 C 
BRANCH  19  20
ATOM     20  S   LIG    1        3.811   0.923  -0.030  0.00  0.00    +0.130 S 
BRANCH  20  21
ATOM     21  C   LIG    1        2.056   0.764  -0.013  0.00  0.00    +0.190 A 
ATOM     22  N   LIG    1        1.183   1.748   0.000  0.00  0.00    -0.340 NA
ATOM     23  N   LIG    1       -0.015   1.285   0.009  0.00  0.00    -0.030 NA
ATOM     24  N   LIG    1        0.002  -0.004   0.002  0.00  0.00    -0.070 NA
ATOM     25  N   LIG    1        1.353  -0.393  -0.013  0.00  0.00    -0.350 N 
BRANCH  25  26
ATOM     26  C   LIG    1        1.886  -1.757  -0.025  0.00  0.00    +0.170 C 
ATOM     27  C   LIG    1        2.755  -1.977   1.215  0.00  0.00    +0.060 C 
ATOM     28  C   LIG    1        2.732  -1.963  -1.284  0.00  0.00    +0.070 C 
ATOM     29  C   LIG    1        0.728  -2.757  -0.020  0.00  0.00    +0.080 C 
ENDBRANCH  25  26
ENDBRANCH  20  21
ENDBRANCH  19  20
ENDBRANCH   3  19
TORSDOF 5
