REMARK  Name = ZINCqH0000004R4h.0
REMARK                            x       y       z     vdW  Elec       q    Type
REMARK                         _______ _______ _______ _____ _____    ______ ____
ROOT
ATOM      1  C   LIG    1       -2.489   1.348   0.021  0.00  0.00    +0.360 C 
ENDROOT
BRANCH   1   4
ATOM      2  N   LIG    1       -5.219   3.619  -0.671  0.00  0.00    -0.540 N 
ATOM      3  C   LIG    1       -4.226   2.794  -1.054  0.00  0.00    +0.690 A 
ATOM      4  N   LIG    1       -3.615   2.284   0.032  0.00  0.00    -0.530 N 
ATOM      5  C   LIG    1       -4.240   2.795   1.167  0.00  0.00    +0.100 A 
ATOM      6  C   LIG    1       -4.037   2.616   2.526  0.00  0.00    +0.030 A 
ATOM      7  C   LIG    1       -4.841   3.277   3.434  0.00  0.00    +0.020 A 
ATOM      8  C   LIG    1       -5.848   4.118   2.993  0.00  0.00    +0.020 A 
ATOM      9  C   LIG    1       -6.052   4.310   1.640  0.00  0.00    +0.030 A 
ATOM     10  O   LIG    1       -3.927   2.546  -2.208  0.00  0.00    -0.550 OA
ATOM     11  C   LIG    1       -5.253   3.646   0.721  0.00  0.00    +0.100 A 
BRANCH   2  13
ATOM     12  C   LIG    1       -7.343   3.510  -1.878  0.00  0.00    +0.030 C 
ATOM     13  C   LIG    1       -6.111   4.361  -1.566  0.00  0.00    +0.310 C 
ENDBRANCH   2  13
ENDBRANCH   1   4
BRANCH   1  14
ATOM     14  C   LIG    1       -1.194   2.119   0.019  0.00  0.00    +0.500 C 
ATOM     15  N   LIG    1       -0.018   1.461   0.010  0.00  0.00    -0.610 N 
ATOM     16  C   LIG    1        0.002  -0.004   0.002  0.00  0.00    +0.290 C 
ATOM     17  O   LIG    1       -1.210   3.331   0.026  0.00  0.00    -0.510 OA
BRANCH  15  18
ATOM     18  C   LIG    1        1.241   2.211   0.002  0.00  0.00    +0.360 C 
BRANCH  18  19
ATOM     19  C   LIG    1        1.659   2.475  -1.421  0.00  0.00    -0.100 A 
ATOM     20  C   LIG    1        2.468   1.571  -2.083  0.00  0.00    +0.050 A 
ATOM     21  C   LIG    1        2.847   1.810  -3.391  0.00  0.00    +0.040 A 
ATOM     22  C   LIG    1        2.427   2.960  -4.034  0.00  0.00    -0.030 A 
ATOM     23  C   LIG    1        1.621   3.869  -3.369  0.00  0.00    -0.030 A 
ATOM     24 CL   LIG    1        1.092   5.312  -4.175  0.00  0.00    -0.040 Cl
ATOM     25 CL   LIG    1        2.909   3.264  -5.674  0.00  0.00    -0.050 Cl
ATOM     26  C   LIG    1        1.238   3.625  -2.063  0.00  0.00    +0.080 A 
ENDBRANCH  18  19
ENDBRANCH  15  18
ENDBRANCH   1  14
TORSDOF 5
