REMARK  Name = ZINCkj00000GePa4.0
REMARK                            x       y       z     vdW  Elec       q    Type
REMARK                         _______ _______ _______ _____ _____    ______ ____
ROOT
ATOM      1  N   LIG    1        1.502   4.083   1.348  0.00  0.00    -0.500 N 
ATOM      2  H   LIG    1        2.430   3.763   1.583  0.00  0.00    +0.430 HD
ATOM      3  H   LIG    1        0.843   3.730   2.025  0.00  0.00    +0.440 HD
ENDROOT
BRANCH   1   4
ATOM      4  C   LIG    1        1.474   5.552   1.356  0.00  0.00    +0.170 C 
ATOM      5  C   LIG    1        1.728   6.059   2.778  0.00  0.00    +0.070 C 
ATOM      6  C   LIG    1        1.472   7.571   2.830  0.00  0.00    +0.210 C 
ATOM      7  C   LIG    1        2.203   8.212   1.675  0.00  0.00    +0.270 A 
ATOM      8  N   LIG    1        2.488   9.473   1.510  0.00  0.00    -0.520 NA
ATOM      9  C   LIG    1        3.146   9.639   0.360  0.00  0.00    +0.450 A 
ATOM     10  N   LIG    1        3.287   8.475  -0.223  0.00  0.00    -0.300 NA
ATOM     11  N   LIG    1        2.681   7.534   0.615  0.00  0.00    -0.390 N 
ATOM     12  C   LIG    1        2.562   6.089   0.419  0.00  0.00    +0.350 C 
ENDBRANCH   1   4
BRANCH   1  13
ATOM     13  C   LIG    1        1.141   3.594   0.011  0.00  0.00    +0.350 C 
BRANCH  13  17
ATOM     14  C   LIG    1        1.222  -0.683  -0.013  0.00  0.00    +0.060 A 
ATOM     15  C   LIG    1        0.002  -0.004   0.002  0.00  0.00    +0.080 A 
ATOM     16  C   LIG    1       -0.017   1.376   0.010  0.00  0.00    +0.110 A 
ATOM     17  C   LIG    1        1.169   2.087   0.002  0.00  0.00    -0.180 A 
ATOM     18  C   LIG    1        2.384   1.420  -0.013  0.00  0.00    +0.120 A 
ATOM     19  F   LIG    1        3.539   2.122  -0.021  0.00  0.00    -0.130 F 
ATOM     20  C   LIG    1        2.417   0.039  -0.021  0.00  0.00    +0.060 A 
BRANCH  14  22
ATOM     21  N   LIG    1        1.267  -3.251  -0.028  0.00  0.00    -0.360 NA
ATOM     22  C   LIG    1        1.247  -2.115  -0.022  0.00  0.00    +0.220 C 
ENDBRANCH  14  22
ENDBRANCH  13  17
ENDBRANCH   1  13
TORSDOF 4
