REMARK  Name = ZINCnE000001QKOO.0
REMARK                            x       y       z     vdW  Elec       q    Type
REMARK                         _______ _______ _______ _____ _____    ______ ____
ROOT
ATOM      1  C   LIG    1       -0.769   1.056  -2.386  0.00  0.00    +0.610 C 
ATOM      2  N   LIG    1       -0.768   1.595  -1.151  0.00  0.00    -0.610 N 
ATOM      3  C   LIG    1       -1.519   2.789  -0.737  0.00  0.00    +0.230 C 
ATOM      4  C   LIG    1       -1.232   3.013   0.763  0.00  0.00    +0.050 C 
ATOM      5  C   LIG    1       -0.783   1.608   1.247  0.00  0.00    -0.020 C 
ATOM      6  C   LIG    1       -0.013   1.086   0.008  0.00  0.00    +0.270 C 
ATOM      7  O   LIG    1       -0.106   0.062  -2.617  0.00  0.00    -0.520 OA
ENDROOT
BRANCH   1  10
ATOM      8  C   LIG    1       -0.927   0.017  -5.240  0.00  0.00    +0.160 C 
ATOM      9  C   LIG    1       -1.662   1.230  -4.734  0.00  0.00    +0.150 A 
ATOM     10  C   LIG    1       -1.570   1.667  -3.453  0.00  0.00    -0.300 A 
ATOM     11  S   LIG    1       -2.590   3.095  -3.297  0.00  0.00    +0.170 S 
ATOM     12  C   LIG    1       -3.026   2.974  -4.946  0.00  0.00    +0.060 A 
ATOM     13  N   LIG    1       -2.447   1.954  -5.492  0.00  0.00    -0.470 NA
BRANCH  12  14
ATOM     14  C   LIG    1       -3.960   3.918  -5.660  0.00  0.00    +0.070 C 
ATOM     15  C   LIG    1       -5.142   3.134  -6.266  0.00  0.00    +0.040 C 
ATOM     16  C   LIG    1       -5.418   3.845  -7.614  0.00  0.00    +0.020 C 
ATOM     17  C   LIG    1       -3.994   4.193  -8.115  0.00  0.00    +0.020 C 
ATOM     18  C   LIG    1       -3.230   4.591  -6.835  0.00  0.00    +0.030 C 
ENDBRANCH  12  14
ENDBRANCH   1  10
BRANCH   5  19
ATOM     19  C   LIG    1        0.140   1.713   2.462  0.00  0.00    +0.050 C 
BRANCH  19  20
ATOM     20  C   LIG    1        0.587   0.312   2.886  0.00  0.00    -0.070 C 
BRANCH  20  21
ATOM     21  C   LIG    1        1.496   0.416   4.083  0.00  0.00    +0.490 C 
ATOM     22  O   LIG    1        1.966  -0.593   4.581  0.00  0.00    -0.710 OA
ATOM     23  O   LIG    1        1.762   1.508   4.554  0.00  0.00    -0.700 OA
ENDBRANCH  20  21
ENDBRANCH  19  20
ENDBRANCH   5  19
TORSDOF 5
