REMARK  Name = ZINCpk00000xI3je.0
REMARK                            x       y       z     vdW  Elec       q    Type
REMARK                         _______ _______ _______ _____ _____    ______ ____
ROOT
ATOM      1  C   LIG    1        4.948  -6.660   1.924  0.00  0.00    +0.180 C 
ATOM      2  C   LIG    1        3.855  -6.512   0.897  0.00  0.00    +0.090 C 
ATOM      3  N   LIG    1        3.249  -7.562   0.519  0.00  0.00    -0.220 NA
ATOM      4  N   LIG    1        2.210  -7.543  -0.426  0.00  0.00    -0.430 N 
ATOM      5  C   LIG    1        1.675  -6.310  -0.748  0.00  0.00    +0.510 A 
ATOM      6  N   LIG    1        0.583  -6.020  -1.407  0.00  0.00    -0.510 NA
ATOM      7  C   LIG    1        0.437  -4.693  -1.479  0.00  0.00    +0.350 A 
ATOM      8  C   LIG    1        1.517  -4.110  -0.820  0.00  0.00    -0.150 A 
ATOM      9  C   LIG    1        1.601  -2.706  -0.757  0.00  0.00    +0.600 A 
ATOM     10  N   LIG    1        0.634  -1.958  -1.325  0.00  0.00    -0.550 N 
ATOM     11  C   LIG    1       -0.403  -2.532  -1.959  0.00  0.00    +0.710 A 
ATOM     12  O   LIG    1       -1.255  -1.826  -2.464  0.00  0.00    -0.530 OA
ATOM     13  O   LIG    1        2.539  -2.172  -0.191  0.00  0.00    -0.510 OA
ATOM     14  N   LIG    1       -0.522  -3.870  -2.048  0.00  0.00    -0.510 N 
ATOM     15  C   LIG    1       -1.667  -4.458  -2.748  0.00  0.00    +0.350 C 
ATOM     16  N   LIG    1        2.295  -5.152  -0.364  0.00  0.00    -0.450 N 
ATOM     17  C   LIG    1        3.550  -5.131   0.386  0.00  0.00    +0.350 C 
ENDROOT
BRANCH  10  18
ATOM     18  C   LIG    1        0.718  -0.497  -1.257  0.00  0.00    +0.320 C 
BRANCH  18  19
ATOM     19  C   LIG    1        0.002  -0.004   0.002  0.00  0.00    -0.030 C 
ATOM     20  C   LIG    1        0.742  -0.511   1.242  0.00  0.00    +0.010 C 
ATOM     21  C   LIG    1       -0.019   1.526   0.010  0.00  0.00    +0.040 C 
ENDBRANCH  18  19
ENDBRANCH  10  18
BRANCH   4  22
ATOM     22  C   LIG    1        1.715  -8.776  -1.043  0.00  0.00    +0.370 C 
BRANCH  22  23
ATOM     23  C   LIG    1        2.510  -9.063  -2.318  0.00  0.00    -0.050 C 
ATOM     24  C   LIG    1        1.913 -10.279  -3.029  0.00  0.00    +0.040 C 
ATOM     25  C   LIG    1        3.969  -9.348  -1.957  0.00  0.00    +0.020 C 
ENDBRANCH  22  23
ENDBRANCH   4  22
TORSDOF 4
