REMARK  Name = ZINCvU0000000Giq.0
REMARK                            x       y       z     vdW  Elec       q    Type
REMARK                         _______ _______ _______ _____ _____    ______ ____
ROOT
ATOM      1  C   LIG    1        7.722   3.741   0.223  0.00  0.00    +0.180 C 
ATOM      2  C   LIG    1        7.921   5.235   0.183  0.00  0.00    +0.110 A 
ATOM      3  N   LIG    1        9.034   5.861   0.438  0.00  0.00    -0.230 NA
ATOM      4  N   LIG    1        8.843   7.241   0.303  0.00  0.00    -0.370 N 
ATOM      5  C   LIG    1        7.538   7.459  -0.054  0.00  0.00    +0.330 A 
ATOM      6  N   LIG    1        6.833   8.552  -0.307  0.00  0.00    -0.470 NA
ATOM      7  C   LIG    1        5.562   8.500  -0.639  0.00  0.00    +0.230 A 
ATOM      8  C   LIG    1        4.887   7.293  -0.748  0.00  0.00    -0.020 A 
ATOM      9  C   LIG    1        5.567   6.104  -0.490  0.00  0.00    -0.010 A 
ATOM     10  C   LIG    1        6.931   6.189  -0.136  0.00  0.00    -0.180 A 
ENDROOT
BRANCH   9  11
ATOM     11  C   LIG    1        4.884   4.798  -0.591  0.00  0.00    +0.580 C 
ATOM     12  N   LIG    1        3.607   4.671  -0.176  0.00  0.00    -0.620 N 
ATOM     13  H   LIG    1        3.137   5.437   0.188  0.00  0.00    +0.440 HD
ATOM     14  O   LIG    1        5.473   3.837  -1.046  0.00  0.00    -0.500 OA
BRANCH  12  15
ATOM     15  C   LIG    1        2.968   3.447  -0.270  0.00  0.00    +0.520 A 
ATOM     16  N   LIG    1        1.735   3.213   0.101  0.00  0.00    -0.500 NA
ATOM     17  C   LIG    1        1.428   1.910  -0.130  0.00  0.00    +0.100 A 
ATOM     18  C   LIG    1        0.278   1.144   0.075  0.00  0.00    +0.070 A 
ATOM     19  C   LIG    1        0.274  -0.191  -0.269  0.00  0.00    +0.110 A 
ATOM     20  C   LIG    1        1.406  -0.780  -0.819  0.00  0.00    -0.060 A 
ATOM     21  C   LIG    1        2.550  -0.035  -1.027  0.00  0.00    +0.090 A 
ATOM     22 CL   LIG    1        1.383  -2.462  -1.246  0.00  0.00    -0.040 Cl
ATOM     23  F   LIG    1       -0.839  -0.932  -0.071  0.00  0.00    -0.120 F 
ATOM     24  C   LIG    1        2.570   1.309  -0.686  0.00  0.00    +0.050 A 
ATOM     25  N   LIG    1        3.530   2.305  -0.764  0.00  0.00    -0.580 N 
ATOM     26  H   LIG    1        4.433   2.209  -1.105  0.00  0.00    +0.440 HD
ENDBRANCH  12  15
ENDBRANCH   9  11
BRANCH   4  27
ATOM     27  C   LIG    1        9.862   8.273   0.507  0.00  0.00    +0.190 C 
ATOM     28  C   LIG    1       10.050   9.068  -0.787  0.00  0.00    +0.050 C 
ATOM     29  C   LIG    1       11.186   7.613   0.897  0.00  0.00    +0.080 C 
ATOM     30  C   LIG    1        9.415   9.217   1.625  0.00  0.00    +0.050 C 
ENDBRANCH   4  27
BRANCH   7  31
ATOM     31  C   LIG    1        4.821   9.783  -0.913  0.00  0.00    +0.010 C 
ATOM     32  C   LIG    1        3.485   9.684  -1.652  0.00  0.00    +0.040 C 
ATOM     33  C   LIG    1        4.717  10.242  -2.369  0.00  0.00    +0.050 C 
ENDBRANCH   7  31
TORSDOF 4
