REMARK  Name = ZINCvU0000000Giq.1
REMARK                            x       y       z     vdW  Elec       q    Type
REMARK                         _______ _______ _______ _____ _____    ______ ____
ROOT
ATOM      1  C   LIG    1        7.721   3.744   0.220  0.00  0.00    +0.180 C 
ATOM      2  C   LIG    1        7.919   5.237   0.178  0.00  0.00    +0.110 A 
ATOM      3  N   LIG    1        9.033   5.863   0.432  0.00  0.00    -0.230 NA
ATOM      4  N   LIG    1        8.841   7.243   0.296  0.00  0.00    -0.370 N 
ATOM      5  C   LIG    1        7.535   7.461  -0.061  0.00  0.00    +0.330 A 
ATOM      6  N   LIG    1        6.830   8.553  -0.315  0.00  0.00    -0.470 NA
ATOM      7  C   LIG    1        5.559   8.500  -0.646  0.00  0.00    +0.230 A 
ATOM      8  C   LIG    1        4.885   7.293  -0.755  0.00  0.00    -0.020 A 
ATOM      9  C   LIG    1        5.565   6.105  -0.496  0.00  0.00    -0.010 A 
ATOM     10  C   LIG    1        6.929   6.190  -0.141  0.00  0.00    -0.180 A 
ENDROOT
BRANCH   9  11
ATOM     11  C   LIG    1        4.882   4.798  -0.594  0.00  0.00    +0.580 C 
ATOM     12  N   LIG    1        3.606   4.671  -0.180  0.00  0.00    -0.620 N 
ATOM     13  H   LIG    1        3.135   5.438   0.182  0.00  0.00    +0.440 HD
ATOM     14  O   LIG    1        5.472   3.837  -1.049  0.00  0.00    -0.500 OA
BRANCH  12  15
ATOM     15  C   LIG    1        2.967   3.447  -0.273  0.00  0.00    +0.520 A 
ATOM     16  N   LIG    1        1.734   3.213   0.099  0.00  0.00    -0.500 NA
ATOM     17  C   LIG    1        1.428   1.909  -0.131  0.00  0.00    +0.070 A 
ATOM     18  C   LIG    1        0.278   1.143   0.074  0.00  0.00    +0.120 A 
ATOM     19  C   LIG    1        0.274  -0.192  -0.269  0.00  0.00    -0.070 A 
ATOM     20  C   LIG    1        1.406  -0.781  -0.818  0.00  0.00    +0.130 A 
ATOM     21  C   LIG    1        2.550  -0.036  -1.026  0.00  0.00    +0.020 A 
ATOM     22  F   LIG    1        1.388  -2.091  -1.150  0.00  0.00    -0.120 F 
ATOM     23 CL   LIG    1       -1.156  -1.143  -0.015  0.00  0.00    -0.040 Cl
ATOM     24  C   LIG    1        2.570   1.308  -0.686  0.00  0.00    +0.080 A 
ATOM     25  N   LIG    1        3.529   2.304  -0.765  0.00  0.00    -0.580 N 
ATOM     26  H   LIG    1        4.432   2.208  -1.106  0.00  0.00    +0.440 HD
ENDBRANCH  12  15
ENDBRANCH   9  11
BRANCH   4  27
ATOM     27  C   LIG    1        9.860   8.276   0.499  0.00  0.00    +0.190 C 
ATOM     28  C   LIG    1       10.046   9.070  -0.795  0.00  0.00    +0.050 C 
ATOM     29  C   LIG    1       11.184   7.617   0.889  0.00  0.00    +0.080 C 
ATOM     30  C   LIG    1        9.412   9.221   1.616  0.00  0.00    +0.050 C 
ENDBRANCH   4  27
BRANCH   7  31
ATOM     31  C   LIG    1        4.817   9.783  -0.922  0.00  0.00    +0.010 C 
ATOM     32  C   LIG    1        3.481   9.682  -1.661  0.00  0.00    +0.040 C 
ATOM     33  C   LIG    1        4.713  10.240  -2.378  0.00  0.00    +0.050 C 
ENDBRANCH   7  31
TORSDOF 4
