REMARK  Name = ZINCvU00000004jm.0
REMARK                            x       y       z     vdW  Elec       q    Type
REMARK                         _______ _______ _______ _____ _____    ______ ____
ROOT
ATOM      1  C   LIG    1        1.250  -2.191  -0.009  0.00  0.00    +0.140 A 
ATOM      2  C   LIG    1        2.389  -2.891  -0.127  0.00  0.00    -0.060 A 
ATOM      3  S   LIG    1        1.901  -4.594  -0.096  0.00  0.00    +0.190 S 
ATOM      4  C   LIG    1        0.219  -4.267   0.064  0.00  0.00    +0.380 A 
ATOM      5  N   LIG    1       -0.766  -5.160   0.146  0.00  0.00    -0.610 NA
ATOM      6  N   LIG    1        0.099  -2.919   0.090  0.00  0.00    -0.460 N 
ENDROOT
BRANCH   1  11
ATOM      7  C   LIG    1        0.844   1.358   1.166  0.00  0.00    +0.100 A 
ATOM      8  C   LIG    1        1.229   2.063   0.035  0.00  0.00    -0.010 A 
ATOM      9  C   LIG    1        1.620   1.389  -1.108  0.00  0.00    -0.030 A 
ATOM     10  C   LIG    1        1.630   0.005  -1.130  0.00  0.00    +0.130 A 
ATOM     11  C   LIG    1        1.242  -0.712   0.008  0.00  0.00    -0.040 A 
ATOM     12  C   LIG    1        0.849  -0.027   1.157  0.00  0.00    +0.050 A 
BRANCH   7  14
ATOM     13  C   LIG    1        0.474   3.455   2.224  0.00  0.00    +0.250 C 
ATOM     14  O   LIG    1        0.456   2.027   2.284  0.00  0.00    -0.310 OA
ENDBRANCH   7  14
BRANCH  10  15
ATOM     15  O   LIG    1        2.014  -0.655  -2.254  0.00  0.00    -0.300 OA
ATOM     16  C   LIG    1        2.396   0.142  -3.377  0.00  0.00    +0.240 C 
ENDBRANCH  10  15
ENDBRANCH   1  11
BRANCH   5  17
ATOM     17  C   LIG    1       -0.489  -6.465   0.106  0.00  0.00    +0.530 C 
ATOM     18  O   LIG    1        0.666  -6.840  -0.006  0.00  0.00    -0.540 OA
BRANCH  17  19
ATOM     19  C   LIG    1       -1.584  -7.458   0.197  0.00  0.00    -0.110 A 
ATOM     20  C   LIG    1       -2.906  -7.032   0.330  0.00  0.00    +0.080 A 
ATOM     21  C   LIG    1       -3.922  -7.962   0.409  0.00  0.00    -0.010 A 
ATOM     22  C   LIG    1       -3.632  -9.314   0.367  0.00  0.00    +0.040 A 
ATOM     23  C   LIG    1       -2.322  -9.742   0.240  0.00  0.00    +0.000 A 
ATOM     24  C   LIG    1       -1.298  -8.822   0.155  0.00  0.00    +0.060 A 
ENDBRANCH  17  19
ENDBRANCH   5  17
BRANCH   6  25
ATOM     25  C   LIG    1       -1.208  -2.269   0.218  0.00  0.00    +0.350 C 
BRANCH  25  26
ATOM     26  C   LIG    1       -1.850  -2.158  -1.141  0.00  0.00    -0.120 A 
ATOM     27  C   LIG    1       -1.563  -1.077  -1.954  0.00  0.00    +0.030 A 
ATOM     28  C   LIG    1       -2.148  -0.978  -3.202  0.00  0.00    -0.010 A 
ATOM     29  C   LIG    1       -3.027  -1.954  -3.634  0.00  0.00    +0.010 A 
ATOM     30  C   LIG    1       -3.318  -3.031  -2.818  0.00  0.00    +0.000 A 
ATOM     31  C   LIG    1       -2.729  -3.134  -1.571  0.00  0.00    +0.050 A 
ENDBRANCH  25  26
ENDBRANCH   6  25
TORSDOF 7
