REMARK  Name = ZINCqH000000113C.0
REMARK                            x       y       z     vdW  Elec       q    Type
REMARK                         _______ _______ _______ _____ _____    ______ ____
ROOT
ATOM      1  N   LIG    1        1.342   1.530   2.443  0.00  0.00    -0.740 N 
ATOM      2  H   LIG    1        0.505   2.013   2.365  0.00  0.00    +0.410 HD
ENDROOT
BRANCH   1   7
ATOM      3  C   LIG    1        1.693   1.327   6.096  0.00  0.00    -0.020 A 
ATOM      4  C   LIG    1        2.888   0.639   6.205  0.00  0.00    -0.050 A 
ATOM      5  C   LIG    1        3.570   0.246   5.069  0.00  0.00    +0.050 A 
ATOM      6  C   LIG    1        3.057   0.535   3.819  0.00  0.00    -0.080 A 
ATOM      7  C   LIG    1        1.861   1.231   3.705  0.00  0.00    +0.220 A 
ATOM      8  C   LIG    1        1.178   1.625   4.849  0.00  0.00    -0.060 A 
BRANCH   3   9
ATOM      9  C   LIG    1        0.953   1.754   7.337  0.00  0.00    -0.180 C 
BRANCH   9  10
ATOM     10  S   LIG    1       -0.198   0.444   7.835  0.00  0.00    +1.250 S 
ATOM     11  O   LIG    1        0.534  -0.723   8.183  0.00  0.00    -0.830 OA
BRANCH  10  13
ATOM     12  C   LIG    1       -1.694   2.437   8.963  0.00  0.00    +0.070 C 
ATOM     13  C   LIG    1       -0.981   1.131   9.320  0.00  0.00    -0.390 C 
ATOM     14  C   LIG    1        0.089   1.408  10.379  0.00  0.00    +0.040 C 
ATOM     15  C   LIG    1       -1.997   0.129   9.871  0.00  0.00    +0.070 C 
ENDBRANCH  10  13
ENDBRANCH   9  10
ENDBRANCH   3   9
ENDBRANCH   1   7
BRANCH   1  16
ATOM     16  C   LIG    1        2.064   1.114   1.238  0.00  0.00    +0.240 C 
BRANCH  16  17
ATOM     17  C   LIG    1        1.286   1.562  -0.002  0.00  0.00    +0.220 C 
BRANCH  17  18
ATOM     18  O   LIG    1       -0.011   0.963   0.007  0.00  0.00    -0.540 OA
ATOM     19  H   LIG    1        0.002  -0.004   0.002  0.00  0.00    +0.380 HD
ENDBRANCH  17  18
BRANCH  17  20
ATOM     20  C   LIG    1        2.040   1.127  -1.261  0.00  0.00    +0.180 C 
BRANCH  20  21
ATOM     21  O   LIG    1        1.376   1.645  -2.415  0.00  0.00    -0.300 OA
BRANCH  21  22
ATOM     22  C   LIG    1        1.921   1.349  -3.625  0.00  0.00    +0.100 A 
ATOM     23  C   LIG    1        3.070   0.576  -3.699  0.00  0.00    -0.040 A 
ATOM     24  C   LIG    1        3.622   0.276  -4.930  0.00  0.00    +0.040 A 
ATOM     25  C   LIG    1        3.031   0.746  -6.088  0.00  0.00    +0.010 A 
ATOM     26  C   LIG    1        1.885   1.517  -6.019  0.00  0.00    +0.020 A 
ATOM     27  C   LIG    1        1.324   1.815  -4.790  0.00  0.00    +0.070 A 
ATOM     28  F   LIG    1        0.202   2.564  -4.723  0.00  0.00    -0.130 F 
ENDBRANCH  21  22
ENDBRANCH  20  21
ENDBRANCH  17  20
ENDBRANCH  16  17
ENDBRANCH   1  16
TORSDOF 10
