REMARK  Name = ZINCnE000001RnEa.0
REMARK                            x       y       z     vdW  Elec       q    Type
REMARK                         _______ _______ _______ _____ _____    ______ ____
ROOT
ATOM      1  C   LIG    1       -7.546  -3.364  -3.935  0.00  0.00    +0.330 C 
ATOM      2  N   LIG    1       -6.899  -3.701  -2.665  0.00  0.00    -0.390 N 
ATOM      3  C   LIG    1       -6.412  -2.823  -1.764  0.00  0.00    +0.200 A 
ATOM      4  C   LIG    1       -5.897  -3.532  -0.733  0.00  0.00    -0.190 A 
ATOM      5  C   LIG    1       -6.070  -4.891  -1.016  0.00  0.00    +0.100 A 
ATOM      6  N   LIG    1       -6.676  -4.993  -2.171  0.00  0.00    -0.310 NA
ENDROOT
BRANCH   5   7
ATOM      7  C   LIG    1       -5.638  -6.038  -0.140  0.00  0.00    +0.090 C 
ATOM      8  C   LIG    1       -4.643  -6.915  -0.903  0.00  0.00    +0.030 C 
ATOM      9  C   LIG    1       -4.204  -8.080  -0.013  0.00  0.00    +0.000 C 
ATOM     10  C   LIG    1       -5.426  -8.915   0.375  0.00  0.00    +0.000 C 
ATOM     11  C   LIG    1       -6.421  -8.037   1.137  0.00  0.00    +0.000 C 
ATOM     12  C   LIG    1       -6.860  -6.872   0.248  0.00  0.00    +0.010 C 
ENDBRANCH   5   7
BRANCH   4  13
ATOM     13  C   LIG    1       -5.246  -2.959   0.500  0.00  0.00    +0.270 C 
BRANCH  13  14
ATOM     14  N   LIG    1       -3.789  -3.025   0.358  0.00  0.00    -0.680 NA
ATOM     15  C   LIG    1       -3.088  -1.924   0.294  0.00  0.00    +0.430 A 
ATOM     16  N   LIG    1       -3.573  -0.643   0.346  0.00  0.00    -0.550 NA
ATOM     17  N   LIG    1       -2.462   0.207   0.248  0.00  0.00    -0.300 NA
ATOM     18  C   LIG    1       -1.405  -0.526   0.137  0.00  0.00    +0.080 A 
ATOM     19  O   LIG    1       -1.750  -1.830   0.165  0.00  0.00    -0.300 OA
BRANCH  18  20
ATOM     20  C   LIG    1        0.002  -0.004   0.002  0.00  0.00    +0.180 C 
BRANCH  20  21
ATOM     21  C   LIG    1       -0.019   1.526   0.010  0.00  0.00    -0.010 C 
ATOM     22  C   LIG    1        0.454   2.246  -1.254  0.00  0.00    +0.000 C 
ATOM     23  C   LIG    1        1.329   2.251   0.002  0.00  0.00    -0.010 C 
ENDBRANCH  20  21
ENDBRANCH  18  20
ENDBRANCH  13  14
ENDBRANCH   4  13
TORSDOF 5
