REMARK  Name = ZINCrD000000CPX0.0
REMARK                            x       y       z     vdW  Elec       q    Type
REMARK                         _______ _______ _______ _____ _____    ______ ____
ROOT
ATOM      1  C   LIG    1       -1.305   2.112   0.020  0.00  0.00    +0.560 C 
ATOM      2  N   LIG    1       -1.326   3.455   0.129  0.00  0.00    -0.610 N 
ATOM      3  C   LIG    1       -0.077   4.231   0.135  0.00  0.00    +0.280 C 
ATOM      4  C   LIG    1       -0.199   5.349  -0.912  0.00  0.00    +0.160 C 
ATOM      5  N   LIG    1       -1.415   6.129  -0.649  0.00  0.00    -0.530 NA
ATOM      6  C   LIG    1       -2.621   5.302  -0.795  0.00  0.00    +0.170 C 
ATOM      7  C   LIG    1       -2.598   4.182   0.251  0.00  0.00    +0.300 C 
ATOM      8  O   LIG    1       -2.347   1.494  -0.085  0.00  0.00    -0.520 OA
ENDROOT
BRANCH   1  16
ATOM      9  O   LIG    1        5.265   1.714   2.502  0.00  0.00    -0.510 OA
ATOM     10  C   LIG    1        4.510   1.278   1.658  0.00  0.00    +0.520 C 
ATOM     11  C   LIG    1        5.095   0.492   0.518  0.00  0.00    +0.150 C 
ATOM     12  S   LIG    1        3.935  -0.829   0.055  0.00  0.00    -0.060 S 
ATOM     13  C   LIG    1        2.394   0.031   0.044  0.00  0.00    -0.110 A 
ATOM     14  C   LIG    1        1.382  -0.365  -0.820  0.00  0.00    +0.090 A 
ATOM     15  C   LIG    1        0.181   0.308  -0.833  0.00  0.00    +0.070 A 
ATOM     16  C   LIG    1       -0.018   1.391   0.027  0.00  0.00    -0.090 A 
ATOM     17  C   LIG    1        0.999   1.789   0.898  0.00  0.00    +0.030 A 
ATOM     18  C   LIG    1        2.208   1.113   0.912  0.00  0.00    +0.160 A 
ATOM     19  N   LIG    1        3.209   1.522   1.791  0.00  0.00    -0.660 N 
ATOM     20  H   LIG    1        2.932   2.030   2.569  0.00  0.00    +0.420 HD
ENDBRANCH   1  16
BRANCH   5  21
ATOM     21  C   LIG    1       -1.480   7.313  -1.516  0.00  0.00    +0.230 C 
BRANCH  21  22
ATOM     22  C   LIG    1       -0.359   8.255  -1.165  0.00  0.00    -0.080 A 
ATOM     23  C   LIG    1       -0.554   9.237  -0.211  0.00  0.00    +0.050 A 
ATOM     24  C   LIG    1        0.476  10.098   0.116  0.00  0.00    +0.020 A 
ATOM     25  C   LIG    1        1.700   9.986  -0.520  0.00  0.00    -0.030 A 
ATOM     26  C   LIG    1        1.893   9.007  -1.479  0.00  0.00    +0.020 A 
ATOM     27 CL   LIG    1        2.992  11.071  -0.115  0.00  0.00    -0.070 Cl
ATOM     28  C   LIG    1        0.864   8.142  -1.801  0.00  0.00    +0.030 A 
ENDBRANCH  21  22
ENDBRANCH   5  21
TORSDOF 3
