REMARK  Name = ZINCrD00000hQ6SJ.0
REMARK                            x       y       z     vdW  Elec       q    Type
REMARK                         _______ _______ _______ _____ _____    ______ ____
ROOT
ATOM      1  N   LIG    1       -2.386  -0.333   3.986  0.00  0.00    -0.490 N 
ATOM      2  C   LIG    1       -3.066  -0.211   2.689  0.00  0.00    +0.180 C 
ATOM      3  C   LIG    1       -2.148  -0.741   1.583  0.00  0.00    +0.310 C 
ATOM      4  N   LIG    1       -0.856  -0.045   1.675  0.00  0.00    -1.000 NA
ATOM      5  C   LIG    1       -0.175  -0.011   2.978  0.00  0.00    +0.310 C 
ATOM      6  C   LIG    1       -1.173   0.495   4.031  0.00  0.00    +0.180 C 
ENDROOT
BRANCH   1  12
ATOM      7  C   LIG    1       -3.618  -0.988   5.955  0.00  0.00    -0.050 A 
ATOM      8  C   LIG    1       -4.472  -0.669   6.992  0.00  0.00    +0.010 A 
ATOM      9  C   LIG    1       -4.960   0.619   7.117  0.00  0.00    +0.000 A 
ATOM     10  C   LIG    1       -4.596   1.591   6.204  0.00  0.00    +0.000 A 
ATOM     11  C   LIG    1       -3.738   1.280   5.167  0.00  0.00    -0.030 A 
ATOM     12  C   LIG    1       -3.250  -0.014   5.036  0.00  0.00    +0.090 A 
BRANCH   7  14
ATOM     13  C   LIG    1       -1.679  -2.464   6.416  0.00  0.00    +0.030 C 
ATOM     14  C   LIG    1       -3.087  -2.392   5.820  0.00  0.00    +0.070 C 
ENDBRANCH   7  14
ENDBRANCH   1  12
BRANCH   4  15
ATOM     15  S   LIG    1       -0.182   0.677   0.345  0.00  0.00    +2.700 S 
ATOM     16  O   LIG    1        1.226   0.629   0.533  0.00  0.00    -0.950 OA
ATOM     17  O   LIG    1       -0.834   0.119  -0.788  0.00  0.00    -0.950 OA
BRANCH  15  18
ATOM     18  C   LIG    1       -0.633   2.379   0.391  0.00  0.00    -0.720 A 
ATOM     19  C   LIG    1        0.335   3.344   0.602  0.00  0.00    +0.170 A 
ATOM     20  C   LIG    1       -0.017   4.680   0.638  0.00  0.00    -0.140 A 
ATOM     21  C   LIG    1       -1.341   5.053   0.462  0.00  0.00    +0.190 A 
ATOM     22  C   LIG    1       -2.310   4.083   0.250  0.00  0.00    -0.090 A 
ATOM     23  C   LIG    1        1.039   5.731   0.868  0.00  0.00    +0.100 C 
ATOM     24  C   LIG    1       -1.953   2.749   0.209  0.00  0.00    +0.060 A 
ATOM     25  C   LIG    1       -3.004   1.695  -0.027  0.00  0.00    +0.100 C 
BRANCH  21  26
ATOM     26  O   LIG    1       -1.689   6.366   0.498  0.00  0.00    -0.310 OA
ATOM     27  C   LIG    1       -3.071   6.676   0.309  0.00  0.00    +0.250 C 
ENDBRANCH  21  26
ENDBRANCH  15  18
ENDBRANCH   4  15
TORSDOF 5
