REMARK  Name = ZINCpk00000y6zce.0
REMARK                            x       y       z     vdW  Elec       q    Type
REMARK                         _______ _______ _______ _____ _____    ______ ____
ROOT
ATOM      1  C   LIG    1       -3.752   1.887   4.129  0.00  0.00    +0.170 C 
ATOM      2  C   LIG    1       -2.542   0.974   4.371  0.00  0.00    +0.310 C 
ATOM      3  N   LIG    1       -2.007   1.426   3.079  0.00  0.00    -0.660 N 
ATOM      4  C   LIG    1       -1.188   0.918   2.136  0.00  0.00    +0.740 C 
ATOM      5  N   LIG    1       -0.902   1.638   1.033  0.00  0.00    -0.710 N 
ATOM      6  H   LIG    1       -1.285   2.522   0.917  0.00  0.00    +0.400 HD
ATOM      7  O   LIG    1       -0.708  -0.190   2.280  0.00  0.00    -0.580 OA
ATOM      8  C   LIG    1       -2.752   2.679   3.270  0.00  0.00    +0.250 C 
ENDROOT
BRANCH   5   9
ATOM      9  C   LIG    1       -0.013   1.086   0.008  0.00  0.00    +0.260 C 
ATOM     10  C   LIG    1        1.389   1.723  -0.002  0.00  0.00    +0.010 C 
ATOM     11  C   LIG    1        0.831   2.758  -0.996  0.00  0.00    +0.170 C 
ATOM     12  C   LIG    1       -0.209   1.704  -1.376  0.00  0.00    -0.120 C 
ATOM     13  C   LIG    1       -1.599   2.108  -1.872  0.00  0.00    +0.030 C 
ATOM     14  C   LIG    1       -1.081   1.817  -3.292  0.00  0.00    +0.010 C 
ATOM     15  C   LIG    1       -0.058   0.866  -2.646  0.00  0.00    +0.050 C 
BRANCH  11  16
ATOM     16  O   LIG    1        0.274   3.914  -0.367  0.00  0.00    -0.370 OA
ATOM     17  C   LIG    1        1.048   5.102  -0.544  0.00  0.00    +0.200 C 
ENDBRANCH  11  16
ENDBRANCH   5   9
BRANCH   1  18
ATOM     18  O   LIG    1       -4.202   2.584   5.292  0.00  0.00    -0.360 OA
BRANCH  18  19
ATOM     19  C   LIG    1       -5.604   2.862   5.296  0.00  0.00    +0.360 C 
BRANCH  19  23
ATOM     20  C   LIG    1       -6.357   5.087   8.011  0.00  0.00    +0.170 A 
ATOM     21  N   LIG    1       -6.561   3.916   8.537  0.00  0.00    -0.370 NA
ATOM     22  O   LIG    1       -6.342   3.046   7.721  0.00  0.00    +0.090 OA
ATOM     23  C   LIG    1       -5.966   3.596   6.562  0.00  0.00    +0.180 A 
ATOM     24  N   LIG    1       -5.968   4.895   6.738  0.00  0.00    -0.460 NA
BRANCH  20  26
ATOM     25  C   LIG    1       -5.198   6.815   9.361  0.00  0.00    +0.040 C 
ATOM     26  C   LIG    1       -6.521   6.416   8.703  0.00  0.00    +0.160 C 
ENDBRANCH  20  26
ENDBRANCH  19  23
ENDBRANCH  18  19
ENDBRANCH   1  18
TORSDOF 6
