REMARK  Name = ZINCpk00000xHZBk.0
REMARK                            x       y       z     vdW  Elec       q    Type
REMARK                         _______ _______ _______ _____ _____    ______ ____
ROOT
ATOM      1  N   LIG    1       -2.317   4.753   6.618  0.00  0.00    -0.750 N 
ATOM      2  H   LIG    1       -3.055   4.188   6.896  0.00  0.00    +0.400 HD
ATOM      3  C   LIG    1       -1.542   4.385   5.579  0.00  0.00    +0.700 C 
ATOM      4  N   LIG    1       -1.792   3.232   4.926  0.00  0.00    -0.740 N 
ATOM      5  H   LIG    1       -2.530   2.668   5.205  0.00  0.00    +0.400 HD
ATOM      6  O   LIG    1       -0.617   5.093   5.230  0.00  0.00    -0.590 OA
ENDROOT
BRANCH   4   7
ATOM      7  C   LIG    1       -0.950   2.833   3.797  0.00  0.00    +0.250 C 
ATOM      8  C   LIG    1       -0.998   1.311   3.635  0.00  0.00    +0.040 C 
ATOM      9  C   LIG    1       -0.165   0.905   2.417  0.00  0.00    +0.180 C 
ATOM     10  N   LIG    1       -0.700   1.560   1.217  0.00  0.00    -0.520 NA
ATOM     11  C   LIG    1       -0.620   3.022   1.329  0.00  0.00    +0.180 C 
ATOM     12  C   LIG    1       -1.466   3.491   2.514  0.00  0.00    +0.020 C 
BRANCH  10  13
ATOM     13  C   LIG    1       -0.013   1.086   0.008  0.00  0.00    +0.210 C 
BRANCH  13  14
ATOM     14  C   LIG    1       -0.742   1.585  -1.213  0.00  0.00    +0.520 C 
ATOM     15  O   LIG    1       -1.736   2.268  -1.088  0.00  0.00    -0.520 OA
ATOM     16  N   LIG    1       -0.288   1.272  -2.443  0.00  0.00    -0.860 N 
ATOM     17  H   LIG    1       -0.758   1.594  -3.229  0.00  0.00    +0.400 HD
ATOM     18  H   LIG    1        0.507   0.726  -2.543  0.00  0.00    +0.400 HD
ENDBRANCH  13  14
ENDBRANCH  10  13
ENDBRANCH   4   7
BRANCH   1  19
ATOM     19  C   LIG    1       -2.046   6.006   7.327  0.00  0.00    +0.280 C 
BRANCH  19  20
ATOM     20  C   LIG    1       -3.064   6.184   8.455  0.00  0.00    +0.010 C 
BRANCH  20  21
ATOM     21  C   LIG    1       -2.780   7.493   9.196  0.00  0.00    +0.080 C 
BRANCH  21  26
ATOM     22  C   LIG    1       -6.625   8.167  13.457  0.00  0.00    +0.090 C 
ATOM     23  C   LIG    1       -5.622   7.991  12.346  0.00  0.00    -0.090 A 
ATOM     24  C   LIG    1       -5.843   8.581  11.115  0.00  0.00    -0.010 A 
ATOM     25  C   LIG    1       -4.923   8.420  10.096  0.00  0.00    +0.010 A 
ATOM     26  C   LIG    1       -3.783   7.668  10.307  0.00  0.00    -0.090 A 
ATOM     27  C   LIG    1       -3.564   7.074  11.536  0.00  0.00    -0.080 A 
ATOM     28  C   LIG    1       -2.323   6.249  11.764  0.00  0.00    +0.090 C 
ATOM     29  C   LIG    1       -4.481   7.239  12.557  0.00  0.00    +0.000 A 
ENDBRANCH  21  26
ENDBRANCH  20  21
ENDBRANCH  19  20
ENDBRANCH   1  19
TORSDOF 7
