REMARK  Name = ZINCrH000004upww.0
REMARK                            x       y       z     vdW  Elec       q    Type
REMARK                         _______ _______ _______ _____ _____    ______ ____
ROOT
ATOM      1  O   LIG    1       -2.257   1.463   0.011  0.00  0.00    -0.570 OA
ATOM      2  C   LIG    1       -1.220   2.097   0.017  0.00  0.00    +0.700 C 
ATOM      3  N   LIG    1       -0.036   1.452   0.011  0.00  0.00    -0.730 N 
ATOM      4  H   LIG    1        0.792   1.958   0.012  0.00  0.00    +0.400 HD
ATOM      5  N   LIG    1       -1.253   3.444   0.028  0.00  0.00    -0.740 N 
ATOM      6  H   LIG    1       -0.425   3.950   0.033  0.00  0.00    +0.400 HD
ENDROOT
BRANCH   3   7
ATOM      7  C   LIG    1        0.000  -0.013  -0.001  0.00  0.00    +0.270 C 
ATOM      8  C   LIG    1        1.323  -0.516  -0.624  0.00  0.00    +0.080 C 
ATOM      9  C   LIG    1        2.207  -0.711   0.628  0.00  0.00    +0.280 C 
ATOM     10  N   LIG    1        1.271  -0.942   1.735  0.00  0.00    -0.560 N 
ATOM     11  C   LIG    1        0.026  -0.554   1.411  0.00  0.00    +0.500 C 
ATOM     12  O   LIG    1       -0.938  -0.626   2.145  0.00  0.00    -0.480 OA
BRANCH  10  13
ATOM     13  C   LIG    1        1.630  -1.496   2.970  0.00  0.00    +0.170 A 
ATOM     14  C   LIG    1        2.917  -1.976   3.169  0.00  0.00    +0.010 A 
ATOM     15  C   LIG    1        3.270  -2.522   4.388  0.00  0.00    +0.040 A 
ATOM     16  C   LIG    1        2.340  -2.591   5.412  0.00  0.00    +0.080 A 
ATOM     17  C   LIG    1        1.054  -2.113   5.216  0.00  0.00    -0.040 A 
ATOM     18 CL   LIG    1       -0.110  -2.201   6.501  0.00  0.00    -0.040 Cl
ATOM     19  F   LIG    1        2.687  -3.125   6.603  0.00  0.00    -0.130 F 
ATOM     20  C   LIG    1        0.700  -1.561   3.999  0.00  0.00    +0.050 A 
ENDBRANCH  10  13
ENDBRANCH   3   7
BRANCH   5  21
ATOM     21  C   LIG    1       -2.539   4.145   0.034  0.00  0.00    +0.280 C 
BRANCH  21  22
ATOM     22  C   LIG    1       -2.297   5.655   0.047  0.00  0.00    -0.010 C 
ATOM     23  C   LIG    1       -1.615   6.051   1.358  0.00  0.00    +0.020 C 
ATOM     24  C   LIG    1       -2.498   7.047   2.113  0.00  0.00    -0.020 C 
ATOM     25  C   LIG    1       -2.711   8.294   1.252  0.00  0.00    +0.010 C 
ATOM     26  C   LIG    1       -3.393   7.898  -0.059  0.00  0.00    +0.010 C 
ATOM     27  C   LIG    1       -3.851   6.401   2.417  0.00  0.00    +0.000 C 
ATOM     28  C   LIG    1       -4.533   6.005   1.106  0.00  0.00    +0.010 C 
ATOM     29  C   LIG    1       -3.635   6.388  -0.072  0.00  0.00    -0.010 C 
ENDBRANCH  21  22
ENDBRANCH   5  21
TORSDOF 4
