REMARK  Name = ZINCpe00000yXEy4.0
REMARK                            x       y       z     vdW  Elec       q    Type
REMARK                         _______ _______ _______ _____ _____    ______ ____
ROOT
ATOM      1  C   LIG    1       -1.739   4.920  -1.745  0.00  0.00    +0.500 C 
ATOM      2  N   LIG    1       -1.190   5.723  -0.813  0.00  0.00    -0.610 N 
ATOM      3  C   LIG    1       -1.575   7.139  -0.725  0.00  0.00    +0.270 C 
ATOM      4  C   LIG    1       -2.057   7.428   0.702  0.00  0.00    +0.270 C 
ATOM      5  N   LIG    1       -1.062   6.905   1.649  0.00  0.00    -0.620 N 
ATOM      6  C   LIG    1       -0.677   5.489   1.561  0.00  0.00    +0.300 C 
ATOM      7  C   LIG    1       -0.514   7.709   2.581  0.00  0.00    +0.510 C 
ATOM      8  O   LIG    1        0.306   7.265   3.357  0.00  0.00    -0.510 OA
ATOM      9  C   LIG    1       -0.195   5.200   0.134  0.00  0.00    +0.270 C 
ATOM     10  O   LIG    1       -1.464   3.739  -1.766  0.00  0.00    -0.480 OA
ENDROOT
BRANCH   9  11
ATOM     11  C   LIG    1       -0.048   3.713  -0.059  0.00  0.00    -0.060 A 
ATOM     12  C   LIG    1        1.132   3.194  -0.560  0.00  0.00    +0.000 A 
ATOM     13  C   LIG    1        1.268   1.830  -0.736  0.00  0.00    +0.000 A 
ATOM     14  C   LIG    1        0.224   0.984  -0.410  0.00  0.00    +0.010 A 
ATOM     15  C   LIG    1       -0.957   1.503   0.086  0.00  0.00    -0.010 A 
ATOM     16  C   LIG    1       -1.092   2.867   0.266  0.00  0.00    +0.050 A 
ENDBRANCH   9  11
BRANCH   1  18
ATOM     17  C   LIG    1       -1.910   6.276  -3.815  0.00  0.00    +0.080 C 
ATOM     18  C   LIG    1       -2.694   5.489  -2.763  0.00  0.00    +0.260 C 
BRANCH  18  19
ATOM     19  N   LIG    1       -3.423   4.397  -3.413  0.00  0.00    -0.360 N 
ATOM     20  C   LIG    1       -2.999   3.682  -4.476  0.00  0.00    +0.240 A 
ATOM     21  C   LIG    1       -3.955   2.770  -4.767  0.00  0.00    -0.120 A 
ATOM     22  C   LIG    1       -5.003   2.938  -3.856  0.00  0.00    +0.230 A 
ATOM     23  N   LIG    1       -4.685   3.913  -3.043  0.00  0.00    -0.300 NA
ENDBRANCH  18  19
ENDBRANCH   1  18
BRANCH   7  24
ATOM     24  C   LIG    1       -0.918   9.158   2.659  0.00  0.00    +0.220 C 
BRANCH  24  25
ATOM     25  O   LIG    1       -0.204   9.796   3.720  0.00  0.00    -0.550 OA
ATOM     26  H   LIG    1       -0.415  10.733   3.828  0.00  0.00    +0.390 HD
ENDBRANCH  24  25
ENDBRANCH   7  24
TORSDOF 5
