REMARK  Name = ZINCb70000004Td0.0
REMARK                            x       y       z     vdW  Elec       q    Type
REMARK                         _______ _______ _______ _____ _____    ______ ____
ROOT
ATOM      1  N   LIG    1       -1.413  -1.998   0.005  0.00  0.00    -0.490 N 
ATOM      2  C   LIG    1       -1.513  -2.809  -1.076  0.00  0.00    +0.390 A 
ATOM      3  N   LIG    1       -1.448  -4.040  -0.646  0.00  0.00    -0.270 NA
ATOM      4  N   LIG    1       -1.324  -4.045   0.633  0.00  0.00    -0.270 NA
ATOM      5  C   LIG    1       -1.298  -2.818   1.078  0.00  0.00    +0.210 A 
ENDROOT
BRANCH   5   6
ATOM      6  C   LIG    1       -1.165  -2.392   2.517  0.00  0.00    +0.010 C 
ATOM      7  C   LIG    1       -0.842  -3.475   3.548  0.00  0.00    +0.090 C 
ATOM      8  C   LIG    1       -2.243  -2.861   3.495  0.00  0.00    +0.060 C 
ENDBRANCH   5   6
BRANCH   1   9
ATOM      9  C   LIG    1       -1.433  -0.534   0.013  0.00  0.00    +0.330 C 
BRANCH   9  10
ATOM     10  C   LIG    1        0.002  -0.004   0.002  0.00  0.00    +0.250 C 
BRANCH  10  11
ATOM     11  N   LIG    1       -0.018   1.465   0.010  0.00  0.00    -0.630 N 
ATOM     12  H   LIG    1       -0.490   1.790   0.840  0.00  0.00    +0.440 HD
ATOM     13  H   LIG    1       -0.506   1.799  -0.807  0.00  0.00    +0.440 HD
ATOM     14  H   LIG    1        0.929   1.814   0.003  0.00  0.00    +0.450 HD
ENDBRANCH  10  11
ENDBRANCH   9  10
ENDBRANCH   1   9
TORSDOF 4
