REMARK  Name = ZINCrH000004nOJ0.0
REMARK                            x       y       z     vdW  Elec       q    Type
REMARK                         _______ _______ _______ _____ _____    ______ ____
ROOT
ATOM      1  C   LIG    1        3.469   3.699  -0.504  0.00  0.00    +0.560 C 
ATOM      2  N   LIG    1        2.350   4.254   0.002  0.00  0.00    -0.670 N 
ATOM      3  H   LIG    1        2.374   5.156   0.358  0.00  0.00    +0.410 HD
ATOM      4  O   LIG    1        3.420   2.608  -1.036  0.00  0.00    -0.500 OA
ENDROOT
BRANCH   1   9
ATOM      5  C   LIG    1        7.117   4.524  -0.846  0.00  0.00    -0.670 A 
ATOM      6  C   LIG    1        7.170   5.767  -0.240  0.00  0.00    +0.150 A 
ATOM      7  C   LIG    1        6.023   6.339   0.281  0.00  0.00    +0.000 A 
ATOM      8  C   LIG    1        4.817   5.675   0.194  0.00  0.00    +0.110 A 
ATOM      9  C   LIG    1        4.757   4.419  -0.411  0.00  0.00    -0.160 A 
ATOM     10  C   LIG    1        5.918   3.847  -0.935  0.00  0.00    +0.200 A 
BRANCH   5  12
ATOM     11  C   LIG    1        8.642   4.389  -3.222  0.00  0.00    -0.250 C 
ATOM     12  S   LIG    1        8.584   3.805  -1.506  0.00  0.00    +2.500 S 
ATOM     13  O   LIG    1        8.338   2.406  -1.463  0.00  0.00    -0.930 OA
ATOM     14  O   LIG    1        9.633   4.388  -0.745  0.00  0.00    -0.930 OA
ENDBRANCH   5  12
ENDBRANCH   1   9
BRANCH   2  15
ATOM     15  C   LIG    1        1.154   3.528   0.015  0.00  0.00    +0.150 A 
ATOM     16  C   LIG    1       -0.059   4.186  -0.146  0.00  0.00    +0.000 A 
ATOM     17  C   LIG    1       -1.245   3.475  -0.134  0.00  0.00    +0.040 A 
ATOM     18  C   LIG    1       -1.231   2.106   0.033  0.00  0.00    +0.020 A 
ATOM     19  C   LIG    1       -0.017   1.434   0.201  0.00  0.00    +0.040 A 
ATOM     20  C   LIG    1        1.180   2.154   0.189  0.00  0.00    +0.040 A 
BRANCH  19  21
ATOM     21  C   LIG    1        0.001   0.013   0.379  0.00  0.00    -0.120 C 
ATOM     22  C   LIG    1        0.015  -1.151   0.526  0.00  0.00    -0.110 C 
BRANCH  22  23
ATOM     23  C   LIG    1        0.032  -2.572   0.704  0.00  0.00    +0.010 A 
ATOM     24  C   LIG    1        1.246  -3.245   0.861  0.00  0.00    +0.040 A 
ATOM     25  C   LIG    1        1.255  -4.613   1.037  0.00  0.00    +0.010 A 
ATOM     26  C   LIG    1        0.065  -5.320   1.048  0.00  0.00    +0.020 A 
ATOM     27  C   LIG    1       -1.141  -4.661   0.888  0.00  0.00    +0.010 A 
ATOM     28  C   LIG    1       -1.165  -3.293   0.716  0.00  0.00    +0.040 A 
ENDBRANCH  22  23
ENDBRANCH  19  21
ENDBRANCH   2  15
TORSDOF 5
