REMARK  Name = ZINCqH00000072es.0
REMARK                            x       y       z     vdW  Elec       q    Type
REMARK                         _______ _______ _______ _____ _____    ______ ____
ROOT
ATOM      1  C   LIG    1       -0.428   1.859  -0.504  0.00  0.00    +0.290 C 
ATOM      2  C   LIG    1        0.336   1.541   0.798  0.00  0.00    +0.050 C 
ATOM      3  C   LIG    1       -0.584   2.131   1.899  0.00  0.00    +0.040 C 
ATOM      4  C   LIG    1       -1.148   3.389   1.188  0.00  0.00    +0.240 C 
ATOM      5  N   LIG    1       -1.333   2.981  -0.216  0.00  0.00    -0.610 N 
ATOM      6  C   LIG    1       -2.190   3.543  -1.091  0.00  0.00    +0.600 C 
ATOM      7  O   LIG    1       -2.200   3.180  -2.251  0.00  0.00    -0.500 OA
ENDROOT
BRANCH   6   8
ATOM      8  C   LIG    1       -3.117   4.600  -0.641  0.00  0.00    -0.240 A 
ATOM      9  C   LIG    1       -4.264   4.276   0.056  0.00  0.00    +0.240 A 
ATOM     10  N   LIG    1       -5.093   5.277   0.461  0.00  0.00    -0.310 N 
ATOM     11  N   LIG    1       -6.299   5.274   1.171  0.00  0.00    -0.310 NA
ATOM     12  C   LIG    1       -6.715   6.512   1.304  0.00  0.00    +0.300 A 
ATOM     13  C   LIG    1       -5.804   7.363   0.692  0.00  0.00    -0.090 A 
ATOM     14  C   LIG    1       -4.787   6.582   0.164  0.00  0.00    +0.260 A 
ATOM     15  N   LIG    1       -3.674   6.891  -0.519  0.00  0.00    -0.460 NA
ATOM     16  C   LIG    1       -4.590   2.838   0.369  0.00  0.00    +0.170 C 
ATOM     17  C   LIG    1       -2.846   5.961  -0.922  0.00  0.00    +0.400 A 
ENDBRANCH   6   8
BRANCH   1  24
ATOM     18  C   LIG    1        1.143   1.271  -2.368  0.00  0.00    +0.160 A 
ATOM     19  C   LIG    1        2.034   1.634  -3.367  0.00  0.00    -0.060 A 
ATOM     20  C   LIG    1        2.332   2.967  -3.576  0.00  0.00    +0.090 A 
ATOM     21  C   LIG    1        1.738   3.940  -2.793  0.00  0.00    -0.130 A 
ATOM     22  C   LIG    1        0.844   3.581  -1.799  0.00  0.00    +0.100 A 
ATOM     23 BR   LIG    1        2.147   5.764  -3.080  0.00  0.00    -0.050 Br
ATOM     24  C   LIG    1        0.544   2.249  -1.587  0.00  0.00    -0.110 A 
BRANCH  18  26
ATOM     25  C   LIG    1        1.507  -0.992  -2.999  0.00  0.00    +0.240 C 
ATOM     26  O   LIG    1        0.854  -0.040  -2.157  0.00  0.00    -0.310 OA
ENDBRANCH  18  26
ENDBRANCH   1  24
TORSDOF 3
