REMARK  Name = ZINCnE000001TBw8.2
REMARK                            x       y       z     vdW  Elec       q    Type
REMARK                         _______ _______ _______ _____ _____    ______ ____
ROOT
ATOM      1  N   LIG    1       -1.587  -0.536   1.608  0.00  0.00    -0.480 NA
ATOM      2  C   LIG    1       -2.537  -0.955   2.672  0.00  0.00    +0.170 C 
ATOM      3  C   LIG    1       -2.435   0.150   3.744  0.00  0.00    -0.010 C 
ATOM      4  C   LIG    1       -1.924   1.395   2.990  0.00  0.00    +0.010 C 
ATOM      5  C   LIG    1       -1.761   0.937   1.525  0.00  0.00    +0.160 C 
ENDROOT
BRANCH   1   6
ATOM      6  C   LIG    1       -1.911  -1.177   0.327  0.00  0.00    +0.140 C 
BRANCH   6   7
ATOM      7  C   LIG    1       -1.950  -2.673   0.509  0.00  0.00    -0.060 A 
ATOM      8  C   LIG    1       -2.800  -3.272   1.345  0.00  0.00    -0.030 A 
ATOM      9  S   LIG    1       -2.555  -5.013   1.288  0.00  0.00    +0.050 S 
ATOM     10  C   LIG    1       -1.269  -4.823   0.104  0.00  0.00    -0.060 A 
ATOM     11  C   LIG    1       -1.103  -3.529  -0.174  0.00  0.00    +0.020 A 
ENDBRANCH   6   7
BRANCH   6  13
ATOM     12  O   LIG    1       -3.560  -0.798  -1.327  0.00  0.00    -0.680 OA
ATOM     13  C   LIG    1       -3.257  -0.694  -0.151  0.00  0.00    +0.500 C 
ATOM     14  O   LIG    1       -4.042  -0.199   0.640  0.00  0.00    -0.690 OA
ENDBRANCH   6  13
ENDBRANCH   1   6
BRANCH   5  15
ATOM     15  C   LIG    1       -0.525   1.585   0.898  0.00  0.00    +0.000 C 
BRANCH  15  16
ATOM     16  C   LIG    1       -0.507   1.300  -0.606  0.00  0.00    +0.250 C 
BRANCH  16  17
ATOM     17  C   LIG    1        0.663   2.010  -1.237  0.00  0.00    -0.100 A 
ATOM     18  C   LIG    1        0.577   3.357  -1.534  0.00  0.00    +0.010 A 
ATOM     19  C   LIG    1        1.651   4.009  -2.109  0.00  0.00    +0.000 A 
ATOM     20  C   LIG    1        2.809   3.311  -2.397  0.00  0.00    -0.010 A 
ATOM     21  C   LIG    1        2.894   1.962  -2.104  0.00  0.00    +0.000 A 
ATOM     22  C   LIG    1        1.821   1.312  -1.525  0.00  0.00    +0.010 A 
ENDBRANCH  16  17
BRANCH  16  23
ATOM     23  O   LIG    1       -1.722   1.769  -1.194  0.00  0.00    -0.530 OA
ATOM     24  H   LIG    1       -1.871   2.718  -1.085  0.00  0.00    +0.360 HD
ENDBRANCH  16  23
ENDBRANCH  15  16
ENDBRANCH   5  15
TORSDOF 7
