REMARK  Name = ZINCrg000000mQyI.0
REMARK                            x       y       z     vdW  Elec       q    Type
REMARK                         _______ _______ _______ _____ _____    ______ ____
ROOT
ATOM      1  N   LIG    1        1.075   5.427  -1.242  0.00  0.00    -0.510 NA
ATOM      2  C   LIG    1        1.637   4.298  -1.995  0.00  0.00    +0.200 C 
ENDROOT
BRANCH   1   3
ATOM      3  C   LIG    1        1.962   6.596  -1.306  0.00  0.00    +0.200 C 
BRANCH   3  11
ATOM      4  C   LIG    1        5.998  10.931  -5.524  0.00  0.00    +0.090 C 
ATOM      5  C   LIG    1        5.847  10.493  -4.090  0.00  0.00    +0.520 C 
ATOM      6  N   LIG    1        5.090   9.419  -3.790  0.00  0.00    -0.620 N 
ATOM      7  C   LIG    1        4.316   8.734  -4.835  0.00  0.00    +0.270 C 
ATOM      8  C   LIG    1        2.845   8.684  -4.402  0.00  0.00    +0.280 C 
ATOM      9  N   LIG    1        2.779   8.177  -3.024  0.00  0.00    -0.620 N 
ATOM     10  C   LIG    1        3.548   8.866  -1.978  0.00  0.00    +0.270 C 
ATOM     11  C   LIG    1        2.021   7.104  -2.724  0.00  0.00    +0.520 C 
ATOM     12  O   LIG    1        1.386   6.547  -3.594  0.00  0.00    -0.510 OA
ATOM     13  C   LIG    1        5.023   8.913  -2.412  0.00  0.00    +0.280 C 
ATOM     14  O   LIG    1        6.406  11.107  -3.206  0.00  0.00    -0.540 OA
ENDBRANCH   3  11
ENDBRANCH   1   3
BRANCH   1  15
ATOM     15  C   LIG    1        0.804   5.048   0.152  0.00  0.00    +0.300 C 
BRANCH  15  16
ATOM     16  C   LIG    1       -0.291   4.013   0.187  0.00  0.00    +0.220 A 
ATOM     17  N   LIG    1       -0.118   2.721   0.136  0.00  0.00    -0.480 NA
ATOM     18  C   LIG    1       -1.312   2.112   0.191  0.00  0.00    +0.140 A 
ATOM     19  C   LIG    1       -2.261   3.064   0.273  0.00  0.00    +0.120 A 
ATOM     20  N   LIG    1       -1.614   4.270   0.277  0.00  0.00    -0.440 N 
BRANCH  20  21
ATOM     21  C   LIG    1       -2.239   5.593   0.356  0.00  0.00    +0.350 C 
BRANCH  21  22
ATOM     22  C   LIG    1       -2.429   6.143  -1.034  0.00  0.00    -0.120 A 
ATOM     23  C   LIG    1       -1.436   6.908  -1.616  0.00  0.00    +0.060 A 
ATOM     24  C   LIG    1       -1.608   7.409  -2.893  0.00  0.00    +0.020 A 
ATOM     25  C   LIG    1       -2.777   7.152  -3.584  0.00  0.00    +0.010 A 
ATOM     26  C   LIG    1       -3.773   6.391  -3.000  0.00  0.00    -0.010 A 
ATOM     27  C   LIG    1       -3.598   5.886  -1.725  0.00  0.00    +0.020 A 
ENDBRANCH  21  22
ENDBRANCH  20  21
ENDBRANCH  15  16
ENDBRANCH   1  15
TORSDOF 6
