REMARK  Name = ZINCrg000000rLV4.0
REMARK                            x       y       z     vdW  Elec       q    Type
REMARK                         _______ _______ _______ _____ _____    ______ ____
ROOT
ATOM      1  C   LIG    1        1.203   1.808   0.000  0.00  0.00    +0.290 A 
ATOM      2  N   LIG    1       -0.016   1.354   0.009  0.00  0.00    -0.480 NA
ATOM      3  C   LIG    1        0.002  -0.004   0.002  0.00  0.00    +0.030 A 
ATOM      4  C   LIG    1       -0.996  -0.981   0.006  0.00  0.00    +0.200 A 
ATOM      5  C   LIG    1       -0.654  -2.304  -0.003  0.00  0.00    -0.680 A 
ATOM      6  C   LIG    1        0.678  -2.690  -0.018  0.00  0.00    +0.130 A 
ATOM      7  C   LIG    1        1.680  -1.743  -0.023  0.00  0.00    +0.010 A 
ATOM      8  C   LIG    1        1.352  -0.395  -0.013  0.00  0.00    +0.090 A 
ATOM      9  N   LIG    1        2.087   0.774  -0.014  0.00  0.00    -0.490 N 
ATOM     10  C   LIG    1        3.548   0.881  -0.027  0.00  0.00    +0.330 C 
ENDROOT
BRANCH   5  11
ATOM     11  S   LIG    1       -1.918  -3.532   0.004  0.00  0.00    +2.700 S 
ATOM     12  O   LIG    1       -1.341  -4.705  -0.551  0.00  0.00    -0.950 OA
ATOM     13  O   LIG    1       -3.082  -2.912  -0.525  0.00  0.00    -0.950 OA
BRANCH  11  14
ATOM     14  N   LIG    1       -2.254  -3.881   1.588  0.00  0.00    -1.010 NA
ATOM     15  C   LIG    1       -1.518  -4.945   2.275  0.00  0.00    +0.300 C 
ATOM     16  C   LIG    1       -3.286  -3.125   2.302  0.00  0.00    +0.300 C 
ENDBRANCH  11  14
ENDBRANCH   5  11
BRANCH   1  17
ATOM     17  C   LIG    1        1.581   3.267   0.004  0.00  0.00    +0.180 C 
BRANCH  17  18
ATOM     18  C   LIG    1        1.723   3.752   1.448  0.00  0.00    +0.060 C 
BRANCH  18  25
ATOM     19  C   LIG    1        2.166   9.451   3.799  0.00  0.00    +0.070 C 
ATOM     20  C   LIG    1        1.690   8.011   3.597  0.00  0.00    +0.130 C 
ATOM     21  C   LIG    1        2.651   7.281   2.651  0.00  0.00    +0.260 C 
ATOM     22  N   LIG    1        2.281   5.857   2.622  0.00  0.00    -0.620 N 
ATOM     23  C   LIG    1        2.109   5.161   3.906  0.00  0.00    +0.250 C 
ATOM     24  C   LIG    1        1.180   5.992   4.791  0.00  0.00    +0.220 C 
ATOM     25  C   LIG    1        2.101   5.211   1.453  0.00  0.00    +0.520 C 
ATOM     26  O   LIG    1        2.243   5.804   0.404  0.00  0.00    -0.530 OA
ATOM     27  O   LIG    1        1.666   7.335   4.856  0.00  0.00    -0.370 OA
ENDBRANCH  18  25
ENDBRANCH  17  18
ENDBRANCH   1  17
TORSDOF 5
