REMARK  Name = ZINCrD00000l2htH.0
REMARK                            x       y       z     vdW  Elec       q    Type
REMARK                         _______ _______ _______ _____ _____    ______ ____
ROOT
ATOM      1  C   LIG    1        1.642   3.544   0.141  0.00  0.00    +0.390 C 
ENDROOT
BRANCH   1   2
ATOM      2  C   LIG    1        0.920   4.045  -1.083  0.00  0.00    -0.080 A 
ATOM      3  C   LIG    1        1.623   4.313  -2.239  0.00  0.00    +0.030 A 
ATOM      4  C   LIG    1        0.960   4.768  -3.365  0.00  0.00    +0.030 A 
ATOM      5  C   LIG    1       -0.408   4.967  -3.337  0.00  0.00    +0.030 A 
ATOM      6  C   LIG    1       -1.123   4.708  -2.185  0.00  0.00    +0.040 A 
ATOM      7  C   LIG    1       -0.461   4.244  -1.047  0.00  0.00    -0.090 A 
BRANCH   7   8
ATOM      8  C   LIG    1       -1.220   3.964   0.190  0.00  0.00    +0.570 C 
ATOM      9  N   LIG    1       -2.267   3.115   0.161  0.00  0.00    -0.590 N 
ATOM     10  C   LIG    1       -2.580   2.380  -1.066  0.00  0.00    +0.280 C 
ATOM     11  O   LIG    1       -0.900   4.499   1.234  0.00  0.00    -0.540 OA
BRANCH   9  12
ATOM     12  C   LIG    1       -3.092   2.929   1.357  0.00  0.00    +0.230 C 
ATOM     13  C   LIG    1       -3.046   1.461   1.785  0.00  0.00    +0.020 C 
ATOM     14  C   LIG    1       -4.537   3.325   1.047  0.00  0.00    +0.030 C 
ENDBRANCH   9  12
ENDBRANCH   7   8
ENDBRANCH   1   2
BRANCH   1  17
ATOM     15  C   LIG    1        2.051  -0.026   0.316  0.00  0.00    +0.020 A 
ATOM     16  C   LIG    1        2.592   1.227   0.289  0.00  0.00    +0.170 A 
ATOM     17  N   LIG    1        1.549   2.083   0.200  0.00  0.00    -0.280 N 
ATOM     18  N   LIG    1        0.460   1.398   0.175  0.00  0.00    -0.060 NA
ATOM     19  N   LIG    1        0.719   0.140   0.242  0.00  0.00    -0.260 NA
BRANCH  15  23
ATOM     20  C   LIG    1        2.121  -5.032   0.536  0.00  0.00    +0.130 C 
ATOM     21  C   LIG    1        2.822  -3.698   0.514  0.00  0.00    -0.150 A 
ATOM     22  C   LIG    1        2.093  -2.526   0.427  0.00  0.00    +0.120 A 
ATOM     23  C   LIG    1        2.786  -1.312   0.409  0.00  0.00    -0.060 A 
ATOM     24  C   LIG    1        4.176  -1.329   0.474  0.00  0.00    +0.310 A 
ATOM     25  N   LIG    1        4.831  -2.469   0.562  0.00  0.00    -0.500 NA
ATOM     26  C   LIG    1        4.205  -3.632   0.581  0.00  0.00    +0.310 A 
ATOM     27  F   LIG    1        4.923  -4.773   0.667  0.00  0.00    -0.110 F 
ENDBRANCH  15  23
ENDBRANCH   1  17
TORSDOF 5
