REMARK  Name = ZINCrg000000nNoF.0
REMARK                            x       y       z     vdW  Elec       q    Type
REMARK                         _______ _______ _______ _____ _____    ______ ____
ROOT
ATOM      1  S   LIG    1       -0.017   1.417   0.010  0.00  0.00    +2.690 S 
ATOM      2  O   LIG    1        1.162   2.210   0.003  0.00  0.00    -0.940 OA
ATOM      3  O   LIG    1        0.002  -0.004   0.002  0.00  0.00    -0.940 OA
ENDROOT
BRANCH   1   4
ATOM      4  C   LIG    1       -0.930   1.894   1.440  0.00  0.00    -0.630 A 
ATOM      5  C   LIG    1       -0.728   3.140   2.004  0.00  0.00    +0.110 A 
ATOM      6  C   LIG    1       -1.447   3.516   3.123  0.00  0.00    +0.110 A 
ATOM      7  C   LIG    1       -2.361   2.643   3.683  0.00  0.00    -0.630 A 
ATOM      8  C   LIG    1       -2.559   1.395   3.122  0.00  0.00    +0.110 A 
ATOM      9  C   LIG    1       -1.843   1.021   2.000  0.00  0.00    +0.110 A 
BRANCH   7  10
ATOM     10  S   LIG    1       -3.274   3.120   5.113  0.00  0.00    +2.710 S 
ATOM     11  O   LIG    1       -4.452   2.327   5.120  0.00  0.00    -0.940 OA
ATOM     12  O   LIG    1       -3.293   4.541   5.121  0.00  0.00    -0.940 OA
BRANCH  10  13
ATOM     13  N   LIG    1       -2.391   2.658   6.435  0.00  0.00    -1.010 NA
ATOM     14  C   LIG    1       -2.493   1.362   7.123  0.00  0.00    +0.270 C 
ATOM     15  C   LIG    1       -1.502   1.392   8.306  0.00  0.00    +0.030 C 
ATOM     16  C   LIG    1       -1.315   2.911   8.562  0.00  0.00    +0.040 C 
ATOM     17  C   LIG    1       -1.377   3.479   7.122  0.00  0.00    +0.270 C 
ENDBRANCH  10  13
ENDBRANCH   7  10
ENDBRANCH   1   4
BRANCH   1  18
ATOM     18  N   LIG    1       -0.900   1.880  -1.312  0.00  0.00    -0.980 NA
BRANCH  18  20
ATOM     19  C   LIG    1       -3.266   1.259  -1.323  0.00  0.00    +0.020 C 
ATOM     20  C   LIG    1       -1.879   0.961  -1.898  0.00  0.00    +0.300 C 
ENDBRANCH  18  20
BRANCH  18  21
ATOM     21  C   LIG    1       -0.702   3.208  -1.897  0.00  0.00    +0.330 C 
BRANCH  21  22
ATOM     22  C   LIG    1        0.281   3.115  -3.035  0.00  0.00    +0.500 C 
ATOM     23  N   LIG    1        0.619   4.222  -3.726  0.00  0.00    -0.730 N 
ATOM     24  H   LIG    1        0.229   5.078  -3.491  0.00  0.00    +0.400 HD
ATOM     25  O   LIG    1        0.768   2.044  -3.329  0.00  0.00    -0.520 OA
BRANCH  23  26
ATOM     26  C   LIG    1        1.575   4.131  -4.833  0.00  0.00    +0.220 C 
ATOM     27  C   LIG    1        2.252   5.488  -5.034  0.00  0.00    +0.030 C 
ATOM     28  C   LIG    1        0.837   3.735  -6.113  0.00  0.00    +0.030 C 
ENDBRANCH  23  26
ENDBRANCH  21  22
ENDBRANCH  18  21
ENDBRANCH   1  18
TORSDOF 8
