REMARK  Name = ZINCqH0000050QbL.0
REMARK                            x       y       z     vdW  Elec       q    Type
REMARK                         _______ _______ _______ _____ _____    ______ ____
ROOT
ATOM      1  C   LIG    1       -1.299   2.122   0.020  0.00  0.00    +0.530 C 
ATOM      2  O   LIG    1       -2.348   1.507   0.021  0.00  0.00    -0.500 OA
ENDROOT
BRANCH   1  10
ATOM      3  C   LIG    1        0.766  -3.244  -0.023  0.00  0.00    +0.190 C 
ATOM      4  C   LIG    1        1.670  -2.038  -0.026  0.00  0.00    +0.130 A 
ATOM      5  N   LIG    1        2.971  -2.052  -0.038  0.00  0.00    -0.240 NA
ATOM      6  N   LIG    1        3.467  -0.745  -0.036  0.00  0.00    -0.390 N 
ATOM      7  C   LIG    1        2.422   0.135  -0.020  0.00  0.00    +0.340 A 
ATOM      8  N   LIG    1        2.349   1.462  -0.012  0.00  0.00    -0.510 NA
ATOM      9  C   LIG    1        1.198   2.092   0.002  0.00  0.00    +0.410 A 
ATOM     10  C   LIG    1       -0.017   1.392   0.010  0.00  0.00    -0.230 A 
ATOM     11  C   LIG    1        0.002  -0.004   0.002  0.00  0.00    +0.240 A 
ATOM     12  C   LIG    1        4.885  -0.376  -0.048  0.00  0.00    +0.370 C 
ATOM     13  C   LIG    1        1.244  -0.641  -0.013  0.00  0.00    -0.240 A 
ENDBRANCH   1  10
BRANCH   1  14
ATOM     14  O   LIG    1       -1.308   3.469   0.027  0.00  0.00    -0.350 OA
BRANCH  14  15
ATOM     15  C   LIG    1       -2.606   4.120   0.037  0.00  0.00    +0.350 C 
BRANCH  15  16
ATOM     16  C   LIG    1       -2.418   5.615   0.044  0.00  0.00    +0.060 A 
ATOM     17  C   LIG    1       -1.205   6.178   0.046  0.00  0.00    -0.030 A 
ATOM     18  S   LIG    1       -1.410   7.929   0.051  0.00  0.00    +0.110 S 
ATOM     19  C   LIG    1       -3.159   7.718   0.059  0.00  0.00    +0.120 A 
ATOM     20  N   LIG    1       -3.435   6.446   0.054  0.00  0.00    -0.460 NA
BRANCH  19  21
ATOM     21  C   LIG    1       -4.155   8.812   0.070  0.00  0.00    -0.030 A 
ATOM     22  C   LIG    1       -5.519   8.517   0.069  0.00  0.00    +0.070 A 
ATOM     23  C   LIG    1       -6.443   9.541   0.085  0.00  0.00    +0.010 A 
ATOM     24  C   LIG    1       -6.020  10.859   0.090  0.00  0.00    +0.030 A 
ATOM     25  C   LIG    1       -4.669  11.158   0.085  0.00  0.00    +0.010 A 
ATOM     26  C   LIG    1       -3.735  10.142   0.075  0.00  0.00    +0.030 A 
ENDBRANCH  19  21
ENDBRANCH  15  16
ENDBRANCH  14  15
ENDBRANCH   1  14
TORSDOF 5
