REMARK  Name = ZINCpe00000MJLO1.0
REMARK                            x       y       z     vdW  Elec       q    Type
REMARK                         _______ _______ _______ _____ _____    ______ ____
ROOT
ATOM      1  N   LIG    1        0.172   1.488   3.757  0.00  0.00    -0.540 N 
ATOM      2  C   LIG    1        1.345   1.717   4.382  0.00  0.00    +0.650 A 
ATOM      3  N   LIG    1        2.272   1.947   3.429  0.00  0.00    -0.460 N 
ATOM      4  N   LIG    1        1.627   1.847   2.188  0.00  0.00    -0.240 NA
ATOM      5  O   LIG    1        1.533   1.719   5.586  0.00  0.00    -0.550 OA
ATOM      6  C   LIG    1        0.382   1.571   2.402  0.00  0.00    +0.280 A 
ENDROOT
BRANCH   6   7
ATOM      7  C   LIG    1       -0.669   1.377   1.339  0.00  0.00    +0.250 C 
ATOM      8  O   LIG    1       -1.455   2.579   1.182  0.00  0.00    -0.360 OA
ATOM      9  C   LIG    1       -2.053   2.473  -0.129  0.00  0.00    +0.210 C 
ATOM     10  C   LIG    1       -0.935   1.893  -1.028  0.00  0.00    +0.010 C 
ATOM     11  C   LIG    1       -0.006   1.155  -0.038  0.00  0.00    -0.020 C 
ATOM     12  C   LIG    1        1.397   1.765  -0.062  0.00  0.00    +0.060 C 
ENDBRANCH   6   7
BRANCH   1  14
ATOM     13  C   LIG    1       -0.972  -0.075   5.251  0.00  0.00    +0.050 C 
ATOM     14  C   LIG    1       -1.106   1.198   4.412  0.00  0.00    +0.250 C 
ATOM     15  C   LIG    1       -1.492   2.368   5.319  0.00  0.00    +0.040 C 
ENDBRANCH   1  14
BRANCH   3  16
ATOM     16  C   LIG    1        3.689   2.247   3.650  0.00  0.00    +0.370 C 
BRANCH  16  17
ATOM     17  C   LIG    1        4.487   0.942   3.682  0.00  0.00    +0.000 C 
BRANCH  17  18
ATOM     18  C   LIG    1        5.967   1.254   3.912  0.00  0.00    +0.320 C 
BRANCH  18  19
ATOM     19  N   LIG    1        6.731   0.004   3.943  0.00  0.00    -0.580 N 
ATOM     20  C   LIG    1        6.973  -0.708   5.061  0.00  0.00    +0.520 C 
ATOM     21  C   LIG    1        7.787  -1.906   4.616  0.00  0.00    +0.320 C 
ATOM     22  N   LIG    1        7.928  -1.708   3.163  0.00  0.00    -0.730 N 
ATOM     23  H   LIG    1        8.397  -2.287   2.542  0.00  0.00    +0.440 HD
ATOM     24  O   LIG    1        6.613  -0.445   6.189  0.00  0.00    -0.460 OA
ATOM     25  C   LIG    1        7.279  -0.568   2.865  0.00  0.00    +0.700 C 
ATOM     26  O   LIG    1        7.199  -0.109   1.742  0.00  0.00    -0.540 OA
ENDBRANCH  18  19
ENDBRANCH  17  18
ENDBRANCH  16  17
ENDBRANCH   3  16
TORSDOF 6
