REMARK  Name = ZINCrg000000rUTY.1
REMARK                            x       y       z     vdW  Elec       q    Type
REMARK                         _______ _______ _______ _____ _____    ______ ____
ROOT
ATOM      1  C   LIG    1        3.453   6.455  -0.234  0.00  0.00    +0.610 C 
ATOM      2  N   LIG    1        2.386   5.671  -0.486  0.00  0.00    -0.720 N 
ATOM      3  H   LIG    1        1.504   6.066  -0.575  0.00  0.00    +0.410 HD
ATOM      4  O   LIG    1        4.558   5.960  -0.123  0.00  0.00    -0.520 OA
ENDROOT
BRANCH   1   7
ATOM      5  C   LIG    1        5.738   8.506   0.359  0.00  0.00    +0.190 C 
ATOM      6  C   LIG    1        4.275   8.813   0.165  0.00  0.00    +0.140 A 
ATOM      7  C   LIG    1        3.281   7.913  -0.095  0.00  0.00    -0.110 A 
ATOM      8  N   LIG    1        2.118   8.580  -0.195  0.00  0.00    -0.200 NA
ATOM      9  N   LIG    1        2.326   9.839  -0.020  0.00  0.00    -0.040 NA
ATOM     10  N   LIG    1        3.696  10.033   0.210  0.00  0.00    -0.320 N 
BRANCH  10  11
ATOM     11  C   LIG    1        4.339  11.256   0.448  0.00  0.00    +0.130 A 
ATOM     12  C   LIG    1        5.497  11.579  -0.246  0.00  0.00    +0.040 A 
ATOM     13  C   LIG    1        6.126  12.787  -0.014  0.00  0.00    +0.050 A 
ATOM     14  C   LIG    1        5.609  13.670   0.916  0.00  0.00    +0.060 A 
ATOM     15  C   LIG    1        4.458  13.350   1.613  0.00  0.00    +0.050 A 
ATOM     16  C   LIG    1        3.822  12.145   1.382  0.00  0.00    -0.020 A 
ATOM     17 CL   LIG    1        2.377  11.743   2.257  0.00  0.00    -0.030 Cl
ENDBRANCH  10  11
ENDBRANCH   1   7
BRANCH   2  18
ATOM     18  C   LIG    1        2.557   4.223  -0.625  0.00  0.00    +0.320 C 
BRANCH  18  19
ATOM     19  C   LIG    1        1.200   3.574  -0.905  0.00  0.00    +0.130 C 
BRANCH  19  20
ATOM     20  C   LIG    1        1.376   2.084  -1.048  0.00  0.00    +0.490 C 
ATOM     21  N   LIG    1        2.579   1.608  -0.919  0.00  0.00    -0.590 NA
ATOM     22  C   LIG    1        2.854   0.300  -1.027  0.00  0.00    +0.520 C 
ATOM     23  C   LIG    1        1.698  -0.642  -1.310  0.00  0.00    -0.060 C 
ATOM     24  C   LIG    1        0.331   0.005  -1.444  0.00  0.00    +0.540 C 
ATOM     25  O   LIG    1       -0.661  -0.654  -1.670  0.00  0.00    -0.470 OA
ATOM     26  C   LIG    1        2.001  -1.392  -2.609  0.00  0.00    +0.100 C 
ATOM     27  O   LIG    1        3.988  -0.117  -0.902  0.00  0.00    -0.430 OA
ATOM     28  N   LIG    1        0.269   1.347  -1.300  0.00  0.00    -0.670 N 
ATOM     29  H   LIG    1       -0.588   1.793  -1.383  0.00  0.00    +0.420 HD
ENDBRANCH  19  20
ENDBRANCH  18  19
ENDBRANCH   2  18
TORSDOF 5
