REMARK  Name = ZINCqH0000006jzc.0
REMARK                            x       y       z     vdW  Elec       q    Type
REMARK                         _______ _______ _______ _____ _____    ______ ____
ROOT
ATOM      1  N   LIG    1       -4.465  -6.340  -0.027  0.00  0.00    -0.530 N 
ATOM      2  C   LIG    1       -5.741  -6.782  -0.100  0.00  0.00    +0.550 A 
ATOM      3  C   LIG    1       -6.810  -5.774  -0.120  0.00  0.00    -0.200 A 
ATOM      4  C   LIG    1       -8.155  -6.130  -0.195  0.00  0.00    +0.100 A 
ATOM      5  C   LIG    1       -9.119  -5.146  -0.211  0.00  0.00    -0.010 A 
ATOM      6  C   LIG    1       -8.761  -3.805  -0.154  0.00  0.00    +0.060 A 
ATOM      7  C   LIG    1       -7.439  -3.431  -0.080  0.00  0.00    +0.030 A 
ATOM      8  C   LIG    1       -6.442  -4.410  -0.062  0.00  0.00    +0.160 A 
ATOM      9  N   LIG    1       -5.130  -4.084   0.015  0.00  0.00    -0.530 NA
ATOM     10  O   LIG    1       -5.995  -7.972  -0.149  0.00  0.00    -0.460 OA
ATOM     11  C   LIG    1       -4.196  -5.003   0.026  0.00  0.00    +0.370 A 
ENDROOT
BRANCH   1  12
ATOM     12  C   LIG    1       -3.362  -7.305  -0.003  0.00  0.00    +0.240 C 
ATOM     13  C   LIG    1       -3.494  -8.259  -1.192  0.00  0.00    +0.070 C 
BRANCH  12  14
ATOM     14  C   LIG    1       -3.411  -8.104   1.300  0.00  0.00    +0.170 C 
BRANCH  14  16
ATOM     15  C   LIG    1       -4.732  -9.705   2.500  0.00  0.00    +0.200 C 
ATOM     16  O   LIG    1       -4.589  -8.914   1.319  0.00  0.00    -0.350 OA
ENDBRANCH  14  16
ENDBRANCH  12  14
ENDBRANCH   1  12
BRANCH  11  17
ATOM     17  S   LIG    1       -2.513  -4.487   0.121  0.00  0.00    +0.000 S 
BRANCH  17  18
ATOM     18  C   LIG    1       -2.736  -2.692   0.165  0.00  0.00    +0.110 C 
BRANCH  18  19
ATOM     19  C   LIG    1       -1.369  -2.010   0.251  0.00  0.00    +0.210 C 
BRANCH  19  20
ATOM     20  O   LIG    1       -1.546  -0.592   0.285  0.00  0.00    -0.310 OA
BRANCH  20  21
ATOM     21  C   LIG    1       -0.421   0.168   0.361  0.00  0.00    +0.130 A 
ATOM     22  C   LIG    1       -0.519   1.551   0.398  0.00  0.00    -0.020 A 
ATOM     23  C   LIG    1        0.625   2.321   0.476  0.00  0.00    +0.050 A 
ATOM     24  C   LIG    1        1.867   1.714   0.517  0.00  0.00    -0.040 A 
ATOM     25  C   LIG    1        1.967   0.336   0.480  0.00  0.00    +0.050 A 
ATOM     26  C   LIG    1        0.826  -0.439   0.402  0.00  0.00    -0.080 A 
ENDBRANCH  20  21
ENDBRANCH  19  20
ENDBRANCH  18  19
ENDBRANCH  17  18
ENDBRANCH  11  17
TORSDOF 8
