REMARK  Name = ZINCnE000001Ubhl.1
REMARK                            x       y       z     vdW  Elec       q    Type
REMARK                         _______ _______ _______ _____ _____    ______ ____
ROOT
ATOM      1  N   LIG    1       -3.145   0.588   1.603  0.00  0.00    -1.080 NA
ENDROOT
BRANCH   1   2
ATOM      2  C   LIG    1       -4.313  -0.112   1.914  0.00  0.00    +0.300 A 
ATOM      3  C   LIG    1       -5.132  -0.586   0.896  0.00  0.00    -0.170 A 
ATOM      4  C   LIG    1       -6.285  -1.283   1.204  0.00  0.00    +0.080 A 
ATOM      5  C   LIG    1       -6.633  -1.501   2.523  0.00  0.00    -0.130 A 
ATOM      6  C   LIG    1       -5.821  -1.025   3.545  0.00  0.00    +0.180 A 
ATOM      7  C   LIG    1       -4.660  -0.330   3.240  0.00  0.00    -0.040 A 
BRANCH   6   8
ATOM      8  N   LIG    1       -6.175  -1.247   4.883  0.00  0.00    -0.300 N 
ATOM      9  C   LIG    1       -7.274  -1.906   5.317  0.00  0.00    +0.220 A 
ATOM     10  C   LIG    1       -7.248  -1.902   6.670  0.00  0.00    -0.130 A 
ATOM     11  C   LIG    1       -6.097  -1.219   7.077  0.00  0.00    +0.220 A 
ATOM     12  N   LIG    1       -5.450  -0.832   6.007  0.00  0.00    -0.280 NA
ENDBRANCH   6   8
ENDBRANCH   1   2
BRANCH   1  14
ATOM     13  O   LIG    1       -3.720   1.717  -0.515  0.00  0.00    -1.020 OA
ATOM     14  S   LIG    1       -2.732   0.847   0.020  0.00  0.00    +2.610 S 
ATOM     15  O   LIG    1       -2.439  -0.429  -0.532  0.00  0.00    -1.020 OA
BRANCH  14  16
ATOM     16  C   LIG    1       -1.219   1.750   0.017  0.00  0.00    -0.620 A 
ATOM     17  C   LIG    1       -0.013   1.076   0.008  0.00  0.00    +0.170 A 
ATOM     18  C   LIG    1        1.175   1.783   0.000  0.00  0.00    -0.020 A 
ATOM     19  C   LIG    1        1.157   3.167   0.008  0.00  0.00    +0.150 A 
ATOM     20  C   LIG    1       -0.053   3.842   0.022  0.00  0.00    -0.100 A 
ATOM     21 CL   LIG    1       -0.079   5.578   0.031  0.00  0.00    -0.050 Cl
ATOM     22  F   LIG    1        2.317   3.858   0.001  0.00  0.00    -0.130 F 
ATOM     23  C   LIG    1       -1.240   3.132   0.030  0.00  0.00    +0.180 A 
ENDBRANCH  14  16
ENDBRANCH   1  14
TORSDOF 4
