REMARK  Name = ZINCpe000000TfZd.0
REMARK                            x       y       z     vdW  Elec       q    Type
REMARK                         _______ _______ _______ _____ _____    ______ ____
ROOT
ATOM      1  C   LIG    1        0.661   3.226  -1.493  0.00  0.00    -0.540 C 
ATOM      2  C   LIG    1       -0.622   2.426  -1.246  0.00  0.00    +0.360 C 
ATOM      3  N   LIG    1       -0.923   2.415   0.187  0.00  0.00    -0.640 N 
ATOM      4  C   LIG    1       -1.243   3.657   0.892  0.00  0.00    +0.320 C 
ATOM      5  C   LIG    1       -0.025   4.586   0.870  0.00  0.00    -0.350 C 
ATOM      6  C   LIG    1       -0.905   1.249   0.863  0.00  0.00    +0.710 C 
ATOM      7  N   LIG    1       -1.076   1.243   2.200  0.00  0.00    -0.740 N 
ATOM      8  H   LIG    1       -1.287   2.067   2.666  0.00  0.00    +0.400 HD
ATOM      9  O   LIG    1       -0.733   0.203   0.268  0.00  0.00    -0.570 OA
ATOM     10  S   LIG    1        0.437   4.912  -0.856  0.00  0.00    +2.420 S 
ATOM     11  O   LIG    1       -0.671   5.505  -1.519  0.00  0.00    -0.920 OA
ATOM     12  O   LIG    1        1.694   5.575  -0.873  0.00  0.00    -0.930 OA
ENDROOT
BRANCH   1  14
ATOM     13  C   LIG    1        2.087   1.178  -1.380  0.00  0.00    +0.040 C 
ATOM     14  C   LIG    1        1.829   2.556  -0.767  0.00  0.00    +0.050 C 
ENDBRANCH   1  14
BRANCH   1  15
ATOM     15  C   LIG    1        0.950   3.279  -2.994  0.00  0.00    +0.080 C 
ATOM     16  C   LIG    1       -0.269   3.842  -3.729  0.00  0.00    +0.040 C 
ENDBRANCH   1  15
BRANCH   7  17
ATOM     17  C   LIG    1       -0.944  -0.009   2.950  0.00  0.00    +0.300 C 
BRANCH  17  18
ATOM     18  C   LIG    1       -1.299   0.236   4.418  0.00  0.00    +0.000 C 
ATOM     19  C   LIG    1       -2.276  -0.737   5.080  0.00  0.00    +0.070 C 
ATOM     20  C   LIG    1       -2.728   0.684   4.734  0.00  0.00    +0.050 C 
BRANCH  18  21
ATOM     21  N   LIG    1       -0.218   0.782   5.249  0.00  0.00    -0.500 NA
ATOM     22  C   LIG    1        0.213   2.098   4.755  0.00  0.00    +0.140 C 
ATOM     23  C   LIG    1        1.297   2.655   5.681  0.00  0.00    +0.220 C 
ATOM     24  O   LIG    1        2.379   1.724   5.755  0.00  0.00    -0.380 OA
ATOM     25  C   LIG    1        1.995   0.431   6.233  0.00  0.00    +0.220 C 
ATOM     26  C   LIG    1        0.919  -0.148   5.312  0.00  0.00    +0.160 C 
ENDBRANCH  18  21
ENDBRANCH  17  18
ENDBRANCH   7  17
TORSDOF 5
