REMARK  Name = ZINCrD000000ACPC.0
REMARK                            x       y       z     vdW  Elec       q    Type
REMARK                         _______ _______ _______ _____ _____    ______ ____
ROOT
ATOM      1  O   LIG    1        2.324   1.252  -0.013  0.00  0.00    -0.460 OA
ATOM      2  C   LIG    1        1.395   2.024  -0.000  0.00  0.00    +0.460 C 
ENDROOT
BRANCH   2   3
ATOM      3  O   LIG    1        1.623   3.347   0.004  0.00  0.00    -0.350 OA
BRANCH   3   4
ATOM      4  C   LIG    1        3.009   3.778  -0.006  0.00  0.00    +0.350 C 
BRANCH   4   5
ATOM      5  C   LIG    1        3.068   5.284   0.001  0.00  0.00    +0.030 A 
ATOM      6  N   LIG    1        3.101   6.012   1.063  0.00  0.00    -0.440 NA
ATOM      7  C   LIG    1        3.156   7.325   0.894  0.00  0.00    +0.110 A 
ATOM      8  C   LIG    1        3.158   7.713  -0.398  0.00  0.00    -0.060 A 
ATOM      9  S   LIG    1        3.092   6.265  -1.398  0.00  0.00    +0.170 S 
BRANCH   7  10
ATOM     10  C   LIG    1        3.205   8.284   2.025  0.00  0.00    -0.030 A 
ATOM     11  C   LIG    1        3.261   9.654   1.778  0.00  0.00    +0.020 A 
ATOM     12  C   LIG    1        3.302  10.541   2.835  0.00  0.00    +0.010 A 
ATOM     13  C   LIG    1        3.297  10.072   4.136  0.00  0.00    +0.020 A 
ATOM     14  C   LIG    1        3.246   8.713   4.386  0.00  0.00    +0.010 A 
ATOM     15  C   LIG    1        3.200   7.817   3.338  0.00  0.00    +0.040 A 
ENDBRANCH   7  10
ENDBRANCH   4   5
ENDBRANCH   3   4
ENDBRANCH   2   3
BRANCH   2  16
ATOM     16  C   LIG    1       -0.018   1.503   0.010  0.00  0.00    +0.230 C 
BRANCH  16  17
ATOM     17  C   LIG    1        0.002  -0.004   0.002  0.00  0.00    +0.110 A 
ATOM     18  N   LIG    1        1.136  -0.638  -0.012  0.00  0.00    -0.170 NA
ATOM     19  N   LIG    1        1.221  -2.031  -0.020  0.00  0.00    -0.530 N 
ATOM     20  H   LIG    1        2.095  -2.451  -0.031  0.00  0.00    +0.440 HD
ATOM     21  C   LIG    1        0.119  -2.809  -0.013  0.00  0.00    +0.530 A 
ATOM     22  C   LIG    1       -1.201  -2.165   0.003  0.00  0.00    -0.130 A 
ATOM     23  C   LIG    1       -2.382  -2.905   0.011  0.00  0.00    +0.090 A 
ATOM     24  C   LIG    1       -3.594  -2.249   0.043  0.00  0.00    +0.030 A 
ATOM     25  C   LIG    1       -3.648  -0.861   0.050  0.00  0.00    +0.050 A 
ATOM     26  C   LIG    1       -2.494  -0.110   0.037  0.00  0.00    +0.040 A 
ATOM     27  O   LIG    1        0.217  -4.024  -0.020  0.00  0.00    -0.520 OA
ATOM     28  C   LIG    1       -1.255  -0.753   0.016  0.00  0.00    -0.050 A 
ENDBRANCH  16  17
ENDBRANCH   2  16
TORSDOF 6
