REMARK  Name = ZINCc70000000huo.0
REMARK                            x       y       z     vdW  Elec       q    Type
REMARK                         _______ _______ _______ _____ _____    ______ ____
ROOT
ATOM      1  C   LIG    1       -0.812   1.666   4.104  0.00  0.00    +0.100 C 
ENDROOT
BRANCH   1   2
ATOM      2  C   LIG    1       -0.253   1.157   5.434  0.00  0.00    -0.120 C 
ATOM      3  C   LIG    1       -0.837  -0.198   5.875  0.00  0.00    +0.230 C 
ATOM      4  O   LIG    1       -0.921   0.397   7.189  0.00  0.00    -0.360 OA
ATOM      5  C   LIG    1       -0.961   1.742   6.670  0.00  0.00    +0.230 C 
BRANCH   2   6
ATOM      6  C   LIG    1        1.274   1.225   5.506  0.00  0.00    +0.210 C 
BRANCH   6   7
ATOM      7  O   LIG    1        1.713   0.733   6.774  0.00  0.00    -0.560 OA
ATOM      8  H   LIG    1        2.672   0.747   6.891  0.00  0.00    +0.380 HD
ENDBRANCH   6   7
ENDBRANCH   2   6
ENDBRANCH   1   2
BRANCH   1   9
ATOM      9  S   LIG    1        0.060   0.859   2.733  0.00  0.00    -0.240 S 
BRANCH   9  11
ATOM     10  C   LIG    1       -2.198   1.155   1.217  0.00  0.00    +0.060 C 
ATOM     11  C   LIG    1       -0.729   1.579   1.267  0.00  0.00    +0.020 C 
BRANCH  11  12
ATOM     12  C   LIG    1       -0.013   1.086   0.008  0.00  0.00    +0.220 C 
BRANCH  12  13
ATOM     13  O   LIG    1       -0.704   1.559  -1.150  0.00  0.00    -0.570 OA
ATOM     14  H   LIG    1       -0.304   1.284  -1.986  0.00  0.00    +0.390 HD
ENDBRANCH  12  13
ENDBRANCH  11  12
ENDBRANCH   9  11
ENDBRANCH   1   9
TORSDOF 7
