REMARK  Name = ZINCqH00000i4TBz.0
REMARK                            x       y       z     vdW  Elec       q    Type
REMARK                         _______ _______ _______ _____ _____    ______ ____
ROOT
ATOM      1  N   LIG    1        3.938   5.145  -1.390  0.00  0.00    -0.720 N 
ATOM      2  H   LIG    1        3.688   4.568  -2.128  0.00  0.00    +0.400 HD
ATOM      3  C   LIG    1        4.448   6.368  -1.634  0.00  0.00    +0.520 C 
ATOM      4  O   LIG    1        4.762   7.090  -0.712  0.00  0.00    -0.530 OA
ENDROOT
BRANCH   3   5
ATOM      5  C   LIG    1        4.629   6.839  -3.054  0.00  0.00    +0.010 C 
ATOM      6  C   LIG    1        3.269   6.856  -3.765  0.00  0.00    +0.050 C 
ATOM      7  C   LIG    1        3.518   7.239  -5.209  0.00  0.00    +0.400 C 
ATOM      8  C   LIG    1        4.476   8.331  -5.473  0.00  0.00    -0.180 A 
ATOM      9  C   LIG    1        4.562   8.883  -6.754  0.00  0.00    +0.070 A 
ATOM     10  C   LIG    1        5.460   9.900  -7.002  0.00  0.00    -0.010 A 
ATOM     11  C   LIG    1        6.271  10.370  -5.984  0.00  0.00    +0.050 A 
ATOM     12  C   LIG    1        6.188   9.828  -4.714  0.00  0.00    +0.000 A 
ATOM     13  C   LIG    1        5.293   8.809  -4.446  0.00  0.00    -0.030 A 
ATOM     14  O   LIG    1        2.951   6.669  -6.117  0.00  0.00    -0.450 OA
ATOM     15  C   LIG    1        5.217   8.248  -3.053  0.00  0.00    +0.120 C 
ENDBRANCH   3   5
BRANCH   1  16
ATOM     16  C   LIG    1        3.763   4.687  -0.009  0.00  0.00    +0.320 C 
BRANCH  16  23
ATOM     17  C   LIG    1        1.270  -0.445  -0.012  0.00  0.00    -0.170 A 
ATOM     18  C   LIG    1        0.002  -0.004   0.002  0.00  0.00    +0.220 A 
ATOM     19  N   LIG    1       -0.017   1.364   0.009  0.00  0.00    -0.590 N 
ATOM     20  H   LIG    1       -0.818   1.911   0.016  0.00  0.00    +0.420 HD
ATOM     21  C   LIG    1        1.272   1.850  -0.000  0.00  0.00    +0.090 A 
ATOM     22  C   LIG    1        1.812   3.131   0.001  0.00  0.00    +0.010 A 
ATOM     23  C   LIG    1        3.180   3.297  -0.011  0.00  0.00    -0.090 A 
ATOM     24  C   LIG    1        4.026   2.198  -0.025  0.00  0.00    -0.010 A 
ATOM     25  C   LIG    1        3.517   0.930  -0.027  0.00  0.00    +0.050 A 
ATOM     26  C   LIG    1        2.134   0.738  -0.014  0.00  0.00    -0.090 A 
BRANCH  17  28
ATOM     27  C   LIG    1        2.005  -2.340   1.407  0.00  0.00    +0.010 C 
ATOM     28  C   LIG    1        1.719  -1.883  -0.025  0.00  0.00    +0.090 C 
ENDBRANCH  17  28
ENDBRANCH  16  23
ENDBRANCH   1  16
TORSDOF 4
