REMARK  Name = ZINCrH000004mWh5.0
REMARK                            x       y       z     vdW  Elec       q    Type
REMARK                         _______ _______ _______ _____ _____    ______ ____
ROOT
ATOM      1  S   LIG    1        3.809  -0.568   0.322  0.00  0.00    +2.690 S 
ATOM      2  O   LIG    1        3.466  -1.885   0.729  0.00  0.00    -0.950 OA
ATOM      3  O   LIG    1        4.814   0.206   0.962  0.00  0.00    -0.950 OA
ENDROOT
BRANCH   1   7
ATOM      4  C   LIG    1       -0.002   1.877   0.528  0.00  0.00    +0.150 A 
ATOM      5  C   LIG    1        1.230   2.509   0.528  0.00  0.00    -0.070 A 
ATOM      6  C   LIG    1        2.391   1.760   0.466  0.00  0.00    +0.140 A 
ATOM      7  C   LIG    1        2.325   0.380   0.402  0.00  0.00    -0.690 A 
ATOM      8  C   LIG    1        1.099  -0.258   0.402  0.00  0.00    +0.170 A 
ATOM      9  C   LIG    1       -0.069   0.487   0.465  0.00  0.00    +0.100 A 
BRANCH   9  10
ATOM     10  N   LIG    1       -1.314  -0.157   0.464  0.00  0.00    -0.660 N 
ATOM     11  H   LIG    1       -2.114   0.334   0.222  0.00  0.00    +0.420 HD
ATOM     12  C   LIG    1       -1.399  -1.459   0.801  0.00  0.00    +0.510 C 
ATOM     13  O   LIG    1       -0.415  -2.049   1.196  0.00  0.00    -0.520 OA
ATOM     14  C   LIG    1       -2.716  -2.183   0.685  0.00  0.00    +0.110 C 
ENDBRANCH   9  10
BRANCH   4  16
ATOM     15  C   LIG    1       -0.999   4.033   0.648  0.00  0.00    +0.250 C 
ATOM     16  O   LIG    1       -1.145   2.613   0.585  0.00  0.00    -0.310 OA
ENDBRANCH   4  16
ENDBRANCH   1   7
BRANCH   1  17
ATOM     17  N   LIG    1        4.240  -0.668  -1.274  0.00  0.00    -1.110 NA
ATOM     18  H   LIG    1        4.256  -1.530  -1.718  0.00  0.00    +0.420 HD
BRANCH  17  19
ATOM     19  C   LIG    1        4.598   0.545  -2.014  0.00  0.00    +0.320 C 
BRANCH  19  20
ATOM     20  C   LIG    1        6.094   0.730  -1.980  0.00  0.00    -0.090 A 
ATOM     21  C   LIG    1        6.929  -0.364  -2.107  0.00  0.00    +0.040 A 
ATOM     22  C   LIG    1        8.300  -0.194  -2.082  0.00  0.00    +0.020 A 
ATOM     23  C   LIG    1        8.837   1.071  -1.919  0.00  0.00    -0.030 A 
ATOM     24  C   LIG    1        8.001   2.165  -1.787  0.00  0.00    +0.030 A 
ATOM     25 CL   LIG    1       10.559   1.284  -1.879  0.00  0.00    -0.070 Cl
ATOM     26  C   LIG    1        6.630   1.994  -1.818  0.00  0.00    +0.040 A 
ENDBRANCH  19  20
BRANCH  19  27
ATOM     27  C   LIG    1        4.133   0.413  -3.465  0.00  0.00    -0.040 C 
ATOM     28  C   LIG    1        3.403   1.607  -4.084  0.00  0.00    +0.030 C 
ATOM     29  C   LIG    1        2.626   0.340  -3.720  0.00  0.00    +0.030 C 
ENDBRANCH  19  27
ENDBRANCH  17  19
ENDBRANCH   1  17
TORSDOF 7
