REMARK  Name = ZINCvU00000006XQ.0
REMARK                            x       y       z     vdW  Elec       q    Type
REMARK                         _______ _______ _______ _____ _____    ______ ____
ROOT
ATOM      1  C   LIG    1       -3.267  -0.983   0.541  0.00  0.00    +0.570 C 
ATOM      2  N   LIG    1       -2.249  -0.103   0.472  0.00  0.00    -0.660 N 
ATOM      3  H   LIG    1       -1.333  -0.416   0.521  0.00  0.00    +0.410 HD
ATOM      4  O   LIG    1       -4.416  -0.585   0.552  0.00  0.00    -0.520 OA
ENDROOT
BRANCH   1  13
ATOM      5  C   LIG    1       -7.986  -7.635   0.822  0.00  0.00    +0.030 C 
ATOM      6  C   LIG    1       -6.496  -7.444   0.530  0.00  0.00    -0.020 C 
ATOM      7  C   LIG    1       -5.678  -8.409   1.392  0.00  0.00    +0.030 C 
ATOM      8  C   LIG    1       -4.217  -8.398   0.927  0.00  0.00    +0.100 C 
ATOM      9  C   LIG    1       -3.751  -6.963   0.843  0.00  0.00    +0.080 A 
ATOM     10  C   LIG    1       -4.587  -5.907   0.814  0.00  0.00    -0.150 A 
ATOM     11  C   LIG    1       -3.764  -4.704   0.733  0.00  0.00    -0.110 A 
ATOM     12  C   LIG    1       -4.040  -3.340   0.680  0.00  0.00    +0.150 A 
ATOM     13  C   LIG    1       -2.988  -2.431   0.603  0.00  0.00    -0.170 A 
ATOM     14  C   LIG    1       -1.663  -2.890   0.591  0.00  0.00    +0.060 A 
ATOM     15  C   LIG    1       -1.390  -4.224   0.648  0.00  0.00    +0.000 A 
ATOM     16  C   LIG    1       -2.427  -5.152   0.720  0.00  0.00    +0.120 A 
ATOM     17  N   LIG    1       -2.458  -6.525   0.787  0.00  0.00    -0.580 N 
ATOM     18  H   LIG    1       -1.676  -7.099   0.792  0.00  0.00    +0.420 HD
ATOM     19  C   LIG    1       -6.090  -6.002   0.858  0.00  0.00    +0.100 C 
ENDBRANCH   1  13
BRANCH   2  20
ATOM     20  C   LIG    1       -2.513   1.257   0.331  0.00  0.00    +0.200 A 
ATOM     21  C   LIG    1       -3.651   1.810   0.901  0.00  0.00    +0.020 A 
ATOM     22  C   LIG    1       -3.911   3.158   0.760  0.00  0.00    +0.050 A 
ATOM     23  C   LIG    1       -3.041   3.969   0.049  0.00  0.00    -0.010 A 
ATOM     24  C   LIG    1       -1.903   3.438  -0.520  0.00  0.00    +0.060 A 
ATOM     25  C   LIG    1       -1.630   2.075  -0.390  0.00  0.00    -0.160 A 
BRANCH  25  26
ATOM     26  C   LIG    1       -0.417   1.500  -1.001  0.00  0.00    +0.560 C 
ATOM     27  N   LIG    1        0.790   2.040  -0.740  0.00  0.00    -0.610 N 
ATOM     28  C   LIG    1        0.907   3.247   0.089  0.00  0.00    +0.270 C 
ATOM     29  C   LIG    1        1.895   2.962   1.230  0.00  0.00    +0.010 C 
ATOM     30  C   LIG    1        3.220   2.475   0.641  0.00  0.00    +0.020 C 
ATOM     31  C   LIG    1        2.989   1.174  -0.132  0.00  0.00    +0.020 C 
ATOM     32  C   LIG    1        2.014   1.435  -1.284  0.00  0.00    +0.270 C 
ATOM     33  O   LIG    1       -0.506   0.542  -1.745  0.00  0.00    -0.530 OA
ENDBRANCH  25  26
ENDBRANCH   2  20
TORSDOF 3
