REMARK  Name = ZINCrD000000CaUT.0
REMARK                            x       y       z     vdW  Elec       q    Type
REMARK                         _______ _______ _______ _____ _____    ______ ____
ROOT
ATOM      1  O   LIG    1       -4.261   2.615   1.039  0.00  0.00    -0.570 OA
ATOM      2  C   LIG    1       -3.167   2.404   1.527  0.00  0.00    +0.730 C 
ATOM      3  N   LIG    1       -2.179   1.888   0.770  0.00  0.00    -0.630 N 
ATOM      4  C   LIG    1       -0.811   1.584   1.234  0.00  0.00    +0.250 C 
ATOM      5  C   LIG    1       -0.032   1.034   0.018  0.00  0.00    +0.040 C 
ATOM      6  C   LIG    1       -0.842   1.563  -1.181  0.00  0.00    +0.140 C 
ATOM      7  O   LIG    1       -0.441   2.883  -1.540  0.00  0.00    -0.330 OA
ATOM      8  C   LIG    1        0.517   2.698  -2.603  0.00  0.00    +0.270 C 
ATOM      9  C   LIG    1        0.159   1.386  -3.265  0.00  0.00    -0.130 A 
ATOM     10  C   LIG    1        0.496   0.832  -4.481  0.00  0.00    +0.040 A 
ATOM     11  C   LIG    1        0.014  -0.416  -4.831  0.00  0.00    +0.020 A 
ATOM     12  C   LIG    1       -0.807  -1.108  -3.960  0.00  0.00    +0.020 A 
ATOM     13  C   LIG    1       -1.148  -0.552  -2.740  0.00  0.00    +0.040 A 
ATOM     14  C   LIG    1       -0.669   0.694  -2.390  0.00  0.00    -0.120 A 
ATOM     15  C   LIG    1       -2.288   1.532  -0.659  0.00  0.00    +0.320 C 
ATOM     16  N   LIG    1       -2.943   2.687   2.826  0.00  0.00    -0.670 N 
ATOM     17  H   LIG    1       -2.091   2.463   3.231  0.00  0.00    +0.410 HD
ENDROOT
BRANCH  16  18
ATOM     18  C   LIG    1       -3.941   3.306   3.591  0.00  0.00    +0.110 A 
ATOM     19  C   LIG    1       -5.282   3.027   3.358  0.00  0.00    +0.110 A 
ATOM     20  C   LIG    1       -6.234   3.660   4.145  0.00  0.00    -0.040 A 
ATOM     21  C   LIG    1       -5.826   4.549   5.119  0.00  0.00    +0.280 A 
ATOM     22  N   LIG    1       -4.544   4.799   5.315  0.00  0.00    -0.520 NA
ATOM     23  C   LIG    1       -3.604   4.215   4.594  0.00  0.00    +0.300 A 
BRANCH  23  24
ATOM     24  O   LIG    1       -2.298   4.503   4.830  0.00  0.00    -0.300 OA
BRANCH  24  25
ATOM     25  C   LIG    1       -2.019   5.442   5.870  0.00  0.00    +0.220 C 
BRANCH  25  26
ATOM     26  C   LIG    1       -0.506   5.638   5.988  0.00  0.00    +0.400 C 
ATOM     27  F   LIG    1       -0.003   6.121   4.775  0.00  0.00    -0.200 F 
ATOM     28  F   LIG    1        0.100   4.414   6.290  0.00  0.00    -0.200 F 
ENDBRANCH  25  26
ENDBRANCH  24  25
ENDBRANCH  23  24
ENDBRANCH  16  18
TORSDOF 4
