REMARK  Name = ZINCrH000004moCM.0
REMARK                            x       y       z     vdW  Elec       q    Type
REMARK                         _______ _______ _______ _____ _____    ______ ____
ROOT
ATOM      1  C   LIG    1       -0.054   4.779   3.965  0.00  0.00    +0.600 C 
ATOM      2  N   LIG    1       -0.664   3.674   3.494  0.00  0.00    -0.600 N 
ATOM      3  C   LIG    1       -1.505   3.789   2.286  0.00  0.00    +0.270 C 
ATOM      4  C   LIG    1       -2.813   2.988   2.411  0.00  0.00    +0.060 C 
ATOM      5  C   LIG    1       -3.382   3.138   3.800  0.00  0.00    +0.070 C 
ATOM      6  C   LIG    1       -2.863   2.007   4.683  0.00  0.00    +0.120 C 
ATOM      7  C   LIG    1       -1.549   2.268   5.292  0.00  0.00    +0.010 C 
ATOM      8  C   LIG    1       -0.469   2.424   4.194  0.00  0.00    +0.310 C 
ATOM      9  O   LIG    1       -0.106   5.819   3.334  0.00  0.00    -0.520 OA
ENDROOT
BRANCH   1  13
ATOM     10  C   LIG    1        1.731   4.253   7.409  0.00  0.00    +0.080 A 
ATOM     11  N   LIG    1        1.989   5.431   6.913  0.00  0.00    -0.480 NA
ATOM     12  C   LIG    1        1.454   5.725   5.759  0.00  0.00    +0.340 A 
ATOM     13  C   LIG    1        0.672   4.730   5.237  0.00  0.00    -0.330 A 
ATOM     14  S   LIG    1        0.703   3.376   6.363  0.00  0.00    +0.210 S 
BRANCH  10  18
ATOM     15  C   LIG    1        3.232   2.802  11.108  0.00  0.00    +0.150 A 
ATOM     16  C   LIG    1        3.573   4.077  10.675  0.00  0.00    -0.010 A 
ATOM     17  C   LIG    1        3.088   4.551   9.475  0.00  0.00    +0.130 A 
ATOM     18  C   LIG    1        2.253   3.749   8.695  0.00  0.00    -0.080 A 
ATOM     19  C   LIG    1        1.908   2.469   9.137  0.00  0.00    +0.080 A 
ATOM     20  C   LIG    1        2.401   2.000  10.335  0.00  0.00    -0.070 A 
BRANCH  15  22
ATOM     21  C   LIG    1        3.321   1.018  12.677  0.00  0.00    +0.240 C 
ATOM     22  O   LIG    1        3.712   2.338  12.291  0.00  0.00    -0.310 OA
ENDBRANCH  15  22
ENDBRANCH  10  18
ENDBRANCH   1  13
BRANCH   6  23
ATOM     23  C   LIG    1       -3.876   1.760   5.803  0.00  0.00    +0.420 C 
ATOM     24  F   LIG    1       -3.419   0.726   6.626  0.00  0.00    -0.180 F 
ATOM     25  F   LIG    1       -4.028   2.927   6.560  0.00  0.00    -0.180 F 
ATOM     26  F   LIG    1       -5.109   1.403   5.245  0.00  0.00    -0.170 F 
ENDBRANCH   6  23
BRANCH   6  27
ATOM     27  O   LIG    1       -2.765   0.821   3.892  0.00  0.00    -0.530 OA
ATOM     28  H   LIG    1       -2.475   0.042   4.386  0.00  0.00    +0.390 HD
ENDBRANCH   6  27
TORSDOF 5
