REMARK  Name = ZINCtV000002OwSf.0
REMARK                            x       y       z     vdW  Elec       q    Type
REMARK                         _______ _______ _______ _____ _____    ______ ____
ROOT
ATOM      1  O   LIG    1       -2.203   8.321  -0.315  0.00  0.00    -0.520 OA
ATOM      2  C   LIG    1       -3.290   7.782  -0.400  0.00  0.00    +0.600 C 
ATOM      3  N   LIG    1       -3.386   6.441  -0.311  0.00  0.00    -0.670 N 
ATOM      4  H   LIG    1       -4.258   6.016  -0.319  0.00  0.00    +0.410 HD
ENDROOT
BRANCH   3   5
ATOM      5  C   LIG    1       -2.229   5.662  -0.208  0.00  0.00    +0.180 A 
ATOM      6  C   LIG    1       -2.174   4.414  -0.815  0.00  0.00    -0.040 A 
ATOM      7  C   LIG    1       -1.032   3.644  -0.712  0.00  0.00    +0.070 A 
ATOM      8  C   LIG    1        0.060   4.113  -0.006  0.00  0.00    -0.080 A 
ATOM      9  C   LIG    1        0.011   5.360   0.602  0.00  0.00    +0.140 A 
ATOM     10  C   LIG    1       -1.135   6.133   0.505  0.00  0.00    +0.010 A 
BRANCH   9  11
ATOM     11  O   LIG    1        1.085   5.820   1.296  0.00  0.00    -0.250 OA
BRANCH  11  12
ATOM     12  C   LIG    1        2.226   5.082   1.270  0.00  0.00    +0.110 A 
ATOM     13  C   LIG    1        2.686   4.472   2.428  0.00  0.00    +0.020 A 
ATOM     14  C   LIG    1        3.849   3.728   2.400  0.00  0.00    +0.070 A 
ATOM     15  C   LIG    1        4.554   3.589   1.218  0.00  0.00    -0.100 A 
ATOM     16  C   LIG    1        4.097   4.196   0.062  0.00  0.00    +0.070 A 
ATOM     17 BR   LIG    1        6.146   2.569   1.182  0.00  0.00    -0.040 Br
ATOM     18  C   LIG    1        2.935   4.942   0.085  0.00  0.00    +0.010 A 
ENDBRANCH  11  12
ENDBRANCH   9  11
ENDBRANCH   3   5
BRANCH   2  19
ATOM     19  C   LIG    1       -4.502   8.597  -0.599  0.00  0.00    -0.280 A 
ATOM     20  C   LIG    1       -4.557   9.972  -0.707  0.00  0.00    +0.330 A 
ATOM     21  N   LIG    1       -5.847  10.310  -0.880  0.00  0.00    -0.310 N 
ATOM     22  N   LIG    1       -6.616   9.141  -0.882  0.00  0.00    -0.260 NA
ATOM     23  C   LIG    1       -5.825   8.115  -0.721  0.00  0.00    +0.280 A 
BRANCH  21  24
ATOM     24  C   LIG    1       -6.339  11.614  -1.034  0.00  0.00    +0.150 A 
ATOM     25  C   LIG    1       -5.467  12.694  -1.009  0.00  0.00    +0.010 A 
ATOM     26  C   LIG    1       -5.954  13.977  -1.166  0.00  0.00    +0.050 A 
ATOM     27  C   LIG    1       -7.310  14.188  -1.337  0.00  0.00    +0.030 A 
ATOM     28  C   LIG    1       -8.183  13.115  -1.357  0.00  0.00    +0.060 A 
ATOM     29  C   LIG    1       -7.701  11.829  -1.206  0.00  0.00    -0.040 A 
ATOM     30 CL   LIG    1       -8.797  10.482  -1.231  0.00  0.00    -0.020 Cl
ENDBRANCH  21  24
ENDBRANCH   2  19
TORSDOF 5
