REMARK  Name = ZINCpk00001AZiP9.0
REMARK                            x       y       z     vdW  Elec       q    Type
REMARK                         _______ _______ _______ _____ _____    ______ ____
ROOT
ATOM      1  N   LIG    1       -4.163   4.769  -1.602  0.00  0.00    -0.530 N 
ATOM      2  H   LIG    1       -4.706   5.073  -0.858  0.00  0.00    +0.420 HD
ATOM      3  C   LIG    1       -3.004   4.121  -1.370  0.00  0.00    +0.520 C 
ATOM      4  O   LIG    1       -2.325   3.742  -2.300  0.00  0.00    -0.520 OA
ENDROOT
BRANCH   1   8
ATOM      5  N   LIG    1       -6.496   6.075  -2.116  0.00  0.00    -0.730 N 
ATOM      6  H   LIG    1       -6.206   5.912  -1.205  0.00  0.00    +0.390 HD
ATOM      7  C   LIG    1       -5.741   5.653  -3.150  0.00  0.00    +0.720 C 
ATOM      8  N   LIG    1       -4.583   5.005  -2.918  0.00  0.00    -0.530 N 
ATOM      9  H   LIG    1       -4.039   4.701  -3.662  0.00  0.00    +0.440 HD
ATOM     10  O   LIG    1       -6.105   5.857  -4.292  0.00  0.00    -0.560 OA
BRANCH   5  12
ATOM     11  C   LIG    1       -7.481   8.050  -3.176  0.00  0.00    +0.040 C 
ATOM     12  C   LIG    1       -7.755   6.779  -2.369  0.00  0.00    +0.190 C 
ATOM     13  C   LIG    1       -8.709   5.868  -3.145  0.00  0.00    +0.080 C 
ATOM     14  C   LIG    1       -9.190   4.753  -2.263  0.00  0.00    -0.040 C 
ATOM     15  C   LIG    1       -9.107   4.762  -0.971  0.00  0.00    -0.070 C 
ATOM     16  C   LIG    1       -8.510   5.886  -0.175  0.00  0.00    +0.060 C 
ATOM     17  C   LIG    1       -8.416   7.149  -1.034  0.00  0.00    +0.040 C 
ENDBRANCH   5  12
ENDBRANCH   1   8
BRANCH   3  18
ATOM     18  C   LIG    1       -2.553   3.869   0.045  0.00  0.00    +0.140 C 
BRANCH  18  19
ATOM     19  C   LIG    1       -1.238   3.133   0.029  0.00  0.00    -0.020 A 
ATOM     20  C   LIG    1       -1.219   1.751   0.017  0.00  0.00    +0.010 A 
ATOM     21  C   LIG    1       -0.013   1.076   0.008  0.00  0.00    +0.120 A 
ATOM     22  C   LIG    1        1.175   1.783   0.000  0.00  0.00    -0.660 A 
ATOM     23  C   LIG    1        1.156   3.165   0.008  0.00  0.00    +0.120 A 
ATOM     24  C   LIG    1       -0.050   3.840   0.022  0.00  0.00    +0.010 A 
BRANCH  22  25
ATOM     25  S   LIG    1        2.713   0.923  -0.018  0.00  0.00    +2.500 S 
ATOM     26  O   LIG    1        2.420  -0.331   0.583  0.00  0.00    -0.940 OA
ATOM     27  O   LIG    1        3.628   1.829   0.583  0.00  0.00    -0.940 OA
ATOM     28  C   LIG    1        3.091   0.711  -1.780  0.00  0.00    -0.260 C 
ENDBRANCH  22  25
ENDBRANCH  18  19
ENDBRANCH   3  18
TORSDOF 5
