REMARK  Name = ZINCpe000000YTOM.0
REMARK                            x       y       z     vdW  Elec       q    Type
REMARK                         _______ _______ _______ _____ _____    ______ ____
ROOT
ATOM      1  N   LIG    1        1.945  -0.145   0.425  0.00  0.00    -0.520 NA
ATOM      2  C   LIG    1        2.573   0.227  -0.849  0.00  0.00    +0.180 C 
ATOM      3  C   LIG    1        3.983  -0.369  -0.913  0.00  0.00    +0.290 C 
ATOM      4  N   LIG    1        3.889  -1.816  -0.666  0.00  0.00    -0.610 N 
ATOM      5  C   LIG    1        3.154  -2.273   0.523  0.00  0.00    +0.300 C 
ATOM      6  C   LIG    1        4.463  -2.700  -1.506  0.00  0.00    +0.560 C 
ATOM      7  O   LIG    1        4.437  -3.888  -1.249  0.00  0.00    -0.520 OA
ATOM      8  C   LIG    1        1.776  -1.601   0.531  0.00  0.00    +0.170 C 
ENDROOT
BRANCH   6   9
ATOM      9  C   LIG    1        5.121  -2.226  -2.740  0.00  0.00    -0.170 A 
ATOM     10  C   LIG    1        6.090  -1.223  -2.677  0.00  0.00    +0.080 A 
ATOM     11  C   LIG    1        6.705  -0.789  -3.833  0.00  0.00    +0.010 A 
ATOM     12  C   LIG    1        6.357  -1.336  -5.055  0.00  0.00    +0.070 A 
ATOM     13  C   LIG    1        5.394  -2.325  -5.129  0.00  0.00    -0.020 A 
ATOM     14  C   LIG    1        4.773  -2.775  -3.978  0.00  0.00    +0.150 A 
ATOM     15  F   LIG    1        3.832  -3.742  -4.050  0.00  0.00    -0.130 F 
ENDBRANCH   6   9
BRANCH   1  16
ATOM     16  C   LIG    1        0.661   0.547   0.602  0.00  0.00    +0.220 C 
BRANCH  16  18
ATOM     17  O   LIG    1        2.034   2.465   0.684  0.00  0.00    -0.520 OA
ATOM     18  C   LIG    1        0.903   2.029   0.733  0.00  0.00    +0.510 C 
ATOM     19  N   LIG    1       -0.137   2.869   0.899  0.00  0.00    -0.730 N 
ATOM     20  H   LIG    1       -1.041   2.521   0.934  0.00  0.00    +0.400 HD
BRANCH  19  21
ATOM     21  C   LIG    1        0.099   4.310   1.026  0.00  0.00    +0.270 C 
BRANCH  21  22
ATOM     22  C   LIG    1       -1.238   5.032   1.203  0.00  0.00    +0.150 C 
ATOM     23  C   LIG    1       -1.015   6.561   1.305  0.00  0.00    +0.020 C 
ATOM     24  C   LIG    1       -2.395   7.093   0.828  0.00  0.00    +0.010 C 
ATOM     25  C   LIG    1       -2.805   6.042  -0.227  0.00  0.00    +0.190 C 
ATOM     26  O   LIG    1       -2.062   4.848   0.041  0.00  0.00    -0.380 OA
ENDBRANCH  21  22
ENDBRANCH  19  21
ENDBRANCH  16  18
ENDBRANCH   1  16
TORSDOF 5
