REMARK  Name = ZINCpe000000Xu8P.0
REMARK                            x       y       z     vdW  Elec       q    Type
REMARK                         _______ _______ _______ _____ _____    ______ ____
ROOT
ATOM      1  C   LIG    1       -6.129   5.588   1.692  0.00  0.00    +0.610 C 
ATOM      2  N   LIG    1       -5.047   4.826   1.436  0.00  0.00    -0.720 N 
ATOM      3  H   LIG    1       -4.528   4.459   2.169  0.00  0.00    +0.410 HD
ATOM      4  O   LIG    1       -6.780   6.048   0.774  0.00  0.00    -0.530 OA
ENDROOT
BRANCH   1  10
ATOM      5  C   LIG    1       -6.721   6.257   8.973  0.00  0.00    +0.060 C 
ATOM      6  C   LIG    1       -6.886   6.636   7.500  0.00  0.00    +0.130 C 
ATOM      7  C   LIG    1       -6.161   5.608   6.625  0.00  0.00    +0.330 C 
ATOM      8  N   LIG    1       -6.521   5.859   5.222  0.00  0.00    -0.270 N 
ATOM      9  N   LIG    1       -5.918   5.427   4.176  0.00  0.00    -0.250 NA
ATOM     10  C   LIG    1       -6.524   5.864   3.089  0.00  0.00    -0.020 A 
ATOM     11  C   LIG    1       -7.630   6.642   3.514  0.00  0.00    +0.000 A 
ATOM     12  C   LIG    1       -7.591   6.611   4.858  0.00  0.00    +0.010 A 
ATOM     13  C   LIG    1       -8.532   7.268   5.835  0.00  0.00    +0.290 C 
ATOM     14  N   LIG    1       -8.316   6.659   7.159  0.00  0.00    -0.690 NA
ATOM     15  H   LIG    1       -8.850   7.138   7.869  0.00  0.00    +0.360 HD
ENDBRANCH   1  10
BRANCH   2  16
ATOM     16  C   LIG    1       -4.656   4.552   0.051  0.00  0.00    +0.320 C 
BRANCH  16  17
ATOM     17  C   LIG    1       -3.424   3.684   0.040  0.00  0.00    -0.100 A 
ATOM     18  C   LIG    1       -3.550   2.307   0.033  0.00  0.00    +0.060 A 
ATOM     19  C   LIG    1       -2.422   1.509   0.023  0.00  0.00    +0.050 A 
ATOM     20  C   LIG    1       -1.162   2.091   0.019  0.00  0.00    +0.130 A 
ATOM     21  C   LIG    1       -1.038   3.473   0.031  0.00  0.00    +0.020 A 
ATOM     22  C   LIG    1       -2.169   4.266   0.037  0.00  0.00    +0.060 A 
BRANCH  20  23
ATOM     23  N   LIG    1       -0.015   1.283   0.009  0.00  0.00    -0.250 N 
ATOM     24  C   LIG    1        1.272   1.724  -0.001  0.00  0.00    +0.150 A 
ATOM     25  C   LIG    1        2.048   0.614  -0.014  0.00  0.00    +0.160 A 
ATOM     26  N   LIG    1        1.215  -0.432  -0.012  0.00  0.00    -0.260 NA
ATOM     27  N   LIG    1        0.002  -0.004   0.002  0.00  0.00    -0.080 NA
ENDBRANCH  20  23
ENDBRANCH  16  17
ENDBRANCH   2  16
TORSDOF 4
