REMARK  Name = ZINCvU0000000IEj.0
REMARK                            x       y       z     vdW  Elec       q    Type
REMARK                         _______ _______ _______ _____ _____    ______ ____
ROOT
ATOM      1  O   LIG    1        1.004   3.356   1.727  0.00  0.00    -0.530 OA
ATOM      2  C   LIG    1        1.792   2.891   0.931  0.00  0.00    +0.560 C 
ATOM      3  N   LIG    1        1.372   2.007   0.005  0.00  0.00    -0.610 N 
ATOM      4  C   LIG    1       -0.015   1.522   0.008  0.00  0.00    +0.290 C 
ATOM      5  C   LIG    1       -0.001  -0.010   0.021  0.00  0.00    +0.030 C 
ATOM      6  C   LIG    1        0.840  -0.519  -1.152  0.00  0.00    +0.110 C 
ATOM      7  C   LIG    1        2.280  -0.022  -1.003  0.00  0.00    +0.020 C 
ATOM      8  C   LIG    1        2.292   1.510  -1.027  0.00  0.00    +0.290 C 
ENDROOT
BRANCH   6   9
ATOM      9  C   LIG    1        0.828  -2.026  -1.162  0.00  0.00    +0.230 A 
ATOM     10  N   LIG    1        0.019  -2.772  -1.862  0.00  0.00    -0.470 NA
ATOM     11  C   LIG    1        0.295  -4.070  -1.623  0.00  0.00    +0.030 A 
ATOM     12  C   LIG    1        1.322  -4.117  -0.734  0.00  0.00    +0.160 A 
ATOM     13  N   LIG    1        1.657  -2.822  -0.452  0.00  0.00    -0.560 N 
ATOM     14  H   LIG    1        2.359  -2.529   0.150  0.00  0.00    +0.420 HD
BRANCH  11  15
ATOM     15  C   LIG    1       -0.398  -5.237  -2.222  0.00  0.00    +0.020 A 
ATOM     16  C   LIG    1       -0.004  -6.531  -1.888  0.00  0.00    +0.050 A 
ATOM     17  C   LIG    1       -0.654  -7.614  -2.444  0.00  0.00    +0.030 A 
ATOM     18  C   LIG    1       -1.690  -7.418  -3.341  0.00  0.00    +0.060 A 
ATOM     19  C   LIG    1       -2.083  -6.131  -3.681  0.00  0.00    +0.070 A 
ATOM     20  F   LIG    1       -3.095  -5.944  -4.557  0.00  0.00    -0.130 F 
ATOM     21  F   LIG    1       -2.321  -8.481  -3.886  0.00  0.00    -0.130 F 
ATOM     22  C   LIG    1       -1.441  -5.041  -3.125  0.00  0.00    +0.050 A 
ENDBRANCH  11  15
ENDBRANCH   6   9
BRANCH   2  23
ATOM     23  C   LIG    1        3.241   3.301   0.979  0.00  0.00    -0.120 C 
ATOM     24  C   LIG    1        3.549   4.792   1.126  0.00  0.00    +0.090 C 
ATOM     25  C   LIG    1        3.792   4.090  -0.211  0.00  0.00    +0.060 C 
BRANCH  23  26
ATOM     26  C   LIG    1        4.170   2.328   1.658  0.00  0.00    -0.030 A 
ATOM     27  C   LIG    1        5.492   2.242   1.261  0.00  0.00    +0.030 A 
ATOM     28  C   LIG    1        6.346   1.353   1.887  0.00  0.00    +0.030 A 
ATOM     29  C   LIG    1        5.876   0.542   2.903  0.00  0.00    +0.040 A 
ATOM     30  C   LIG    1        4.552   0.623   3.296  0.00  0.00    -0.090 A 
ATOM     31 BR   LIG    1        3.908  -0.486   4.686  0.00  0.00    -0.040 Br
ATOM     32  C   LIG    1        3.700   1.517   2.674  0.00  0.00    +0.050 A 
ENDBRANCH  23  26
ENDBRANCH   2  23
TORSDOF 4
