REMARK  Name = ZINCtV000002LCNf.0
REMARK                            x       y       z     vdW  Elec       q    Type
REMARK                         _______ _______ _______ _____ _____    ______ ____
ROOT
ATOM      1  C   LIG    1       -1.012   4.489  -3.356  0.00  0.00    +0.220 A 
ATOM      2  N   LIG    1       -2.016   4.750  -4.161  0.00  0.00    -0.250 NA
ATOM      3  N   LIG    1       -3.019   4.003  -3.867  0.00  0.00    -0.280 NA
ATOM      4  C   LIG    1       -2.716   3.215  -2.860  0.00  0.00    +0.160 A 
ATOM      5  N   LIG    1       -1.431   3.501  -2.496  0.00  0.00    -0.450 N 
ENDROOT
BRANCH   1  12
ATOM      6  F   LIG    1        0.468   4.844  -5.730  0.00  0.00    -0.120 F 
ATOM      7  C   LIG    1        1.010   5.288  -4.575  0.00  0.00    +0.140 A 
ATOM      8  C   LIG    1        2.252   5.894  -4.581  0.00  0.00    +0.000 A 
ATOM      9  C   LIG    1        2.808   6.349  -3.398  0.00  0.00    +0.070 A 
ATOM     10  C   LIG    1        2.125   6.202  -2.204  0.00  0.00    +0.010 A 
ATOM     11  C   LIG    1        0.882   5.604  -2.184  0.00  0.00    +0.060 A 
ATOM     12  C   LIG    1        0.317   5.136  -3.371  0.00  0.00    -0.060 A 
ENDBRANCH   1  12
BRANCH   5  13
ATOM     13  C   LIG    1       -0.657   2.879  -1.418  0.00  0.00    +0.240 C 
ATOM     14  C   LIG    1       -0.544   1.375  -1.673  0.00  0.00    +0.020 C 
ATOM     15  C   LIG    1        0.264   0.726  -0.548  0.00  0.00    +0.040 C 
ATOM     16  C   LIG    1       -0.441   0.965   0.789  0.00  0.00    +0.010 C 
ATOM     17  C   LIG    1       -0.553   2.469   1.044  0.00  0.00    +0.040 C 
ATOM     18  C   LIG    1       -1.361   3.118  -0.081  0.00  0.00    +0.010 C 
ENDBRANCH   5  13
BRANCH   4  19
ATOM     19  S   LIG    1       -3.771   2.016  -2.115  0.00  0.00    +0.030 S 
BRANCH  19  20
ATOM     20  C   LIG    1       -5.256   2.233  -3.128  0.00  0.00    +0.100 C 
BRANCH  20  21
ATOM     21  C   LIG    1       -6.343   1.267  -2.652  0.00  0.00    +0.240 C 
BRANCH  21  22
ATOM     22  O   LIG    1       -7.515   1.438  -3.451  0.00  0.00    -0.300 OA
BRANCH  22  23
ATOM     23  C   LIG    1       -8.583   0.650  -3.157  0.00  0.00    +0.150 A 
ATOM     24  C   LIG    1       -8.502  -0.273  -2.125  0.00  0.00    -0.060 A 
ATOM     25  C   LIG    1       -9.589  -1.070  -1.825  0.00  0.00    +0.090 A 
ATOM     26  C   LIG    1      -10.756  -0.955  -2.560  0.00  0.00    -0.130 A 
ATOM     27  C   LIG    1      -10.837  -0.039  -3.593  0.00  0.00    +0.090 A 
ATOM     28 BR   LIG    1      -12.241  -2.052  -2.151  0.00  0.00    -0.050 Br
ATOM     29  C   LIG    1       -9.754   0.763  -3.893  0.00  0.00    +0.000 A 
ENDBRANCH  22  23
ENDBRANCH  21  22
ENDBRANCH  20  21
ENDBRANCH  19  20
ENDBRANCH   4  19
TORSDOF 7
