REMARK  Name = ZINCvU0000000Cv3.0
REMARK                            x       y       z     vdW  Elec       q    Type
REMARK                         _______ _______ _______ _____ _____    ______ ____
ROOT
ATOM      1  N   LIG    1       -0.108   5.725  -0.321  0.00  0.00    -0.470 N 
ATOM      2  C   LIG    1       -1.247   6.374  -0.007  0.00  0.00    +0.520 C 
ATOM      3  O   LIG    1       -1.218   7.556   0.261  0.00  0.00    -0.470 OA
ENDROOT
BRANCH   2   4
ATOM      4  C   LIG    1       -2.558   5.630   0.012  0.00  0.00    +0.080 C 
ATOM      5  C   LIG    1       -2.618   4.736   1.250  0.00  0.00    +0.110 C 
ATOM      6  C   LIG    1       -2.789   5.580   2.484  0.00  0.00    +0.520 C 
ATOM      7  N   LIG    1       -3.528   6.704   2.452  0.00  0.00    -0.660 N 
ATOM      8  H   LIG    1       -3.639   7.231   3.259  0.00  0.00    +0.420 HD
ATOM      9  C   LIG    1       -4.138   7.118   1.264  0.00  0.00    +0.180 A 
ATOM     10  C   LIG    1       -5.186   8.027   1.297  0.00  0.00    -0.020 A 
ATOM     11  C   LIG    1       -5.785   8.431   0.119  0.00  0.00    +0.050 A 
ATOM     12  C   LIG    1       -5.342   7.930  -1.091  0.00  0.00    -0.010 A 
ATOM     13  C   LIG    1       -4.297   7.024  -1.127  0.00  0.00    +0.060 A 
ATOM     14  O   LIG    1       -2.254   5.244   3.520  0.00  0.00    -0.520 OA
ATOM     15  C   LIG    1       -3.695   6.617   0.047  0.00  0.00    -0.120 A 
ENDBRANCH   2   4
BRANCH   1  16
ATOM     16  C   LIG    1        1.106   6.395  -0.276  0.00  0.00    +0.310 A 
ATOM     17  N   LIG    1        2.236   5.891  -0.631  0.00  0.00    -0.490 NA
ATOM     18  C   LIG    1        3.333   6.668  -0.531  0.00  0.00    +0.100 A 
ATOM     19  C   LIG    1        4.670   6.354  -0.853  0.00  0.00    +0.060 A 
ATOM     20  C   LIG    1        5.663   7.285  -0.681  0.00  0.00    +0.040 A 
ATOM     21  C   LIG    1        5.369   8.549  -0.190  0.00  0.00    +0.030 A 
ATOM     22  C   LIG    1        4.071   8.878   0.130  0.00  0.00    +0.060 A 
ATOM     23  C   LIG    1        3.050   7.945  -0.037  0.00  0.00    -0.220 A 
ATOM     24  S   LIG    1        1.318   8.053   0.267  0.00  0.00    +0.170 S 
ENDBRANCH   1  16
BRANCH   1  28
ATOM     25  C   LIG    1       -0.233   1.709  -1.425  0.00  0.00    -0.060 A 
ATOM     26  C   LIG    1       -0.630   2.683  -2.322  0.00  0.00    +0.030 A 
ATOM     27  C   LIG    1       -0.595   4.015  -1.957  0.00  0.00    +0.030 A 
ATOM     28  C   LIG    1       -0.150   4.375  -0.692  0.00  0.00    +0.110 A 
ATOM     29  C   LIG    1        0.253   3.394   0.205  0.00  0.00    +0.040 A 
ATOM     30  C   LIG    1        0.210   2.064  -0.164  0.00  0.00    +0.030 A 
BRANCH  25  32
ATOM     31  C   LIG    1       -1.642  -0.332  -1.458  0.00  0.00    +0.030 C 
ATOM     32  C   LIG    1       -0.278   0.256  -1.825  0.00  0.00    +0.070 C 
ENDBRANCH  25  32
ENDBRANCH   1  28
TORSDOF 4
