REMARK  Name = ZINCkj000005lkEJ.0
REMARK                            x       y       z     vdW  Elec       q    Type
REMARK                         _______ _______ _______ _____ _____    ______ ____
ROOT
ATOM      1  C   LIG    1       -5.551   3.344   0.046  0.00  0.00    +0.420 A 
ATOM      2  N   LIG    1       -4.257   3.122   0.039  0.00  0.00    -0.340 NA
ATOM      3  N   LIG    1       -3.762   1.817   0.029  0.00  0.00    -0.270 N 
ATOM      4  C   LIG    1       -4.628   0.751   0.027  0.00  0.00    +0.120 A 
ATOM      5  C   LIG    1       -6.015   0.991   0.035  0.00  0.00    +0.220 A 
ATOM      6  N   LIG    1       -3.890  -0.349   0.017  0.00  0.00    -0.230 NA
ATOM      7  N   LIG    1       -2.642  -0.032   0.008  0.00  0.00    -0.230 NA
ATOM      8  C   LIG    1       -2.508   1.281   0.020  0.00  0.00    +0.250 A 
ATOM      9  C   LIG    1       -6.466   2.273   0.044  0.00  0.00    -0.030 A 
ENDROOT
BRANCH   8  10
ATOM     10  C   LIG    1       -1.235   2.031   0.019  0.00  0.00    -0.060 A 
ATOM     11  C   LIG    1       -1.244   3.427   0.033  0.00  0.00    +0.070 A 
ATOM     12  C   LIG    1       -0.052   4.122   0.025  0.00  0.00    -0.010 A 
ATOM     13  C   LIG    1        1.151   3.439   0.010  0.00  0.00    +0.070 A 
ATOM     14  C   LIG    1        1.169   2.056   0.002  0.00  0.00    +0.000 A 
ATOM     15  C   LIG    1       -0.016   1.347   0.009  0.00  0.00    +0.150 A 
ATOM     16  F   LIG    1        0.002  -0.004   0.002  0.00  0.00    -0.110 F 
ENDBRANCH   8  10
BRANCH   1  17
ATOM     17  N   LIG    1       -6.023   4.652   0.056  0.00  0.00    -0.700 N 
ATOM     18  H   LIG    1       -6.978   4.822   0.061  0.00  0.00    +0.430 HD
BRANCH  17  19
ATOM     19  C   LIG    1       -5.079   5.772   0.058  0.00  0.00    +0.280 C 
BRANCH  19  20
ATOM     20  C   LIG    1       -5.854   7.092   0.069  0.00  0.00    +0.260 C 
BRANCH  20  21
ATOM     21  N   LIG    1       -4.907   8.215   0.071  0.00  0.00    -0.630 N 
ATOM     22  H   LIG    1       -4.330   8.171  -0.755  0.00  0.00    +0.440 HD
ATOM     23  H   LIG    1       -4.323   8.161   0.892  0.00  0.00    +0.440 HD
ATOM     24  H   LIG    1       -5.418   9.085   0.079  0.00  0.00    +0.450 HD
ENDBRANCH  20  21
ENDBRANCH  19  20
ENDBRANCH  17  19
ENDBRANCH   1  17
TORSDOF 5
