REMARK  Name = ZINCpk000005CbZ8.0
REMARK                            x       y       z     vdW  Elec       q    Type
REMARK                         _______ _______ _______ _____ _____    ______ ____
ROOT
ATOM      1  N   LIG    1        2.211  -2.858   2.499  0.00  0.00    -0.720 N 
ATOM      2  H   LIG    1        2.051  -1.906   2.402  0.00  0.00    +0.400 HD
ATOM      3  C   LIG    1        2.155  -3.431   3.718  0.00  0.00    +0.560 C 
ATOM      4  O   LIG    1        2.355  -4.623   3.839  0.00  0.00    -0.520 OA
ENDROOT
BRANCH   3   5
ATOM      5  C   LIG    1        1.848  -2.604   4.912  0.00  0.00    -0.030 A 
ATOM      6  C   LIG    1        1.782  -3.181   6.168  0.00  0.00    +0.000 A 
ATOM      7  C   LIG    1        1.493  -2.366   7.280  0.00  0.00    +0.520 A 
ATOM      8  N   LIG    1        1.276  -1.048   7.113  0.00  0.00    -0.600 N 
ATOM      9  H   LIG    1        1.074  -0.496   7.884  0.00  0.00    +0.410 HD
ATOM     10  C   LIG    1        1.335  -0.478   5.882  0.00  0.00    +0.200 A 
ATOM     11  O   LIG    1        1.434  -2.856   8.396  0.00  0.00    -0.530 OA
ATOM     12  C   LIG    1        1.614  -1.218   4.785  0.00  0.00    -0.070 A 
BRANCH  10  13
ATOM     13  C   LIG    1        1.086   1.001   5.737  0.00  0.00    +0.000 C 
ATOM     14  C   LIG    1        0.979   1.829   7.019  0.00  0.00    +0.040 C 
ATOM     15  C   LIG    1       -0.274   1.536   6.189  0.00  0.00    +0.050 C 
ENDBRANCH  10  13
ENDBRANCH   3   5
BRANCH   1  16
ATOM     16  C   LIG    1        2.513  -3.674   1.320  0.00  0.00    +0.280 C 
BRANCH  16  18
ATOM     17  C   LIG    1        2.707  -3.656  -1.171  0.00  0.00    +0.050 C 
ATOM     18  C   LIG    1        2.515  -2.787   0.073  0.00  0.00    +0.250 C 
BRANCH  18  19
ATOM     19  N   LIG    1        1.239  -2.073  -0.021  0.00  0.00    -0.590 N 
ATOM     20  C   LIG    1       -0.014  -2.825  -0.124  0.00  0.00    +0.300 C 
BRANCH  19  21
ATOM     21  C   LIG    1        1.217  -0.682  -0.013  0.00  0.00    +0.340 A 
ATOM     22  C   LIG    1        0.002  -0.004   0.002  0.00  0.00    +0.210 A 
ATOM     23  N   LIG    1       -0.016   1.316   0.009  0.00  0.00    -0.430 NA
ATOM     24  C   LIG    1        1.121   1.995   0.002  0.00  0.00    +0.190 A 
ATOM     25  C   LIG    1        2.332   1.322  -0.013  0.00  0.00    +0.280 A 
ATOM     26  F   LIG    1        1.100   3.345   0.009  0.00  0.00    -0.110 F 
ATOM     27  N   LIG    1        2.355   0.001  -0.020  0.00  0.00    -0.480 NA
ENDBRANCH  19  21
ENDBRANCH  18  19
ENDBRANCH  16  18
ENDBRANCH   1  16
TORSDOF 6
