REMARK  Name = ZINCpk00000y6vlQ.0
REMARK                            x       y       z     vdW  Elec       q    Type
REMARK                         _______ _______ _______ _____ _____    ______ ____
ROOT
ATOM      1  C   LIG    1        1.902  -1.613   0.432  0.00  0.00    +0.280 C 
ENDROOT
BRANCH   1   2
ATOM      2  C   LIG    1        1.152  -0.389   0.959  0.00  0.00    -0.040 C 
ATOM      3  C   LIG    1        2.073   0.852   0.957  0.00  0.00    +0.000 C 
ATOM      4  C   LIG    1        1.370   1.839  -0.001  0.00  0.00    +0.190 C 
ATOM      5  O   LIG    1       -0.018   1.440   0.010  0.00  0.00    -0.360 OA
ATOM      6  C   LIG    1        0.002  -0.004   0.002  0.00  0.00    +0.250 C 
BRANCH   6   7
ATOM      7  C   LIG    1       -1.308  -0.549   0.510  0.00  0.00    -0.240 A 
ATOM      8  C   LIG    1       -2.005  -1.577  -0.028  0.00  0.00    +0.100 A 
ATOM      9  N   LIG    1       -3.117  -1.754   0.716  0.00  0.00    -0.370 N 
ATOM     10  N   LIG    1       -3.102  -0.804   1.746  0.00  0.00    -0.300 NA
ATOM     11  C   LIG    1       -4.155  -2.761   0.487  0.00  0.00    +0.360 C 
ATOM     12  C   LIG    1       -1.611  -2.378  -1.242  0.00  0.00    +0.140 C 
ATOM     13  C   LIG    1       -2.015  -0.087   1.625  0.00  0.00    +0.100 A 
ATOM     14  C   LIG    1       -1.598   1.045   2.528  0.00  0.00    +0.160 C 
ENDBRANCH   6   7
ENDBRANCH   1   2
BRANCH   1  16
ATOM     15  C   LIG    1        3.694  -3.095   1.160  0.00  0.00    +0.610 C 
ATOM     16  N   LIG    1        2.908  -2.030   1.412  0.00  0.00    -0.710 N 
ATOM     17  H   LIG    1        3.008  -1.539   2.243  0.00  0.00    +0.410 HD
ATOM     18  O   LIG    1        3.568  -3.711   0.119  0.00  0.00    -0.520 OA
BRANCH  15  22
ATOM     19  N   LIG    1        5.917  -3.609   3.887  0.00  0.00    -0.140 N 
ATOM     20  N   LIG    1        6.310  -4.586   3.150  0.00  0.00    -0.290 NA
ATOM     21  C   LIG    1        5.605  -4.598   2.044  0.00  0.00    +0.060 A 
ATOM     22  C   LIG    1        4.708  -3.515   2.149  0.00  0.00    -0.050 A 
ATOM     23  C   LIG    1        5.727  -5.569   0.898  0.00  0.00    +0.190 C 
ATOM     24  N   LIG    1        4.970  -2.950   3.318  0.00  0.00    -0.250 NA
BRANCH  19  26
ATOM     25  C   LIG    1        7.644  -2.308   5.029  0.00  0.00    +0.060 C 
ATOM     26  C   LIG    1        6.479  -3.284   5.200  0.00  0.00    +0.350 C 
ENDBRANCH  19  26
ENDBRANCH  15  22
ENDBRANCH   1  16
TORSDOF 5
