REMARK  Name = ZINCpk00000y6xyL.2
REMARK                            x       y       z     vdW  Elec       q    Type
REMARK                         _______ _______ _______ _____ _____    ______ ____
ROOT
ATOM      1  C   LIG    1        0.301  -0.376  -2.758  0.00  0.00    +0.230 C 
ATOM      2  C   LIG    1       -1.114  -0.194  -3.313  0.00  0.00    +0.010 C 
ATOM      3  C   LIG    1       -1.040   0.545  -4.652  0.00  0.00    +0.010 C 
ATOM      4  C   LIG    1       -0.338   1.890  -4.445  0.00  0.00    +0.030 C 
ATOM      5  C   LIG    1        1.054   1.648  -3.858  0.00  0.00    +0.160 C 
ATOM      6  N   LIG    1        0.930   0.938  -2.578  0.00  0.00    -0.530 NA
ATOM      7  C   LIG    1        2.236   0.811  -1.918  0.00  0.00    +0.190 C 
ENDROOT
BRANCH   1  13
ATOM      8  C   LIG    1        0.640  -3.450  -2.235  0.00  0.00    +0.310 C 
ATOM      9  N   LIG    1        0.382  -2.430  -1.216  0.00  0.00    -0.460 N 
ATOM     10  C   LIG    1        0.254  -2.638   0.113  0.00  0.00    +0.390 A 
ATOM     11  N   LIG    1        0.030  -1.492   0.696  0.00  0.00    -0.490 NA
ATOM     12  C   LIG    1        0.008  -0.522  -0.229  0.00  0.00    +0.170 A 
ATOM     13  C   LIG    1        0.232  -1.086  -1.431  0.00  0.00    -0.030 A 
ENDBRANCH   1  13
BRANCH   2  14
ATOM     14  C   LIG    1       -1.761  -1.565  -3.522  0.00  0.00    +0.260 C 
BRANCH  14  15
ATOM     15  N   LIG    1       -3.154  -1.389  -3.939  0.00  0.00    -0.720 N 
ATOM     16  H   LIG    1       -3.521  -0.496  -4.040  0.00  0.00    +0.400 HD
ATOM     17  C   LIG    1       -3.926  -2.466  -4.182  0.00  0.00    +0.560 C 
ATOM     18  O   LIG    1       -3.467  -3.584  -4.055  0.00  0.00    -0.520 OA
BRANCH  17  19
ATOM     19  C   LIG    1       -5.335  -2.288  -4.604  0.00  0.00    -0.090 A 
ATOM     20  C   LIG    1       -5.885  -1.011  -4.750  0.00  0.00    +0.030 A 
ATOM     21  C   LIG    1       -7.204  -0.884  -5.150  0.00  0.00    +0.290 A 
ATOM     22  N   LIG    1       -7.946  -1.944  -5.384  0.00  0.00    -0.430 NA
ATOM     23  C   LIG    1       -7.471  -3.177  -5.254  0.00  0.00    +0.200 A 
ATOM     24  C   LIG    1       -6.152  -3.392  -4.860  0.00  0.00    +0.100 A 
BRANCH  23  25
ATOM     25  C   LIG    1       -8.323  -4.297  -5.522  0.00  0.00    +0.260 C 
ATOM     26  N   LIG    1       -8.998  -5.185  -5.735  0.00  0.00    -0.370 NA
ENDBRANCH  23  25
ENDBRANCH  17  19
ENDBRANCH  14  15
ENDBRANCH   2  14
TORSDOF 5
