REMARK  Name = ZINCnE000005qTBM.0
REMARK                            x       y       z     vdW  Elec       q    Type
REMARK                         _______ _______ _______ _____ _____    ______ ____
ROOT
ATOM      1  S   LIG    1       -0.080   6.029   0.033  0.00  0.00    +2.590 S 
ATOM      2  O   LIG    1        1.170   6.445   0.568  0.00  0.00    -1.040 OA
ATOM      3  O   LIG    1       -1.330   6.411   0.592  0.00  0.00    -1.040 OA
ENDROOT
BRANCH   1   4
ATOM      4  C   LIG    1       -0.056   4.267   0.025  0.00  0.00    -0.600 A 
ATOM      5  C   LIG    1        1.151   3.592   0.010  0.00  0.00    +0.110 A 
ATOM      6  C   LIG    1        1.169   2.210   0.003  0.00  0.00    +0.010 A 
ATOM      7  C   LIG    1       -0.018   1.503   0.010  0.00  0.00    -0.080 A 
ATOM      8  C   LIG    1       -1.225   2.178   0.020  0.00  0.00    +0.010 A 
ATOM      9  C   LIG    1       -1.244   3.560   0.032  0.00  0.00    +0.110 A 
BRANCH   7  10
ATOM     10  C   LIG    1        0.002  -0.004   0.002  0.00  0.00    +0.120 C 
BRANCH  10  11
ATOM     11  C   LIG    1        0.023  -0.522   1.442  0.00  0.00    +0.450 C 
ATOM     12  F   LIG    1        1.165  -0.043   2.093  0.00  0.00    -0.180 F 
ATOM     13  F   LIG    1        0.042  -1.921   1.434  0.00  0.00    -0.190 F 
ATOM     14  F   LIG    1       -1.119  -0.075   2.115  0.00  0.00    -0.180 F 
ENDBRANCH  10  11
ENDBRANCH   7  10
ENDBRANCH   1   4
BRANCH   1  15
ATOM     15  N   LIG    1       -0.102   6.527  -1.546  0.00  0.00    -1.080 NA
BRANCH  15  21
ATOM     16  C   LIG    1       -0.143   8.461  -3.136  0.00  0.00    +0.060 A 
ATOM     17  N   LIG    1       -0.160   9.764  -3.017  0.00  0.00    -0.300 NA
ATOM     18  N   LIG    1       -0.152  10.084  -1.653  0.00  0.00    -0.490 N 
ATOM     19  H   LIG    1       -0.162  10.977  -1.276  0.00  0.00    +0.420 HD
ATOM     20  C   LIG    1       -0.134   8.918  -0.953  0.00  0.00    +0.010 A 
ATOM     21  C   LIG    1       -0.123   7.901  -1.851  0.00  0.00    +0.140 A 
BRANCH  16  23
ATOM     22  C   LIG    1       -1.406   8.037  -5.228  0.00  0.00    +0.010 C 
ATOM     23  C   LIG    1       -0.144   7.694  -4.433  0.00  0.00    +0.100 C 
ATOM     24  C   LIG    1        1.092   8.072  -5.251  0.00  0.00    +0.010 C 
ENDBRANCH  16  23
ENDBRANCH  15  21
ENDBRANCH   1  15
TORSDOF 6
