REMARK  Name = ZINCpe00000bm2zn.0
REMARK                            x       y       z     vdW  Elec       q    Type
REMARK                         _______ _______ _______ _____ _____    ______ ____
ROOT
ATOM      1  C   LIG    1        1.507   1.527   0.017  0.00  0.00    +0.520 C 
ATOM      2  N   LIG    1        2.351   1.304  -1.010  0.00  0.00    -0.600 N 
ATOM      3  C   LIG    1        1.944   0.465  -2.145  0.00  0.00    +0.290 C 
ATOM      4  C   LIG    1        2.149   1.265  -3.442  0.00  0.00    +0.030 C 
ATOM      5  C   LIG    1        3.591   1.765  -3.504  0.00  0.00    -0.070 C 
ATOM      6  C   LIG    1        3.891   2.676  -2.315  0.00  0.00    +0.030 C 
ATOM      7  C   LIG    1        4.558   0.567  -3.500  0.00  0.00    +0.020 C 
ATOM      8  C   LIG    1        4.865   0.324  -4.999  0.00  0.00    +0.020 C 
ATOM      9  C   LIG    1        4.936   1.761  -5.572  0.00  0.00    +0.010 C 
ATOM     10  C   LIG    1        3.826   2.524  -4.818  0.00  0.00    +0.250 C 
ATOM     11  C   LIG    1        3.698   1.892  -1.012  0.00  0.00    +0.270 C 
ATOM     12  O   LIG    1        0.435   0.962   0.054  0.00  0.00    -0.530 OA
ENDROOT
BRANCH  10  13
ATOM     13  N   LIG    1        4.260   3.895  -4.536  0.00  0.00    -0.730 N 
ATOM     14  H   LIG    1        4.700   4.101  -3.697  0.00  0.00    +0.400 HD
ATOM     15  C   LIG    1        4.048   4.869  -5.443  0.00  0.00    +0.510 C 
ATOM     16  O   LIG    1        3.497   4.612  -6.492  0.00  0.00    -0.510 OA
BRANCH  15  17
ATOM     17  C   LIG    1        4.494   6.279  -5.152  0.00  0.00    +0.200 C 
BRANCH  17  18
ATOM     18  O   LIG    1        4.160   7.122  -6.257  0.00  0.00    -0.370 OA
ATOM     19  C   LIG    1        4.542   8.487  -6.082  0.00  0.00    +0.200 C 
ENDBRANCH  17  18
ENDBRANCH  15  17
ENDBRANCH  10  13
BRANCH   1  20
ATOM     20  C   LIG    1        1.896   2.477   1.120  0.00  0.00    +0.230 C 
ATOM     21  C   LIG    1        2.777   1.747   2.135  0.00  0.00    +0.060 C 
BRANCH  20  23
ATOM     22  C   LIG    1        0.711   4.157   2.427  0.00  0.00    +0.520 C 
ATOM     23  N   LIG    1        0.689   2.971   1.787  0.00  0.00    -0.720 N 
ATOM     24  H   LIG    1       -0.125   2.445   1.768  0.00  0.00    +0.410 HD
ATOM     25  O   LIG    1        1.730   4.815   2.451  0.00  0.00    -0.540 OA
BRANCH  22  27
ATOM     26  C   LIG    1       -0.238   6.022   3.758  0.00  0.00    +0.040 C 
ATOM     27  C   LIG    1       -0.531   4.666   3.114  0.00  0.00    +0.060 C 
ENDBRANCH  22  27
ENDBRANCH  20  23
ENDBRANCH   1  20
TORSDOF 6
