REMARK  Name = ZINCqH0000037uaa.0
REMARK                            x       y       z     vdW  Elec       q    Type
REMARK                         _______ _______ _______ _____ _____    ______ ____
ROOT
ATOM      1  N   LIG    1        1.143   1.902   0.001  0.00  0.00    -0.700 N 
ATOM      2  H   LIG    1        1.130   2.872   0.007  0.00  0.00    +0.420 HD
ATOM      3  C   LIG    1       -0.014   1.212   0.009  0.00  0.00    +0.600 C 
ATOM      4  O   LIG    1        0.002  -0.004   0.002  0.00  0.00    -0.530 OA
ENDROOT
BRANCH   1  15
ATOM      5  C   LIG    1        2.987   3.169  -1.485  0.00  0.00    +0.080 C 
ATOM      6  C   LIG    1        3.554   2.089  -0.561  0.00  0.00    +0.180 C 
ATOM      7  O   LIG    1        4.099   2.675   0.633  0.00  0.00    -0.290 OA
ATOM      8  C   LIG    1        3.897   1.830   1.681  0.00  0.00    +0.150 A 
ATOM      9  C   LIG    1        4.524   1.783   2.923  0.00  0.00    -0.040 A 
ATOM     10  C   LIG    1        4.151   0.833   3.855  0.00  0.00    +0.150 A 
ATOM     11  C   LIG    1        3.152  -0.080   3.561  0.00  0.00    -0.050 A 
ATOM     12  C   LIG    1        2.529  -0.041   2.326  0.00  0.00    +0.120 A 
ATOM     13  F   LIG    1        4.763   0.796   5.059  0.00  0.00    -0.130 F 
ATOM     14  C   LIG    1        2.901   0.902   1.396  0.00  0.00    -0.200 A 
ATOM     15  C   LIG    1        2.422   1.187  -0.015  0.00  0.00    +0.280 C 
ENDBRANCH   1  15
BRANCH   3  16
ATOM     16  C   LIG    1       -1.300   1.931   0.019  0.00  0.00    +0.000 A 
ATOM     17  C   LIG    1       -2.501   1.287   0.021  0.00  0.00    -0.020 A 
ATOM     18  S   LIG    1       -3.756   2.448   0.033  0.00  0.00    +0.250 S 
ATOM     19  C   LIG    1       -2.575   3.753   0.035  0.00  0.00    +0.070 A 
ATOM     20  N   LIG    1       -1.377   3.254   0.032  0.00  0.00    -0.400 NA
BRANCH  19  21
ATOM     21  C   LIG    1       -2.898   5.196   0.044  0.00  0.00    +0.170 A 
ATOM     22  N   LIG    1       -1.918   6.091   0.045  0.00  0.00    -0.420 NA
ATOM     23  C   LIG    1       -2.163   7.385   0.053  0.00  0.00    +0.270 A 
ATOM     24  C   LIG    1       -3.462   7.862   0.061  0.00  0.00    +0.020 A 
ATOM     25  C   LIG    1       -4.519   6.964   0.061  0.00  0.00    +0.060 A 
ATOM     26  C   LIG    1       -4.234   5.607   0.046  0.00  0.00    +0.060 A 
ATOM     27  F   LIG    1       -5.232   4.697   0.040  0.00  0.00    -0.120 F 
ENDBRANCH  19  21
ENDBRANCH   3  16
TORSDOF 3
