REMARK  Name = ZINCpk00000k2A5N.0
REMARK                            x       y       z     vdW  Elec       q    Type
REMARK                         _______ _______ _______ _____ _____    ______ ____
ROOT
ATOM      1  C   LIG    1       -1.173  -0.878   0.009  0.00  0.00    +0.270 C 
ATOM      2  C   LIG    1       -0.869  -2.136   0.826  0.00  0.00    +0.100 C 
ENDROOT
BRANCH   1   5
ATOM      3  C   LIG    1        2.043   0.716  -0.014  0.00  0.00    -0.020 A 
ATOM      4  C   LIG    1        1.293  -0.411  -0.013  0.00  0.00    +0.200 A 
ATOM      5  N   LIG    1        0.002  -0.004   0.002  0.00  0.00    -0.280 N 
ATOM      6  N   LIG    1       -0.015   1.283   0.009  0.00  0.00    -0.080 NA
ATOM      7  N   LIG    1        1.186   1.743   0.000  0.00  0.00    -0.240 NA
BRANCH   3   8
ATOM      8  C   LIG    1        3.548   0.797  -0.028  0.00  0.00    +0.040 C 
ATOM      9  C   LIG    1        4.090   0.445   1.359  0.00  0.00    +0.080 C 
ATOM     10  C   LIG    1        3.978   2.218  -0.397  0.00  0.00    +0.070 C 
BRANCH   8  11
ATOM     11  C   LIG    1        4.094  -0.173  -1.043  0.00  0.00    +0.470 C 
ATOM     12  O   LIG    1        3.338  -0.861  -1.689  0.00  0.00    -0.500 OA
BRANCH  11  14
ATOM     13  C   LIG    1        5.874  -1.230  -2.223  0.00  0.00    +0.250 C 
ATOM     14  O   LIG    1        5.419  -0.275  -1.229  0.00  0.00    -0.350 OA
ENDBRANCH  11  14
ENDBRANCH   8  11
ENDBRANCH   3   8
ENDBRANCH   1   5
BRANCH   1  15
ATOM     15  C   LIG    1       -1.516  -1.270  -1.406  0.00  0.00    +0.510 C 
ATOM     16  N   LIG    1       -2.569  -2.076  -1.645  0.00  0.00    -0.720 N 
ATOM     17  H   LIG    1       -3.106  -2.405  -0.908  0.00  0.00    +0.410 HD
ATOM     18  O   LIG    1       -0.845  -0.858  -2.328  0.00  0.00    -0.500 OA
BRANCH  16  19
ATOM     19  C   LIG    1       -2.902  -2.457  -3.020  0.00  0.00    +0.350 C 
ATOM     20  C   LIG    1       -2.066  -3.670  -3.431  0.00  0.00    +0.060 C 
BRANCH  19  21
ATOM     21  C   LIG    1       -4.367  -2.804  -3.105  0.00  0.00    -0.050 A 
ATOM     22  C   LIG    1       -5.219  -2.487  -4.109  0.00  0.00    -0.030 A 
ATOM     23  C   LIG    1       -6.452  -3.042  -3.698  0.00  0.00    +0.020 A 
ATOM     24  N   LIG    1       -6.235  -3.610  -2.547  0.00  0.00    -0.360 NA
ATOM     25  C   LIG    1       -7.760  -2.987  -4.444  0.00  0.00    +0.160 C 
ATOM     26  O   LIG    1       -5.081  -3.492  -2.204  0.00  0.00    +0.100 OA
ENDBRANCH  19  21
ENDBRANCH  16  19
ENDBRANCH   1  15
TORSDOF 7
