REMARK  Name = ZINCpk00000KfLyp.0
REMARK                            x       y       z     vdW  Elec       q    Type
REMARK                         _______ _______ _______ _____ _____    ______ ____
ROOT
ATOM      1  C   LIG    1        2.915   3.898  -0.438  0.00  0.00    +0.070 C 
ATOM      2  C   LIG    1        2.625   5.118  -1.331  0.00  0.00    +0.190 C 
ATOM      3  N   LIG    1        1.186   5.075  -1.671  0.00  0.00    -0.510 NA
ATOM      4  C   LIG    1        0.788   3.648  -1.567  0.00  0.00    +0.180 C 
ATOM      5  C   LIG    1        1.566   3.153  -0.322  0.00  0.00    +0.010 C 
ENDROOT
BRANCH   1   9
ATOM      6  C   LIG    1        5.668   4.482   3.710  0.00  0.00    +0.350 C 
ATOM      7  N   LIG    1        4.588   4.596   2.726  0.00  0.00    -0.380 N 
ATOM      8  C   LIG    1        4.538   3.979   1.527  0.00  0.00    +0.230 A 
ATOM      9  C   LIG    1        3.385   4.346   0.922  0.00  0.00    -0.230 A 
ATOM     10  C   LIG    1        2.701   5.208   1.786  0.00  0.00    +0.240 A 
ATOM     11  N   LIG    1        3.422   5.359   2.867  0.00  0.00    -0.300 NA
ENDBRANCH   1   9
BRANCH   3  12
ATOM     12  C   LIG    1        0.949   5.591  -3.025  0.00  0.00    +0.290 C 
BRANCH  12  13
ATOM     13  C   LIG    1       -0.535   5.699  -3.269  0.00  0.00    +0.190 A 
ATOM     14  N   LIG    1       -1.288   4.812  -3.860  0.00  0.00    -0.290 NA
ATOM     15  N   LIG    1       -2.504   5.229  -3.892  0.00  0.00    -0.290 NA
ATOM     16  C   LIG    1       -2.580   6.406  -3.332  0.00  0.00    +0.210 A 
ATOM     17  N   LIG    1       -1.332   6.737  -2.921  0.00  0.00    -0.430 N 
BRANCH  16  18
ATOM     18  C   LIG    1       -3.824   7.241  -3.172  0.00  0.00    +0.030 C 
ATOM     19  C   LIG    1       -5.162   6.588  -3.526  0.00  0.00    +0.060 C 
ATOM     20  C   LIG    1       -4.564   7.656  -4.445  0.00  0.00    +0.040 C 
ENDBRANCH  16  18
BRANCH  17  21
ATOM     21  C   LIG    1       -0.927   7.968  -2.237  0.00  0.00    +0.190 C 
ATOM     22  C   LIG    1       -1.424   9.294  -2.817  0.00  0.00    +0.060 C 
ATOM     23  C   LIG    1        0.046   8.895  -2.969  0.00  0.00    +0.050 C 
ENDBRANCH  17  21
ENDBRANCH  12  13
ENDBRANCH   3  12
BRANCH   5  24
ATOM     24  C   LIG    1        1.777   1.638  -0.382  0.00  0.00    +0.190 C 
BRANCH  24  25
ATOM     25  O   LIG    1        0.515   0.977  -0.274  0.00  0.00    -0.570 OA
ATOM     26  H   LIG    1        0.573   0.012  -0.304  0.00  0.00    +0.380 HD
ENDBRANCH  24  25
ENDBRANCH   5  24
TORSDOF 7
