REMARK  Name = ZINCpe000000XGWr.0
REMARK                            x       y       z     vdW  Elec       q    Type
REMARK                         _______ _______ _______ _____ _____    ______ ____
ROOT
ATOM      1  C   LIG    1       -2.582   1.077   4.938  0.00  0.00    +0.160 C 
ATOM      2  C   LIG    1       -3.036   0.544   3.603  0.00  0.00    +0.230 A 
ATOM      3  C   LIG    1       -2.494   1.037   2.433  0.00  0.00    -0.170 A 
ATOM      4  C   LIG    1       -2.945   0.513   1.219  0.00  0.00    +0.480 A 
ATOM      5  N   LIG    1       -3.878  -0.432   1.231  0.00  0.00    -0.570 NA
ATOM      6  C   LIG    1       -4.367  -0.881   2.376  0.00  0.00    +0.610 A 
ATOM      7  N   LIG    1       -3.960  -0.404   3.541  0.00  0.00    -0.570 NA
ENDROOT
BRANCH   6   8
ATOM      8  N   LIG    1       -5.342  -1.879   2.353  0.00  0.00    -0.320 N 
ATOM      9  N   LIG    1       -5.881  -2.481   1.209  0.00  0.00    -0.260 NA
ATOM     10  C   LIG    1       -6.762  -3.369   1.590  0.00  0.00    +0.090 A 
ATOM     11  C   LIG    1       -6.823  -3.359   2.989  0.00  0.00    -0.100 A 
ATOM     12  C   LIG    1       -7.577  -4.249   0.678  0.00  0.00    +0.170 C 
ATOM     13  C   LIG    1       -5.942  -2.436   3.438  0.00  0.00    +0.120 A 
ATOM     14  C   LIG    1       -5.675  -2.089   4.880  0.00  0.00    +0.160 C 
ENDBRANCH   6   8
BRANCH   4  15
ATOM     15  N   LIG    1       -2.430   0.977   0.019  0.00  0.00    -0.580 N 
ATOM     16  C   LIG    1       -2.986   0.501  -1.250  0.00  0.00    +0.320 C 
BRANCH  15  17
ATOM     17  C   LIG    1       -1.330   1.944   0.019  0.00  0.00    +0.340 C 
BRANCH  17  18
ATOM     18  C   LIG    1       -0.014   1.209   0.009  0.00  0.00    +0.490 C 
ATOM     19  N   LIG    1        1.143   1.898   0.001  0.00  0.00    -0.620 N 
ATOM     20  C   LIG    1        1.149   3.370   0.003  0.00  0.00    +0.240 C 
ATOM     21  C   LIG    1        2.086   3.844   1.125  0.00  0.00    +0.220 C 
ATOM     22  O   LIG    1        3.356   3.206   0.976  0.00  0.00    -0.380 OA
ATOM     23  C   LIG    1        3.314   1.782   1.103  0.00  0.00    +0.220 C 
ATOM     24  C   LIG    1        2.440   1.202  -0.015  0.00  0.00    +0.260 C 
ATOM     25  O   LIG    1        0.002  -0.004   0.002  0.00  0.00    -0.520 OA
ENDBRANCH  17  18
ENDBRANCH  15  17
ENDBRANCH   4  15
TORSDOF 4
