REMARK  Name = ZINCqH0000008yPY.0
REMARK                            x       y       z     vdW  Elec       q    Type
REMARK                         _______ _______ _______ _____ _____    ______ ____
ROOT
ATOM      1  N   LIG    1       -0.860   1.635   1.021  0.00  0.00    -0.500 NA
ATOM      2  C   LIG    1       -0.206   0.648   1.899  0.00  0.00    +0.240 C 
ATOM      3  C   LIG    1       -0.501   0.991   3.365  0.00  0.00    +0.070 C 
ATOM      4  C   LIG    1       -1.985   1.219   3.501  0.00  0.00    -0.170 A 
ATOM      5  C   LIG    1       -2.807   1.427   2.447  0.00  0.00    +0.030 A 
ATOM      6  N   LIG    1       -4.091   1.595   2.888  0.00  0.00    -0.580 N 
ATOM      7  H   LIG    1       -4.860   1.758   2.319  0.00  0.00    +0.410 HD
ATOM      8  C   LIG    1       -4.128   1.501   4.250  0.00  0.00    +0.100 A 
ATOM      9  C   LIG    1       -5.175   1.597   5.164  0.00  0.00    +0.000 A 
ATOM     10  C   LIG    1       -4.854   1.447   6.503  0.00  0.00    +0.020 A 
ATOM     11  C   LIG    1       -3.558   1.214   6.931  0.00  0.00    -0.030 A 
ATOM     12  C   LIG    1       -2.506   1.114   6.053  0.00  0.00    +0.060 A 
ATOM     13  C   LIG    1       -2.801   1.260   4.694  0.00  0.00    -0.100 A 
ATOM     14  C   LIG    1       -2.321   1.457   1.017  0.00  0.00    +0.310 C 
ENDROOT
BRANCH   1  16
ATOM     15  C   LIG    1        1.027   3.137   1.446  0.00  0.00    +0.070 C 
ATOM     16  C   LIG    1       -0.497   3.005   1.407  0.00  0.00    +0.230 C 
BRANCH  16  17
ATOM     17  C   LIG    1       -1.060   3.976   0.401  0.00  0.00    +0.180 A 
ATOM     18  N   LIG    1       -0.999   3.874  -0.904  0.00  0.00    -0.270 NA
ATOM     19  N   LIG    1       -1.593   4.898  -1.412  0.00  0.00    -0.080 NA
ATOM     20  N   LIG    1       -2.032   5.651  -0.464  0.00  0.00    -0.090 NA
ATOM     21  N   LIG    1       -1.728   5.113   0.668  0.00  0.00    -0.300 N 
BRANCH  21  22
ATOM     22  C   LIG    1       -2.046   5.644   1.997  0.00  0.00    +0.260 C 
ATOM     23  C   LIG    1       -3.564   5.761   2.148  0.00  0.00    +0.030 C 
ATOM     24  C   LIG    1       -3.897   6.315   3.535  0.00  0.00    +0.030 C 
ATOM     25  C   LIG    1       -3.259   7.696   3.699  0.00  0.00    +0.010 C 
ATOM     26  C   LIG    1       -1.741   7.578   3.548  0.00  0.00    +0.030 C 
ATOM     27  C   LIG    1       -1.409   7.024   2.161  0.00  0.00    +0.020 C 
ENDBRANCH  21  22
ENDBRANCH  16  17
ENDBRANCH   1  16
TORSDOF 3
