REMARK  Name = ZINCpk00000y6wa3.0
REMARK                            x       y       z     vdW  Elec       q    Type
REMARK                         _______ _______ _______ _____ _____    ______ ____
ROOT
ATOM      1  C   LIG    1       -6.306   6.147   2.555  0.00  0.00    +0.280 C 
ATOM      2  C   LIG    1       -5.572   5.504   1.375  0.00  0.00    +0.190 C 
ATOM      3  N   LIG    1       -4.600   4.525   1.884  0.00  0.00    -0.510 NA
ATOM      4  C   LIG    1       -3.635   5.170   2.786  0.00  0.00    +0.150 C 
ATOM      5  C   LIG    1       -4.388   5.817   3.952  0.00  0.00    +0.250 C 
ATOM      6  O   LIG    1       -5.350   6.742   3.437  0.00  0.00    -0.370 OA
ENDROOT
BRANCH   1  11
ATOM      7  C   LIG    1      -10.429   8.907   1.605  0.00  0.00    +0.200 C 
ATOM      8  C   LIG    1       -9.014   8.390   1.638  0.00  0.00    +0.190 A 
ATOM      9  N   LIG    1       -7.982   8.921   1.040  0.00  0.00    -0.290 NA
ATOM     10  N   LIG    1       -6.933   8.219   1.282  0.00  0.00    -0.260 NA
ATOM     11  C   LIG    1       -7.247   7.207   2.045  0.00  0.00    +0.180 A 
ATOM     12  N   LIG    1       -8.578   7.284   2.288  0.00  0.00    -0.570 N 
ATOM     13  H   LIG    1       -9.110   6.673   2.821  0.00  0.00    +0.430 HD
ENDBRANCH   1  11
BRANCH   3  14
ATOM     14  C   LIG    1       -3.913   3.843   0.779  0.00  0.00    +0.140 C 
ATOM     15  C   LIG    1       -4.947   3.173  -0.129  0.00  0.00    +0.070 C 
BRANCH  14  16
ATOM     16  C   LIG    1       -2.982   2.798   1.336  0.00  0.00    +0.530 C 
ATOM     17  N   LIG    1       -1.858   2.471   0.667  0.00  0.00    -0.560 N 
ATOM     18  C   LIG    1       -1.486   2.989  -0.655  0.00  0.00    +0.270 C 
ATOM     19  C   LIG    1       -0.137   2.326  -0.979  0.00  0.00    +0.090 C 
ATOM     20  C   LIG    1        0.160   1.454   0.221  0.00  0.00    -0.140 A 
ATOM     21  C   LIG    1        1.229   0.624   0.495  0.00  0.00    +0.050 A 
ATOM     22  C   LIG    1        1.274  -0.082   1.683  0.00  0.00    -0.010 A 
ATOM     23  C   LIG    1        0.244   0.045   2.597  0.00  0.00    +0.040 A 
ATOM     24  C   LIG    1       -0.825   0.873   2.328  0.00  0.00    +0.010 A 
ATOM     25  C   LIG    1       -0.877   1.589   1.131  0.00  0.00    +0.140 A 
ATOM     26  O   LIG    1       -3.243   2.250   2.386  0.00  0.00    -0.490 OA
ENDBRANCH  14  16
ENDBRANCH   3  14
TORSDOF 3
