REMARK  Name = ZINCpk00000y6wa3.1
REMARK                            x       y       z     vdW  Elec       q    Type
REMARK                         _______ _______ _______ _____ _____    ______ ____
ROOT
ATOM      1  C   LIG    1       -2.383  -4.851  -0.014  0.00  0.00    +0.290 C 
ATOM      2  C   LIG    1       -1.582  -3.547  -0.053  0.00  0.00    +0.180 C 
ATOM      3  N   LIG    1       -2.511  -2.409  -0.111  0.00  0.00    -0.510 NA
ATOM      4  C   LIG    1       -3.378  -2.503  -1.295  0.00  0.00    +0.150 C 
ATOM      5  C   LIG    1       -4.161  -3.818  -1.243  0.00  0.00    +0.250 C 
ATOM      6  O   LIG    1       -3.242  -4.911  -1.156  0.00  0.00    -0.370 OA
ENDROOT
BRANCH   1  10
ATOM      7  C   LIG    1        0.295  -8.785   1.544  0.00  0.00    +0.200 C 
ATOM      8  C   LIG    1       -0.286  -7.720   0.650  0.00  0.00    +0.290 A 
ATOM      9  N   LIG    1       -1.138  -6.795   1.011  0.00  0.00    -0.530 NA
ATOM     10  C   LIG    1       -1.437  -6.024  -0.034  0.00  0.00    +0.230 A 
ATOM     11  N   LIG    1       -0.782  -6.454  -1.080  0.00  0.00    -0.290 NA
ATOM     12  N   LIG    1       -0.020  -7.555  -0.658  0.00  0.00    -0.480 N 
ATOM     13  H   LIG    1        0.576  -8.093  -1.202  0.00  0.00    +0.440 HD
ENDBRANCH   1  10
BRANCH   3  14
ATOM     14  C   LIG    1       -1.783  -1.133  -0.093  0.00  0.00    +0.140 C 
ATOM     15  C   LIG    1       -0.872  -1.083   1.135  0.00  0.00    +0.080 C 
BRANCH  14  16
ATOM     16  C   LIG    1       -2.767   0.007  -0.035  0.00  0.00    +0.530 C 
ATOM     17  N   LIG    1       -2.456   1.195  -0.590  0.00  0.00    -0.560 N 
ATOM     18  C   LIG    1       -1.159   1.531  -1.183  0.00  0.00    +0.270 C 
ATOM     19  C   LIG    1       -1.302   2.982  -1.671  0.00  0.00    +0.090 C 
ATOM     20  C   LIG    1       -2.717   3.369  -1.304  0.00  0.00    -0.140 A 
ATOM     21  C   LIG    1       -3.412   4.548  -1.492  0.00  0.00    +0.050 A 
ATOM     22  C   LIG    1       -4.721   4.659  -1.061  0.00  0.00    -0.010 A 
ATOM     23  C   LIG    1       -5.334   3.587  -0.441  0.00  0.00    +0.040 A 
ATOM     24  C   LIG    1       -4.645   2.408  -0.251  0.00  0.00    +0.010 A 
ATOM     25  C   LIG    1       -3.321   2.289  -0.678  0.00  0.00    +0.140 A 
ATOM     26  O   LIG    1       -3.839  -0.145   0.511  0.00  0.00    -0.490 OA
ENDBRANCH  14  16
ENDBRANCH   3  14
TORSDOF 3
