REMARK  Name = ZINCrH00000No4R0.0
REMARK                            x       y       z     vdW  Elec       q    Type
REMARK                         _______ _______ _______ _____ _____    ______ ____
ROOT
ATOM      1  C   LIG    1        2.426   4.117   0.099  0.00  0.00    +0.190 C 
ATOM      2  C   LIG    1        1.302   3.667  -0.561  0.00  0.00    -0.160 C 
ENDROOT
BRANCH   2   3
ATOM      3  C   LIG    1        0.033   4.399  -0.434  0.00  0.00    +0.240 A 
ATOM      4  C   LIG    1       -1.124   3.893  -0.990  0.00  0.00    -0.070 A 
ATOM      5  C   LIG    1       -2.321   4.620  -0.849  0.00  0.00    +0.540 A 
ATOM      6  N   LIG    1       -2.314   5.789  -0.178  0.00  0.00    -0.610 N 
ATOM      7  H   LIG    1       -3.139   6.290  -0.081  0.00  0.00    +0.450 HD
ATOM      8  C   LIG    1       -1.178   6.268   0.358  0.00  0.00    +0.530 A 
ATOM      9  S   LIG    1       -1.210   7.757   1.203  0.00  0.00    -0.530 S 
ATOM     10  O   LIG    1       -3.357   4.195  -1.330  0.00  0.00    -0.490 OA
ATOM     11  N   LIG    1       -0.017   5.597   0.247  0.00  0.00    -0.580 N 
ATOM     12  H   LIG    1        0.790   5.960   0.645  0.00  0.00    +0.450 HD
ENDBRANCH   2   3
BRANCH   1  16
ATOM     13  C   LIG    1        5.980   1.830   0.020  0.00  0.00    +0.170 A 
ATOM     14  C   LIG    1        6.051   3.219   0.050  0.00  0.00    -0.020 A 
ATOM     15  C   LIG    1        4.906   3.964   0.075  0.00  0.00    +0.110 A 
ATOM     16  C   LIG    1        3.657   3.325   0.071  0.00  0.00    -0.150 A 
ATOM     17  C   LIG    1        3.593   1.924   0.046  0.00  0.00    +0.080 A 
ATOM     18  C   LIG    1        4.745   1.190   0.016  0.00  0.00    -0.070 A 
BRANCH  13  19
ATOM     19  O   LIG    1        7.121   1.096  -0.004  0.00  0.00    -0.310 OA
BRANCH  19  20
ATOM     20  C   LIG    1        6.977  -0.326  -0.034  0.00  0.00    +0.200 C 
BRANCH  20  21
ATOM     21  C   LIG    1        8.361  -0.978  -0.059  0.00  0.00    +0.040 C 
BRANCH  21  22
ATOM     22  C   LIG    1        8.207  -2.500  -0.091  0.00  0.00    +0.020 C 
BRANCH  22  23
ATOM     23  C   LIG    1        9.591  -3.152  -0.116  0.00  0.00    +0.000 C 
BRANCH  23  25
ATOM     24  C   LIG    1       10.820  -5.326  -0.172  0.00  0.00    +0.000 C 
ATOM     25  C   LIG    1        9.437  -4.674  -0.148  0.00  0.00    -0.010 C 
ENDBRANCH  23  25
ENDBRANCH  22  23
ENDBRANCH  21  22
ENDBRANCH  20  21
ENDBRANCH  19  20
ENDBRANCH  13  19
ENDBRANCH   1  16
BRANCH   2  26
ATOM     26  C   LIG    1        1.372   2.457  -1.391  0.00  0.00    +0.530 C 
ATOM     27  O   LIG    1        0.739   1.468  -1.079  0.00  0.00    -0.490 OA
BRANCH  26  28
ATOM     28  O   LIG    1        2.140   2.443  -2.500  0.00  0.00    -0.340 OA
ATOM     29  C   LIG    1        2.161   1.213  -3.272  0.00  0.00    +0.280 C 
ENDBRANCH  26  28
ENDBRANCH   2  26
TORSDOF 10
