REMARK  Name = ZINCrH000004kLMZ.0
REMARK                            x       y       z     vdW  Elec       q    Type
REMARK                         _______ _______ _______ _____ _____    ______ ____
ROOT
ATOM      1  C   LIG    1       -3.623  -0.671  -1.594  0.00  0.00    +0.160 C 
ENDROOT
BRANCH   1   3
ATOM      2  C   LIG    1       -3.346  -3.183  -1.112  0.00  0.00    -0.190 A 
ATOM      3  C   LIG    1       -3.307  -2.096  -1.969  0.00  0.00    +0.140 A 
ATOM      4  N   LIG    1       -2.947  -2.523  -3.188  0.00  0.00    -0.500 N 
ATOM      5  H   LIG    1       -2.848  -1.961  -3.973  0.00  0.00    +0.430 HD
ATOM      6  C   LIG    1       -2.737  -3.886  -3.150  0.00  0.00    -0.090 A 
ATOM      7  C   LIG    1       -2.983  -4.320  -1.865  0.00  0.00    -0.010 A 
ATOM      8  C   LIG    1       -2.884  -5.737  -1.362  0.00  0.00    +0.140 C 
BRANCH   6   9
ATOM      9  C   LIG    1       -2.343  -4.697  -4.241  0.00  0.00    +0.420 C 
ATOM     10  O   LIG    1       -2.193  -5.892  -4.086  0.00  0.00    -0.450 OA
ATOM     11  C   LIG    1       -2.109  -4.078  -5.595  0.00  0.00    +0.060 C 
ENDBRANCH   6   9
BRANCH   2  12
ATOM     12  C   LIG    1       -3.699  -3.158   0.317  0.00  0.00    +0.540 C 
ATOM     13  O   LIG    1       -4.856  -3.305   0.660  0.00  0.00    -0.500 OA
BRANCH  12  15
ATOM     14  C   LIG    1       -3.161  -2.956   2.635  0.00  0.00    +0.260 C 
ATOM     15  O   LIG    1       -2.740  -2.970   1.245  0.00  0.00    -0.340 OA
ENDBRANCH  12  15
ENDBRANCH   2  12
ENDBRANCH   1   3
BRANCH   1  16
ATOM     16  C   LIG    1       -2.392  -0.018  -1.020  0.00  0.00    +0.510 C 
ATOM     17  N   LIG    1       -2.438   1.266  -0.613  0.00  0.00    -0.670 N 
ATOM     18  H   LIG    1       -3.286   1.735  -0.583  0.00  0.00    +0.410 HD
ATOM     19  O   LIG    1       -1.360  -0.648  -0.924  0.00  0.00    -0.490 OA
BRANCH  17  20
ATOM     20  C   LIG    1       -1.262   1.922  -0.233  0.00  0.00    +0.150 A 
ATOM     21  C   LIG    1       -0.134   1.187   0.107  0.00  0.00    +0.020 A 
ATOM     22  C   LIG    1        1.027   1.838   0.476  0.00  0.00    +0.020 A 
ATOM     23  C   LIG    1        1.065   3.220   0.512  0.00  0.00    -0.020 A 
ATOM     24  C   LIG    1       -0.058   3.954   0.178  0.00  0.00    +0.030 A 
ATOM     25  C   LIG    1       -1.222   3.310  -0.191  0.00  0.00    -0.100 A 
BRANCH  25  26
ATOM     26  C   LIG    1       -2.445   4.111  -0.555  0.00  0.00    -0.030 C 
ATOM     27  C   LIG    1       -3.556   3.834   0.460  0.00  0.00    +0.040 C 
ATOM     28  C   LIG    1       -2.920   3.711  -1.953  0.00  0.00    +0.020 C 
ATOM     29  C   LIG    1       -2.101   5.602  -0.540  0.00  0.00    +0.040 C 
ENDBRANCH  25  26
ENDBRANCH  17  20
ENDBRANCH   1  16
TORSDOF 7
