REMARK  Name = ZINCqH0000036sz1.0
REMARK                            x       y       z     vdW  Elec       q    Type
REMARK                         _______ _______ _______ _____ _____    ______ ____
ROOT
ATOM      1  N   LIG    1       -3.082   4.007   0.223  0.00  0.00    -0.660 N 
ATOM      2  H   LIG    1       -3.447   3.115   0.332  0.00  0.00    +0.420 HD
ATOM      3  C   LIG    1       -1.757   4.175   0.037  0.00  0.00    +0.610 C 
ATOM      4  O   LIG    1       -1.311   5.284  -0.196  0.00  0.00    -0.480 OA
ENDROOT
BRANCH   1   7
ATOM      5  C   LIG    1       -6.064   6.124  -0.196  0.00  0.00    +0.140 A 
ATOM      6  C   LIG    1       -5.225   5.020  -0.232  0.00  0.00    +0.000 A 
ATOM      7  C   LIG    1       -3.930   5.119   0.257  0.00  0.00    +0.170 A 
ATOM      8  C   LIG    1       -3.478   6.322   0.785  0.00  0.00    +0.040 A 
ATOM      9  C   LIG    1       -4.313   7.423   0.815  0.00  0.00    +0.040 A 
ATOM     10  C   LIG    1       -5.604   7.328   0.330  0.00  0.00    +0.070 A 
ATOM     11  F   LIG    1       -6.420   8.404   0.365  0.00  0.00    -0.130 F 
BRANCH   5  12
ATOM     12  N   LIG    1       -7.369   6.028  -0.688  0.00  0.00    -1.050 N 
ATOM     13  H   LIG    1       -7.774   6.784  -1.141  0.00  0.00    +0.430 HD
BRANCH  12  15
ATOM     14  C   LIG    1       -8.312   4.386   1.299  0.00  0.00    -0.270 C 
ATOM     15  S   LIG    1       -8.225   4.623  -0.497  0.00  0.00    +2.610 S 
ATOM     16  O   LIG    1       -7.402   3.628  -1.092  0.00  0.00    -0.950 OA
ATOM     17  O   LIG    1       -9.510   4.921  -1.024  0.00  0.00    -0.940 OA
ENDBRANCH  12  15
ENDBRANCH   5  12
ENDBRANCH   1   7
BRANCH   3  18
ATOM     18  C   LIG    1       -0.856   3.026   0.117  0.00  0.00    -0.090 A 
ATOM     19  C   LIG    1        0.522   3.051  -0.051  0.00  0.00    -0.030 A 
ATOM     20  C   LIG    1        0.964   1.718   0.113  0.00  0.00    -0.050 A 
ATOM     21  C   LIG    1       -0.126   0.966   0.365  0.00  0.00    +0.230 A 
ATOM     22  O   LIG    1       -1.214   1.748   0.362  0.00  0.00    -0.160 OA
BRANCH  19  23
ATOM     23  C   LIG    1        1.361   4.237  -0.344  0.00  0.00    -0.040 A 
ATOM     24  C   LIG    1        1.019   5.095  -1.389  0.00  0.00    +0.060 A 
ATOM     25  C   LIG    1        1.801   6.201  -1.653  0.00  0.00    +0.000 A 
ATOM     26  C   LIG    1        2.928   6.453  -0.890  0.00  0.00    +0.010 A 
ATOM     27  C   LIG    1        3.275   5.602   0.144  0.00  0.00    -0.010 A 
ATOM     28  C   LIG    1        2.498   4.496   0.421  0.00  0.00    +0.020 A 
ENDBRANCH  19  23
ENDBRANCH   3  18
TORSDOF 5
