REMARK  Name = ZINCqH0000034E3S.0
REMARK                            x       y       z     vdW  Elec       q    Type
REMARK                         _______ _______ _______ _____ _____    ______ ____
ROOT
ATOM      1  C   LIG    1        2.067   6.181  -2.160  0.00  0.00    +0.290 C 
ATOM      2  N   LIG    1        0.821   6.108  -1.391  0.00  0.00    -0.610 N 
ATOM      3  C   LIG    1       -0.343   6.483  -1.958  0.00  0.00    +0.600 C 
ATOM      4  O   LIG    1       -1.389   6.326  -1.358  0.00  0.00    -0.520 OA
ENDROOT
BRANCH   3   5
ATOM      5  C   LIG    1       -0.348   7.083  -3.303  0.00  0.00    -0.270 A 
ATOM      6  C   LIG    1        0.390   8.169  -3.727  0.00  0.00    +0.290 A 
ATOM      7  N   LIG    1        0.096   8.388  -5.017  0.00  0.00    -0.460 N 
ATOM      8  H   LIG    1        0.477   9.092  -5.565  0.00  0.00    +0.450 HD
ATOM      9  N   LIG    1       -0.846   7.452  -5.451  0.00  0.00    -0.270 NA
ATOM     10  C   LIG    1       -1.143   6.647  -4.456  0.00  0.00    +0.160 A 
BRANCH  10  11
ATOM     11  C   LIG    1       -2.099   5.515  -4.491  0.00  0.00    -0.020 A 
ATOM     12  C   LIG    1       -1.841   4.359  -3.755  0.00  0.00    +0.070 A 
ATOM     13  C   LIG    1       -2.737   3.310  -3.788  0.00  0.00    +0.030 A 
ATOM     14  C   LIG    1       -3.884   3.399  -4.558  0.00  0.00    -0.020 A 
ATOM     15  C   LIG    1       -4.141   4.542  -5.295  0.00  0.00    +0.030 A 
ATOM     16 CL   LIG    1       -5.003   2.073  -4.599  0.00  0.00    -0.070 Cl
ATOM     17  C   LIG    1       -3.255   5.599  -5.265  0.00  0.00    +0.070 A 
ENDBRANCH  10  11
ENDBRANCH   3   5
BRANCH   2  18
ATOM     18  C   LIG    1        0.842   5.629  -0.007  0.00  0.00    +0.350 C 
BRANCH  18  19
ATOM     19  C   LIG    1        0.643   4.135   0.010  0.00  0.00    -0.100 A 
ATOM     20  C   LIG    1       -0.632   3.610   0.089  0.00  0.00    +0.070 A 
ATOM     21  C   LIG    1       -0.820   2.240   0.101  0.00  0.00    +0.040 A 
ATOM     22  C   LIG    1        0.272   1.390   0.041  0.00  0.00    +0.040 A 
ATOM     23  O   LIG    1        0.361   0.028   0.039  0.00  0.00    -0.310 OA
ATOM     24  C   LIG    1        1.730  -0.269   0.368  0.00  0.00    +0.430 C 
ATOM     25  O   LIG    1        2.452   0.889  -0.092  0.00  0.00    -0.310 OA
ATOM     26  C   LIG    1        1.558   1.920  -0.040  0.00  0.00    +0.030 A 
ATOM     27  C   LIG    1        1.738   3.293  -0.054  0.00  0.00    +0.040 A 
ENDBRANCH  18  19
ENDBRANCH   2  18
TORSDOF 4
