REMARK  Name = ZINCvU00000008r0.0
REMARK                            x       y       z     vdW  Elec       q    Type
REMARK                         _______ _______ _______ _____ _____    ______ ____
ROOT
ATOM      1  C   LIG    1       -0.344   5.971   1.350  0.00  0.00    +0.290 A 
ATOM      2  N   LIG    1       -0.499   7.240   1.546  0.00  0.00    -0.430 NA
ATOM      3  C   LIG    1       -0.247   7.673   2.787  0.00  0.00    +0.080 A 
ATOM      4  C   LIG    1        0.139   6.695   3.662  0.00  0.00    -0.080 A 
ATOM      5  S   LIG    1        0.163   5.194   2.845  0.00  0.00    +0.170 S 
ENDROOT
BRANCH   3   6
ATOM      6  C   LIG    1       -0.370   9.033   3.164  0.00  0.00    +0.250 C 
ATOM      7  C   LIG    1        0.182  10.024   2.372  0.00  0.00    -0.050 C 
ATOM      8  N   LIG    1        0.062  11.373   2.533  0.00  0.00    -0.480 NA
ATOM      9  C   LIG    1        0.726  11.976   1.586  0.00  0.00    +0.350 C 
ATOM     10  O   LIG    1        1.314  11.092   0.756  0.00  0.00    -0.300 OA
ATOM     11  C   LIG    1        1.028   9.843   1.183  0.00  0.00    +0.480 C 
ATOM     12  O   LIG    1        1.391   8.792   0.687  0.00  0.00    -0.390 OA
BRANCH   9  13
ATOM     13  C   LIG    1        0.820  13.443   1.441  0.00  0.00    -0.060 A 
ATOM     14  C   LIG    1        0.169  14.281   2.348  0.00  0.00    +0.090 A 
ATOM     15  C   LIG    1        0.266  15.650   2.210  0.00  0.00    +0.000 A 
ATOM     16  C   LIG    1        0.997  16.193   1.168  0.00  0.00    -0.050 A 
ATOM     17  C   LIG    1        1.640  15.368   0.262  0.00  0.00    +0.000 A 
ATOM     18  C   LIG    1        1.092  17.690   1.019  0.00  0.00    +0.100 C 
ATOM     19  C   LIG    1        1.556  13.998   0.391  0.00  0.00    +0.070 A 
ENDBRANCH   9  13
ENDBRANCH   3   6
BRANCH   1  22
ATOM     20  C   LIG    1       -1.013   5.330  -2.289  0.00  0.00    +0.120 C 
ATOM     21  C   LIG    1       -0.874   6.026  -0.960  0.00  0.00    +0.510 C 
ATOM     22  N   LIG    1       -0.551   5.318   0.141  0.00  0.00    -0.470 N 
ATOM     23  O   LIG    1       -1.053   7.223  -0.880  0.00  0.00    -0.460 OA
BRANCH  22  24
ATOM     24  C   LIG    1       -0.425   3.925   0.066  0.00  0.00    +0.090 A 
ATOM     25  C   LIG    1        0.803   3.353  -0.236  0.00  0.00    -0.060 A 
ATOM     26  C   LIG    1        0.924   1.979  -0.309  0.00  0.00    +0.010 A 
ATOM     27  C   LIG    1       -0.177   1.174  -0.082  0.00  0.00    +0.040 A 
ATOM     28  C   LIG    1       -1.403   1.741   0.214  0.00  0.00    +0.010 A 
ATOM     29  C   LIG    1        2.003   4.230  -0.483  0.00  0.00    +0.110 C 
ATOM     30  C   LIG    1       -1.529   3.114   0.294  0.00  0.00    -0.060 A 
ATOM     31  C   LIG    1       -2.864   3.731   0.622  0.00  0.00    +0.100 C 
ENDBRANCH  22  24
ENDBRANCH   1  22
TORSDOF 4
