REMARK  Name = ZINCpe000000Ww3U.0
REMARK                            x       y       z     vdW  Elec       q    Type
REMARK                         _______ _______ _______ _____ _____    ______ ____
ROOT
ATOM      1  C   LIG    1       -2.509   1.378   0.021  0.00  0.00    +0.590 C 
ATOM      2  N   LIG    1       -3.527   2.254   0.131  0.00  0.00    -0.610 N 
ATOM      3  C   LIG    1       -3.273   3.701   0.138  0.00  0.00    +0.250 C 
ATOM      4  C   LIG    1       -4.136   4.359  -0.944  0.00  0.00    +0.020 C 
ATOM      5  C   LIG    1       -5.602   3.977  -0.723  0.00  0.00    +0.030 C 
ATOM      6  C   LIG    1       -5.758   2.459  -0.837  0.00  0.00    -0.020 C 
ATOM      7  C   LIG    1       -4.913   1.780   0.240  0.00  0.00    +0.290 C 
ATOM      8  O   LIG    1       -2.739   0.191  -0.108  0.00  0.00    -0.520 OA
ENDROOT
BRANCH   1  14
ATOM      9  C   LIG    1        2.929   3.940   0.526  0.00  0.00    +0.160 A 
ATOM     10  C   LIG    1        3.349   2.814  -0.180  0.00  0.00    -0.090 A 
ATOM     11  C   LIG    1        2.453   1.859  -0.558  0.00  0.00    +0.110 A 
ATOM     12  C   LIG    1        1.097   2.008  -0.238  0.00  0.00    -0.150 A 
ATOM     13  C   LIG    1       -0.051   1.217  -0.484  0.00  0.00    +0.070 A 
ATOM     14  C   LIG    1       -1.120   1.858   0.056  0.00  0.00    +0.000 A 
ATOM     15  N   LIG    1       -0.693   3.033   0.648  0.00  0.00    -0.580 N 
ATOM     16  H   LIG    1       -1.259   3.674   1.106  0.00  0.00    +0.420 HD
ATOM     17  C   LIG    1        0.667   3.146   0.475  0.00  0.00    +0.150 A 
ATOM     18  C   LIG    1        1.597   4.108   0.853  0.00  0.00    -0.050 A 
BRANCH   9  20
ATOM     19  C   LIG    1        5.198   4.649   0.528  0.00  0.00    +0.250 C 
ATOM     20  O   LIG    1        3.837   4.881   0.896  0.00  0.00    -0.320 OA
ENDBRANCH   9  20
ENDBRANCH   1  14
BRANCH   6  21
ATOM     21  C   LIG    1       -7.229   2.081  -0.650  0.00  0.00    +0.280 C 
BRANCH  21  22
ATOM     22  N   LIG    1       -7.397   0.644  -0.877  0.00  0.00    -1.130 NA
ATOM     23  H   LIG    1       -6.694   0.136  -1.313  0.00  0.00    +0.420 HD
BRANCH  22  24
ATOM     24  S   LIG    1       -8.785  -0.115  -0.389  0.00  0.00    +2.800 S 
ATOM     25  O   LIG    1       -9.015   0.292   0.953  0.00  0.00    -0.980 OA
ATOM     26  O   LIG    1       -8.657  -1.476  -0.778  0.00  0.00    -0.980 OA
BRANCH  24  27
ATOM     27  N   LIG    1      -10.028   0.512  -1.287  0.00  0.00    -1.260 NA
ATOM     28  H   LIG    1       -9.982   1.427  -1.605  0.00  0.00    +0.410 HD
ATOM     29  H   LIG    1      -10.801  -0.035  -1.494  0.00  0.00    +0.420 HD
ENDBRANCH  24  27
ENDBRANCH  22  24
ENDBRANCH  21  22
ENDBRANCH   6  21
TORSDOF 6
