REMARK  Name = ZINCrH000004qqWu.0
REMARK                            x       y       z     vdW  Elec       q    Type
REMARK                         _______ _______ _______ _____ _____    ______ ____
ROOT
ATOM      1  C   LIG    1        0.914   1.356   0.293  0.00  0.00    +0.290 C 
ATOM      2  C   LIG    1        2.246   1.997   0.685  0.00  0.00    +0.040 C 
ENDROOT
BRANCH   1   3
ATOM      3  C   LIG    1        0.367   2.042  -0.932  0.00  0.00    -0.110 A 
ATOM      4  C   LIG    1       -0.295   3.250  -0.809  0.00  0.00    +0.040 A 
ATOM      5  C   LIG    1       -0.793   3.884  -1.930  0.00  0.00    -0.010 A 
ATOM      6  C   LIG    1       -0.637   3.302  -3.182  0.00  0.00    +0.150 A 
ATOM      7  C   LIG    1        0.025   2.087  -3.302  0.00  0.00    +0.020 A 
ATOM      8  C   LIG    1        0.524   1.461  -2.177  0.00  0.00    +0.050 A 
BRANCH   6   9
ATOM      9  N   LIG    1       -1.145   3.939  -4.319  0.00  0.00    -0.670 N 
ATOM     10  H   LIG    1       -1.157   4.908  -4.367  0.00  0.00    +0.410 HD
ATOM     11  C   LIG    1       -1.617   3.207  -5.347  0.00  0.00    +0.540 C 
ATOM     12  O   LIG    1       -1.688   2.000  -5.250  0.00  0.00    -0.520 OA
BRANCH  11  13
ATOM     13  C   LIG    1       -2.055   3.888  -6.619  0.00  0.00    -0.070 C 
ATOM     14  C   LIG    1       -3.549   3.877  -6.947  0.00  0.00    +0.060 C 
ATOM     15  C   LIG    1       -2.583   3.002  -7.748  0.00  0.00    +0.080 C 
ENDBRANCH  11  13
ENDBRANCH   6   9
ENDBRANCH   1   3
BRANCH   1  17
ATOM     16  C   LIG    1       -0.048   0.593   2.398  0.00  0.00    +0.610 C 
ATOM     17  N   LIG    1       -0.039   1.495   1.397  0.00  0.00    -0.710 N 
ATOM     18  H   LIG    1       -0.664   2.237   1.407  0.00  0.00    +0.410 HD
ATOM     19  O   LIG    1        0.736  -0.337   2.385  0.00  0.00    -0.530 OA
BRANCH  16  23
ATOM     20  C   LIG    1       -2.665  -0.156   6.673  0.00  0.00    +0.160 C 
ATOM     21  C   LIG    1       -2.138   0.395   5.373  0.00  0.00    +0.010 A 
ATOM     22  C   LIG    1       -1.141  -0.131   4.623  0.00  0.00    -0.020 A 
ATOM     23  C   LIG    1       -1.009   0.734   3.511  0.00  0.00    -0.020 A 
ATOM     24  N   LIG    1       -1.909   1.685   3.654  0.00  0.00    -0.260 NA
ATOM     25  N   LIG    1       -2.577   1.502   4.736  0.00  0.00    -0.270 N 
BRANCH  25  26
ATOM     26  C   LIG    1       -3.658   2.369   5.211  0.00  0.00    +0.170 C 
ATOM     27  C   LIG    1       -3.222   3.069   6.499  0.00  0.00    +0.050 C 
ATOM     28  C   LIG    1       -4.905   1.525   5.486  0.00  0.00    +0.060 C 
ATOM     29  C   LIG    1       -3.978   3.417   4.143  0.00  0.00    +0.070 C 
ENDBRANCH  25  26
ENDBRANCH  16  23
ENDBRANCH   1  17
TORSDOF 6
