REMARK  Name = ZINCrD00000cHV7A.0
REMARK                            x       y       z     vdW  Elec       q    Type
REMARK                         _______ _______ _______ _____ _____    ______ ____
ROOT
ATOM      1  C   LIG    1        2.535  -1.435  -3.178  0.00  0.00    +0.080 C 
ATOM      2  C   LIG    1        1.720  -1.607  -1.880  0.00  0.00    +0.120 C 
ATOM      3  C   LIG    1        2.034  -2.992  -1.308  0.00  0.00    +0.260 C 
ATOM      4  N   LIG    1        1.601  -3.037   0.097  0.00  0.00    -0.620 N 
ATOM      5  C   LIG    1        2.159  -2.012   0.993  0.00  0.00    +0.310 C 
ATOM      6  C   LIG    1        1.878  -0.638   0.396  0.00  0.00    +0.090 C 
ATOM      7  C   LIG    1        2.809   0.398   1.094  0.00  0.00    +0.050 C 
ATOM      8  C   LIG    1        1.965   1.688   0.931  0.00  0.00    +0.210 C 
ATOM      9  O   LIG    1        0.599   1.268   1.083  0.00  0.00    -0.380 OA
ATOM     10  C   LIG    1        0.489  -0.141   0.832  0.00  0.00    +0.190 C 
ATOM     11  C   LIG    1        0.744  -3.974   0.544  0.00  0.00    +0.720 C 
ATOM     12  N   LIG    1        0.174  -4.834  -0.323  0.00  0.00    -0.670 N 
ATOM     13  H   LIG    1        0.439  -4.829  -1.256  0.00  0.00    +0.410 HD
ATOM     14  O   LIG    1        0.484  -4.044   1.730  0.00  0.00    -0.560 OA
ATOM     15  C   LIG    1        0.234  -1.538  -2.253  0.00  0.00    +0.020 C 
ATOM     16  O   LIG    1        2.065  -0.567  -0.991  0.00  0.00    -0.360 OA
ENDROOT
BRANCH  12  17
ATOM     17  C   LIG    1       -0.803  -5.736   0.124  0.00  0.00    +0.150 A 
ATOM     18  C   LIG    1       -1.467  -5.503   1.320  0.00  0.00    +0.070 A 
ATOM     19  C   LIG    1       -2.434  -6.390   1.758  0.00  0.00    +0.110 A 
ATOM     20  C   LIG    1       -2.732  -7.519   1.006  0.00  0.00    +0.080 A 
ATOM     21  C   LIG    1       -2.064  -7.756  -0.186  0.00  0.00    -0.020 A 
ATOM     22  F   LIG    1       -3.085  -6.161   2.919  0.00  0.00    -0.120 F 
ATOM     23  C   LIG    1       -1.101  -6.867  -0.627  0.00  0.00    +0.090 A 
ATOM     24  F   LIG    1       -0.451  -7.097  -1.789  0.00  0.00    -0.130 F 
BRANCH  20  25
ATOM     25  O   LIG    1       -3.679  -8.394   1.440  0.00  0.00    -0.310 OA
BRANCH  25  26
ATOM     26  C   LIG    1       -3.934  -9.535   0.617  0.00  0.00    +0.600 C 
ATOM     27  F   LIG    1       -2.761 -10.286   0.484  0.00  0.00    -0.200 F 
ATOM     28  F   LIG    1       -4.363  -9.112  -0.645  0.00  0.00    -0.200 F 
ENDBRANCH  25  26
ENDBRANCH  20  25
ENDBRANCH  12  17
TORSDOF 3
