REMARK  Name = ZINCrH000004ml9Z.0
REMARK                            x       y       z     vdW  Elec       q    Type
REMARK                         _______ _______ _______ _____ _____    ______ ____
ROOT
ATOM      1  C   LIG    1       -5.010   3.184   0.703  0.00  0.00    +0.110 A 
ATOM      2  C   LIG    1       -4.073   2.438   1.401  0.00  0.00    -0.030 A 
ATOM      3  C   LIG    1       -3.127   1.704   0.706  0.00  0.00    -0.060 A 
ATOM      4  C   LIG    1       -3.111   1.712  -0.664  0.00  0.00    -0.090 A 
ATOM      5  C   LIG    1       -2.071   0.907  -1.417  0.00  0.00    +0.290 C 
ATOM      6  C   LIG    1       -0.708   1.576  -1.225  0.00  0.00    +0.040 C 
ATOM      7  C   LIG    1       -0.047   1.102   0.054  0.00  0.00    +0.010 C 
ATOM      8  C   LIG    1       -0.741   1.561   1.322  0.00  0.00    +0.020 C 
ATOM      9  C   LIG    1       -4.042   2.452  -1.372  0.00  0.00    -0.010 A 
ATOM     10  C   LIG    1       -2.106   0.889   1.474  0.00  0.00    +0.060 C 
ATOM     11  C   LIG    1       -4.995   3.191  -0.688  0.00  0.00    +0.100 A 
ENDROOT
BRANCH   5  12
ATOM     12  N   LIG    1       -2.027  -0.460  -0.893  0.00  0.00    -0.710 N 
ATOM     13  H   LIG    1       -1.329  -0.719  -0.271  0.00  0.00    +0.410 HD
ATOM     14  C   LIG    1       -2.956  -1.359  -1.274  0.00  0.00    +0.610 C 
ATOM     15  O   LIG    1       -3.832  -1.034  -2.053  0.00  0.00    -0.500 OA
BRANCH  14  16
ATOM     16  C   LIG    1       -2.912  -2.735  -0.746  0.00  0.00    -0.090 A 
ATOM     17  C   LIG    1       -3.764  -3.747  -1.029  0.00  0.00    -0.110 A 
ATOM     18  C   LIG    1       -4.966  -3.808  -1.926  0.00  0.00    +0.130 C 
ATOM     19  C   LIG    1       -5.296  -5.287  -2.176  0.00  0.00    +0.030 C 
ATOM     20  C   LIG    1       -5.353  -6.039  -0.845  0.00  0.00    +0.030 C 
ATOM     21  C   LIG    1       -3.940  -6.195  -0.268  0.00  0.00    +0.140 C 
ATOM     22  C   LIG    1       -3.282  -4.839  -0.268  0.00  0.00    +0.020 A 
ATOM     23  N   LIG    1       -2.240  -4.416   0.365  0.00  0.00    -0.330 NA
ATOM     24  O   LIG    1       -2.006  -3.250   0.116  0.00  0.00    +0.100 OA
ENDBRANCH  14  16
ENDBRANCH   5  12
BRANCH   1  26
ATOM     25  C   LIG    1       -5.899   3.853   2.805  0.00  0.00    +0.230 C 
ATOM     26  O   LIG    1       -5.943   3.907   1.378  0.00  0.00    -0.310 OA
ENDBRANCH   1  26
BRANCH  11  27
ATOM     27  O   LIG    1       -5.913   3.920  -1.376  0.00  0.00    -0.310 OA
ATOM     28  C   LIG    1       -5.838   3.880  -2.803  0.00  0.00    +0.240 C 
ENDBRANCH  11  27
TORSDOF 4
