REMARK  Name = ZINCrD00000lgQwW.0
REMARK                            x       y       z     vdW  Elec       q    Type
REMARK                         _______ _______ _______ _____ _____    ______ ____
ROOT
ATOM      1  C   LIG    1       -0.983   1.716  -5.787  0.00  0.00    +0.240 C 
ATOM      2  C   LIG    1        0.347   2.439  -5.521  0.00  0.00    +0.030 C 
ATOM      3  C   LIG    1       -0.182   2.727  -4.107  0.00  0.00    +0.230 C 
ATOM      4  C   LIG    1       -1.070   1.482  -4.268  0.00  0.00    +0.020 C 
ENDROOT
BRANCH   1   6
ATOM      5  C   LIG    1       -2.485   3.744  -5.519  0.00  0.00    +0.300 C 
ATOM      6  N   LIG    1       -2.035   2.593  -6.307  0.00  0.00    -0.590 N 
ATOM      7  C   LIG    1       -2.588   2.343  -7.510  0.00  0.00    +0.570 C 
ATOM      8  O   LIG    1       -2.160   1.437  -8.199  0.00  0.00    -0.510 OA
BRANCH   7   9
ATOM      9  C   LIG    1       -3.716   3.170  -7.993  0.00  0.00    -0.120 A 
ATOM     10  C   LIG    1       -3.653   4.567  -7.950  0.00  0.00    +0.030 A 
ATOM     11  C   LIG    1       -4.729   5.300  -8.411  0.00  0.00    +0.260 A 
ATOM     12  N   LIG    1       -5.804   4.703  -8.886  0.00  0.00    -0.440 NA
ATOM     13  C   LIG    1       -5.908   3.391  -8.945  0.00  0.00    +0.260 A 
ATOM     14  C   LIG    1       -4.875   2.577  -8.510  0.00  0.00    +0.100 A 
ATOM     15  F   LIG    1       -4.985   1.232  -8.579  0.00  0.00    -0.110 F 
ENDBRANCH   7   9
ENDBRANCH   1   6
BRANCH   3  16
ATOM     16  N   LIG    1        0.834   2.592  -3.061  0.00  0.00    -0.720 N 
ATOM     17  H   LIG    1        1.614   2.035  -3.211  0.00  0.00    +0.400 HD
ATOM     18  C   LIG    1        0.685   3.241  -1.889  0.00  0.00    +0.520 C 
ATOM     19  O   LIG    1       -0.290   3.937  -1.700  0.00  0.00    -0.540 OA
BRANCH  18  20
ATOM     20  C   LIG    1        1.731   3.102  -0.812  0.00  0.00    +0.060 C 
BRANCH  20  21
ATOM     21  C   LIG    1        1.323   3.933   0.406  0.00  0.00    +0.100 C 
BRANCH  21  22
ATOM     22  C   LIG    1        2.369   3.794   1.482  0.00  0.00    -0.080 A 
ATOM     23  C   LIG    1        2.259   2.791   2.426  0.00  0.00    +0.030 A 
ATOM     24  C   LIG    1        3.220   2.659   3.411  0.00  0.00    +0.020 A 
ATOM     25  C   LIG    1        4.286   3.538   3.458  0.00  0.00    +0.040 A 
ATOM     26  C   LIG    1        4.394   4.545   2.516  0.00  0.00    -0.090 A 
ATOM     27 BR   LIG    1        5.852   5.747   2.579  0.00  0.00    -0.050 Br
ATOM     28  C   LIG    1        3.435   4.673   1.528  0.00  0.00    +0.040 A 
ENDBRANCH  21  22
ENDBRANCH  20  21
ENDBRANCH  18  20
ENDBRANCH   3  16
TORSDOF 6
