REMARK  Name = ZINCvU00000004Id.0
REMARK                            x       y       z     vdW  Elec       q    Type
REMARK                         _______ _______ _______ _____ _____    ______ ____
ROOT
ATOM      1  O   LIG    1        0.193  -7.119   0.288  0.00  0.00    -0.510 OA
ATOM      2  C   LIG    1       -0.906  -6.625   0.144  0.00  0.00    +0.510 C 
ATOM      3  N   LIG    1       -1.984  -7.418  -0.019  0.00  0.00    -0.680 N 
ATOM      4  H   LIG    1       -2.871  -7.028  -0.058  0.00  0.00    +0.420 HD
ENDROOT
BRANCH   3   5
ATOM      5  C   LIG    1       -1.823  -8.800  -0.134  0.00  0.00    +0.160 A 
ATOM      6  C   LIG    1       -0.695  -9.318  -0.761  0.00  0.00    +0.020 A 
ATOM      7  C   LIG    1       -0.531 -10.682  -0.871  0.00  0.00    +0.040 A 
ATOM      8  C   LIG    1       -1.505 -11.544  -0.363  0.00  0.00    -0.050 A 
ATOM      9  C   LIG    1       -2.640 -11.020   0.261  0.00  0.00    +0.090 A 
ATOM     10  C   LIG    1       -2.795  -9.656   0.373  0.00  0.00    -0.010 A 
BRANCH   8  11
ATOM     11  C   LIG    1       -1.336 -13.007  -0.485  0.00  0.00    +0.330 A 
ATOM     12  N   LIG    1       -2.182 -13.904  -0.040  0.00  0.00    -0.480 NA
ATOM     13  C   LIG    1       -1.720 -15.146  -0.323  0.00  0.00    +0.050 A 
ATOM     14  C   LIG    1       -2.214 -16.432  -0.083  0.00  0.00    +0.070 A 
ATOM     15  C   LIG    1       -1.493 -17.529  -0.495  0.00  0.00    +0.000 A 
ATOM     16  C   LIG    1       -0.278 -17.370  -1.147  0.00  0.00    +0.030 A 
ATOM     17  C   LIG    1        0.224 -16.109  -1.393  0.00  0.00    +0.010 A 
ATOM     18  C   LIG    1       -0.488 -14.991  -0.984  0.00  0.00    +0.050 A 
ATOM     19  N   LIG    1       -0.269 -13.629  -1.075  0.00  0.00    -0.600 N 
ATOM     20  H   LIG    1        0.499 -13.196  -1.480  0.00  0.00    +0.420 HD
ENDBRANCH   8  11
ENDBRANCH   3   5
BRANCH   2  21
ATOM     21  C   LIG    1       -1.066  -5.127   0.149  0.00  0.00    +0.080 C 
BRANCH  21  22
ATOM     22  C   LIG    1        0.301  -4.469   0.350  0.00  0.00    +0.070 C 
BRANCH  22  23
ATOM     23  C   LIG    1        0.138  -2.947   0.355  0.00  0.00    +0.100 C 
BRANCH  23  24
ATOM     24  S   LIG    1        1.755  -2.169   0.593  0.00  0.00    -0.000 S 
BRANCH  24  25
ATOM     25  C   LIG    1        1.285  -0.471   0.558  0.00  0.00    +0.260 A 
ATOM     26  N   LIG    1        0.061  -0.032   0.396  0.00  0.00    -0.490 NA
ATOM     27  C   LIG    1        0.057   1.327   0.419  0.00  0.00    +0.060 A 
ATOM     28  C   LIG    1       -0.952   2.285   0.301  0.00  0.00    +0.060 A 
ATOM     29  C   LIG    1       -0.635   3.624   0.365  0.00  0.00    +0.010 A 
ATOM     30  C   LIG    1        0.678   4.028   0.554  0.00  0.00    +0.030 A 
ATOM     31  C   LIG    1        1.686   3.093   0.677  0.00  0.00    +0.010 A 
ATOM     32  C   LIG    1        1.385   1.741   0.611  0.00  0.00    +0.050 A 
ATOM     33  N   LIG    1        2.142   0.584   0.696  0.00  0.00    -0.580 N 
ATOM     34  H   LIG    1        3.102   0.532   0.828  0.00  0.00    +0.430 HD
ENDBRANCH  24  25
ENDBRANCH  23  24
ENDBRANCH  22  23
ENDBRANCH  21  22
ENDBRANCH   2  21
TORSDOF 7
