REMARK  Name = ZINCBI0000000jyI.0
REMARK                            x       y       z     vdW  Elec       q    Type
REMARK                         _______ _______ _______ _____ _____    ______ ____
ROOT
ATOM      1  C   LIG    1       -6.324   2.421  -3.966  0.00  0.00    +0.210 A 
ATOM      2  C   LIG    1       -6.062   1.226  -3.313  0.00  0.00    -0.080 A 
ATOM      3  C   LIG    1       -5.581   1.236  -2.018  0.00  0.00    +0.120 A 
ATOM      4  C   LIG    1       -5.357   2.436  -1.363  0.00  0.00    -0.170 A 
ATOM      5  C   LIG    1       -5.618   3.632  -1.995  0.00  0.00    +0.110 A 
ATOM      6  C   LIG    1       -6.099   3.637  -3.306  0.00  0.00    -0.190 A 
ENDROOT
BRANCH   6   7
ATOM      7  C   LIG    1       -6.374   4.915  -3.991  0.00  0.00    +0.560 C 
ATOM      8  N   LIG    1       -6.157   6.082  -3.353  0.00  0.00    -0.660 N 
ATOM      9  H   LIG    1       -5.896   6.082  -2.418  0.00  0.00    +0.410 HD
ATOM     10  O   LIG    1       -6.798   4.915  -5.131  0.00  0.00    -0.490 OA
BRANCH   8  11
ATOM     11  C   LIG    1       -6.306   7.294  -4.039  0.00  0.00    +0.200 A 
ATOM     12  C   LIG    1       -6.167   7.334  -5.418  0.00  0.00    +0.020 A 
ATOM     13  C   LIG    1       -6.321   8.531  -6.093  0.00  0.00    +0.050 A 
ATOM     14  C   LIG    1       -6.603   9.691  -5.397  0.00  0.00    +0.000 A 
ATOM     15  C   LIG    1       -6.739   9.661  -4.022  0.00  0.00    +0.000 A 
ATOM     16  C   LIG    1       -6.591   8.465  -3.336  0.00  0.00    +0.020 A 
BRANCH  16  17
ATOM     17  N   LIG    1       -6.729   8.432  -1.944  0.00  0.00    -0.490 N 
ATOM     18  C   LIG    1       -8.094   8.800  -1.541  0.00  0.00    +0.220 C 
ATOM     19  C   LIG    1       -8.218   8.694  -0.019  0.00  0.00    +0.280 C 
ATOM     20  N   LIG    1       -7.244   9.591   0.615  0.00  0.00    -0.390 N 
ATOM     21  C   LIG    1       -5.884   9.197   0.223  0.00  0.00    +0.280 C 
ATOM     22  C   LIG    1       -7.376   9.503   2.076  0.00  0.00    +0.310 C 
ATOM     23  H   LIG    1       -7.417  10.540   0.319  0.00  0.00    +0.420 HD
ATOM     24  C   LIG    1       -5.740   9.306  -1.297  0.00  0.00    +0.230 C 
ENDBRANCH  16  17
ENDBRANCH   8  11
ENDBRANCH   6   7
BRANCH   1  25
ATOM     25  O   LIG    1       -6.797   2.413  -5.237  0.00  0.00    -0.280 OA
BRANCH  25  27
ATOM     26  C   LIG    1       -7.535   1.328  -7.267  0.00  0.00    +0.070 C 
ATOM     27  C   LIG    1       -7.003   1.136  -5.845  0.00  0.00    +0.190 C 
ENDBRANCH  25  27
ENDBRANCH   1  25
BRANCH   4  28
ATOM     28  C   LIG    1       -4.833   2.432   0.050  0.00  0.00    +0.370 C 
BRANCH  28  29
ATOM     29  N   LIG    1       -3.368   2.453   0.027  0.00  0.00    -0.570 N 
ATOM     30  C   LIG    1       -2.592   1.354   0.007  0.00  0.00    +0.570 C 
ATOM     31  C   LIG    1       -1.176   1.778  -0.017  0.00  0.00    -0.140 A 
ATOM     32  C   LIG    1        0.035   1.107  -0.035  0.00  0.00    +0.110 A 
ATOM     33  C   LIG    1        1.220   1.826  -0.047  0.00  0.00    +0.060 A 
ATOM     34  C   LIG    1        1.201   3.208  -0.037  0.00  0.00    +0.060 A 
ATOM     35  C   LIG    1       -0.004   3.894  -0.014  0.00  0.00    +0.100 A 
ATOM     36  C   LIG    1       -1.196   3.188  -0.001  0.00  0.00    -0.150 A 
ATOM     37  O   LIG    1       -2.988   0.206   0.005  0.00  0.00    -0.450 OA
ATOM     38  C   LIG    1       -2.623   3.572   0.024  0.00  0.00    +0.580 C 
ATOM     39  O   LIG    1       -3.051   4.709   0.038  0.00  0.00    -0.470 OA
ENDBRANCH  28  29
ENDBRANCH   4  28
TORSDOF 7
