REMARK  Name = ZINCrH000004pAD2.0
REMARK                            x       y       z     vdW  Elec       q    Type
REMARK                         _______ _______ _______ _____ _____    ______ ____
ROOT
ATOM      1  N   LIG    1        6.047  -0.505  -0.246  0.00  0.00    -0.620 N 
ATOM      2  C   LIG    1        4.872   0.148  -0.148  0.00  0.00    +0.710 C 
ATOM      3  N   LIG    1        3.723  -0.547  -0.029  0.00  0.00    -0.680 N 
ATOM      4  H   LIG    1        3.746  -1.513   0.049  0.00  0.00    +0.410 HD
ATOM      5  O   LIG    1        4.848   1.363  -0.168  0.00  0.00    -0.570 OA
ATOM      6  C   LIG    1        6.075  -1.970  -0.222  0.00  0.00    +0.280 C 
ENDROOT
BRANCH   3   7
ATOM      7  C   LIG    1        2.499   0.126  -0.018  0.00  0.00    +0.160 A 
ATOM      8  C   LIG    1        2.394   1.369   0.566  0.00  0.00    +0.020 A 
ATOM      9  C   LIG    1        1.179   2.048   0.582  0.00  0.00    +0.040 A 
ATOM     10  C   LIG    1        0.063   1.504   0.024  0.00  0.00    +0.010 A 
ATOM     11  C   LIG    1        0.127   0.237  -0.582  0.00  0.00    -0.040 A 
ATOM     12  C   LIG    1       -1.009  -0.348  -1.166  0.00  0.00    +0.030 A 
ATOM     13  C   LIG    1       -0.912  -1.577  -1.744  0.00  0.00    +0.000 A 
ATOM     14  C   LIG    1        0.299  -2.265  -1.766  0.00  0.00    +0.010 A 
ATOM     15  C   LIG    1        1.420  -1.728  -1.209  0.00  0.00    +0.010 A 
ATOM     16  C   LIG    1        1.358  -0.463  -0.604  0.00  0.00    -0.060 A 
ENDBRANCH   3   7
BRANCH   1  18
ATOM     17  C   LIG    1        7.929  -0.044  -1.737  0.00  0.00    +0.050 C 
ATOM     18  C   LIG    1        7.295   0.249  -0.376  0.00  0.00    +0.310 C 
BRANCH  18  19
ATOM     19  C   LIG    1        8.246  -0.160   0.720  0.00  0.00    -0.040 A 
ATOM     20  C   LIG    1        7.753  -0.572   1.944  0.00  0.00    +0.000 A 
ATOM     21  C   LIG    1        8.625  -0.951   2.947  0.00  0.00    +0.130 A 
ATOM     22  C   LIG    1        9.990  -0.910   2.730  0.00  0.00    -0.680 A 
ATOM     23  C   LIG    1       10.482  -0.494   1.507  0.00  0.00    +0.130 A 
ATOM     24  C   LIG    1        9.610  -0.118   0.502  0.00  0.00    +0.010 A 
BRANCH  22  25
ATOM     25  S   LIG    1       11.101  -1.389   4.011  0.00  0.00    +2.700 S 
ATOM     26  O   LIG    1       12.310  -1.773   3.370  0.00  0.00    -0.960 OA
ATOM     27  O   LIG    1       10.371  -2.250   4.874  0.00  0.00    -0.960 OA
BRANCH  25  28
ATOM     28  N   LIG    1       11.449  -0.030   4.891  0.00  0.00    -1.250 NA
ATOM     29  H   LIG    1       11.444   0.840   4.462  0.00  0.00    +0.420 HD
ATOM     30  H   LIG    1       11.658  -0.104   5.835  0.00  0.00    +0.420 HD
ENDBRANCH  25  28
ENDBRANCH  22  25
ENDBRANCH  18  19
ENDBRANCH   1  18
TORSDOF 5
