REMARK  Name = ZINCrg000000t3ik.1
REMARK                            x       y       z     vdW  Elec       q    Type
REMARK                         _______ _______ _______ _____ _____    ______ ____
ROOT
ATOM      1  C   LIG    1        6.963   6.269   1.961  0.00  0.00    -0.690 A 
ATOM      2  C   LIG    1        6.796   7.604   2.278  0.00  0.00    +0.120 A 
ATOM      3  C   LIG    1        5.609   8.238   1.972  0.00  0.00    -0.020 A 
ATOM      4  C   LIG    1        4.580   7.546   1.349  0.00  0.00    -0.010 A 
ATOM      5  C   LIG    1        3.310   8.298   1.049  0.00  0.00    +0.080 C 
ATOM      6  C   LIG    1        2.476   7.551   0.009  0.00  0.00    +0.020 C 
ATOM      7  C   LIG    1        2.320   6.097   0.469  0.00  0.00    -0.010 C 
ATOM      8  C   LIG    1        3.677   5.405   0.348  0.00  0.00    +0.230 C 
ATOM      9  C   LIG    1        4.747   6.216   1.030  0.00  0.00    -0.100 A 
ATOM     10  C   LIG    1        5.942   5.580   1.340  0.00  0.00    +0.170 A 
ENDROOT
BRANCH   1  11
ATOM     11  S   LIG    1        8.474   5.450   2.349  0.00  0.00    +2.700 S 
ATOM     12  O   LIG    1        9.467   6.463   2.442  0.00  0.00    -0.970 OA
ATOM     13  O   LIG    1        8.572   4.346   1.461  0.00  0.00    -0.960 OA
BRANCH  11  14
ATOM     14  N   LIG    1        8.311   4.815   3.870  0.00  0.00    -1.250 NA
ATOM     15  H   LIG    1        9.043   4.320   4.270  0.00  0.00    +0.420 HD
ATOM     16  H   LIG    1        7.483   4.938   4.361  0.00  0.00    +0.420 HD
ENDBRANCH  11  14
ENDBRANCH   1  11
BRANCH   8  17
ATOM     17  N   LIG    1        3.602   4.078   0.973  0.00  0.00    -0.670 NA
ATOM     18  H   LIG    1        3.029   4.102   1.804  0.00  0.00    +0.360 HD
BRANCH  17  19
ATOM     19  C   LIG    1        3.107   3.075   0.021  0.00  0.00    +0.140 C 
ATOM     20  C   LIG    1        4.281   2.445  -0.764  0.00  0.00    +0.060 C 
ATOM     21  C   LIG    1        3.821   0.979  -0.900  0.00  0.00    +0.250 C 
ATOM     22  N   LIG    1        2.903   0.748   0.222  0.00  0.00    -0.610 N 
ATOM     23  C   LIG    1        2.485   1.908   0.757  0.00  0.00    +0.520 C 
ATOM     24  O   LIG    1        1.721   2.006   1.694  0.00  0.00    -0.520 OA
BRANCH  22  25
ATOM     25  C   LIG    1        2.499  -0.576   0.701  0.00  0.00    +0.250 C 
ATOM     26  C   LIG    1        2.918  -0.741   2.165  0.00  0.00    -0.000 C 
ATOM     27  C   LIG    1        2.422  -2.097   2.678  0.00  0.00    +0.220 C 
ATOM     28  O   LIG    1        1.003  -2.175   2.523  0.00  0.00    -0.380 OA
ATOM     29  C   LIG    1        0.558  -2.073   1.169  0.00  0.00    +0.220 C 
ATOM     30  C   LIG    1        0.978  -0.717   0.596  0.00  0.00    -0.010 C 
ENDBRANCH  22  25
ENDBRANCH  17  19
ENDBRANCH   8  17
TORSDOF 5
