REMARK  Name = ZINCvU0000000Faz.0
REMARK                            x       y       z     vdW  Elec       q    Type
REMARK                         _______ _______ _______ _____ _____    ______ ____
ROOT
ATOM      1  C   LIG    1        0.180  -2.232   0.631  0.00  0.00    +0.140 A 
ATOM      2  C   LIG    1        0.069  -0.862   0.831  0.00  0.00    +0.160 A 
ATOM      3  C   LIG    1        0.106  -0.002  -0.249  0.00  0.00    -0.660 A 
ATOM      4  C   LIG    1        0.248  -0.503  -1.530  0.00  0.00    +0.140 A 
ATOM      5  C   LIG    1        0.365  -1.866  -1.734  0.00  0.00    +0.040 A 
ATOM      6  C   LIG    1        0.329  -2.732  -0.658  0.00  0.00    -0.010 A 
ATOM      7 CL   LIG    1        0.468  -4.444  -0.914  0.00  0.00    -0.040 Cl
ENDROOT
BRANCH   1  10
ATOM      8  O   LIG    1       -1.220  -1.758   2.844  0.00  0.00    -0.500 OA
ATOM      9  C   LIG    1       -0.626  -2.817   2.790  0.00  0.00    +0.580 C 
ATOM     10  N   LIG    1        0.144  -3.105   1.723  0.00  0.00    -0.650 N 
ATOM     11  H   LIG    1        0.673  -3.918   1.711  0.00  0.00    +0.430 HD
BRANCH   9  12
ATOM     12  C   LIG    1       -0.751  -3.793   3.899  0.00  0.00    +0.110 A 
ATOM     13  N   LIG    1       -0.105  -4.940   3.823  0.00  0.00    -0.440 NA
ATOM     14  C   LIG    1       -0.183  -5.845   4.799  0.00  0.00    +0.120 A 
ATOM     15  C   LIG    1        0.514  -7.065   4.713  0.00  0.00    +0.050 A 
ATOM     16  C   LIG    1        0.412  -7.973   5.722  0.00  0.00    +0.030 A 
ATOM     17  C   LIG    1       -0.373  -7.716   6.844  0.00  0.00    +0.030 A 
ATOM     18  C   LIG    1       -1.063  -6.548   6.963  0.00  0.00    +0.040 A 
ATOM     19  C   LIG    1       -0.982  -5.586   5.943  0.00  0.00    -0.080 A 
ATOM     20  C   LIG    1       -1.680  -4.367   6.031  0.00  0.00    +0.090 A 
ATOM     21  C   LIG    1       -1.557  -3.477   5.003  0.00  0.00    +0.030 A 
ENDBRANCH   9  12
ENDBRANCH   1  10
BRANCH   3  22
ATOM     22  S   LIG    1       -0.036   1.736   0.004  0.00  0.00    +2.690 S 
ATOM     23  O   LIG    1       -0.802   1.907   1.189  0.00  0.00    -0.930 OA
ATOM     24  O   LIG    1       -0.406   2.295  -1.248  0.00  0.00    -0.940 OA
BRANCH  22  25
ATOM     25  N   LIG    1        1.481   2.308   0.342  0.00  0.00    -1.060 N 
ATOM     26  H   LIG    1        1.897   2.957  -0.247  0.00  0.00    +0.430 HD
BRANCH  25  27
ATOM     27  C   LIG    1        2.163   1.854   1.474  0.00  0.00    +0.160 A 
ATOM     28  C   LIG    1        1.511   1.791   2.699  0.00  0.00    +0.030 A 
ATOM     29  C   LIG    1        2.186   1.338   3.816  0.00  0.00    +0.070 A 
ATOM     30  C   LIG    1        3.512   0.956   3.717  0.00  0.00    -0.100 A 
ATOM     31  C   LIG    1        4.165   1.023   2.499  0.00  0.00    +0.070 A 
ATOM     32 BR   LIG    1        4.435   0.343   5.249  0.00  0.00    -0.050 Br
ATOM     33  C   LIG    1        3.494   1.471   1.378  0.00  0.00    +0.020 A 
ENDBRANCH  25  27
ENDBRANCH  22  25
ENDBRANCH   3  22
TORSDOF 5
