REMARK  Name = ZINCrg00000zl1ZH.0
REMARK                            x       y       z     vdW  Elec       q    Type
REMARK                         _______ _______ _______ _____ _____    ______ ____
ROOT
ATOM      1  C   LIG    1       -0.993  -0.250  -5.055  0.00  0.00    +0.030 C 
ENDROOT
BRANCH   1   2
ATOM      2  C   LIG    1        0.094  -0.674  -4.064  0.00  0.00    +0.160 C 
ATOM      3  C   LIG    1       -0.224  -1.983  -3.322  0.00  0.00    +0.040 C 
ATOM      4  C   LIG    1        1.261  -2.346  -3.491  0.00  0.00    +0.010 C 
ATOM      5  C   LIG    1        1.267  -1.421  -4.720  0.00  0.00    +0.030 C 
BRANCH   2   6
ATOM      6  N   LIG    1        0.513   0.416  -3.180  0.00  0.00    -0.710 N 
ATOM      7  H   LIG    1        0.331   0.366  -2.228  0.00  0.00    +0.400 HD
ATOM      8  C   LIG    1        1.153   1.488  -3.687  0.00  0.00    +0.520 C 
ATOM      9  O   LIG    1        1.463   1.510  -4.860  0.00  0.00    -0.500 OA
BRANCH   8  10
ATOM     10  C   LIG    1        1.485   2.659  -2.798  0.00  0.00    +0.130 C 
ATOM     11  C   LIG    1        0.197   3.352  -2.291  0.00  0.00    +0.080 C 
ATOM     12  C   LIG    1        0.578   4.820  -2.316  0.00  0.00    +0.090 C 
ATOM     13  N   LIG    1        1.638   4.946  -3.024  0.00  0.00    -0.290 NA
ATOM     14  C   LIG    1       -0.164   5.934  -1.624  0.00  0.00    +0.180 C 
ATOM     15  O   LIG    1        2.107   3.720  -3.551  0.00  0.00    -0.170 OA
ENDBRANCH   8  10
ENDBRANCH   2   6
ENDBRANCH   1   2
BRANCH   1  16
ATOM     16  C   LIG    1       -2.192   0.310  -4.287  0.00  0.00    +0.260 C 
BRANCH  16  18
ATOM     17  C   LIG    1       -4.331   1.366  -4.785  0.00  0.00    +0.520 C 
ATOM     18  N   LIG    1       -3.184   0.822  -5.237  0.00  0.00    -0.730 N 
ATOM     19  H   LIG    1       -3.015   0.768  -6.191  0.00  0.00    +0.400 HD
ATOM     20  O   LIG    1       -4.542   1.432  -3.593  0.00  0.00    -0.520 OA
BRANCH  17  21
ATOM     21  C   LIG    1       -5.351   1.892  -5.762  0.00  0.00    +0.180 C 
BRANCH  21  24
ATOM     22  C   LIG    1       -8.111   3.741  -4.242  0.00  0.00    -0.040 A 
ATOM     23  C   LIG    1       -7.077   3.743  -5.117  0.00  0.00    -0.030 A 
ATOM     24  C   LIG    1       -6.532   2.443  -5.006  0.00  0.00    +0.020 A 
ATOM     25  N   LIG    1       -7.257   1.815  -4.125  0.00  0.00    -0.330 NA
ATOM     26  O   LIG    1       -8.135   2.521  -3.686  0.00  0.00    +0.120 OA
BRANCH  22  27
ATOM     27  C   LIG    1       -9.049   4.884  -3.951  0.00  0.00    +0.310 C 
BRANCH  27  29
ATOM     28  C   LIG    1      -11.126   5.861  -4.641  0.00  0.00    +0.220 C 
ATOM     29  O   LIG    1      -10.171   4.816  -4.835  0.00  0.00    -0.390 OA
ENDBRANCH  27  29
ENDBRANCH  22  27
ENDBRANCH  21  24
ENDBRANCH  17  21
ENDBRANCH  16  18
ENDBRANCH   1  16
TORSDOF 9
