REMARK  Name = ZINCpk00000xIi2o.0
REMARK                            x       y       z     vdW  Elec       q    Type
REMARK                         _______ _______ _______ _____ _____    ______ ____
ROOT
ATOM      1  C   LIG    1        0.012   0.002   0.049  0.00  0.00    +0.560 C 
ATOM      2  N   LIG    1       -0.027   1.337  -0.129  0.00  0.00    -0.670 N 
ATOM      3  H   LIG    1       -0.878   1.785  -0.254  0.00  0.00    +0.410 HD
ATOM      4  O   LIG    1        1.082  -0.572   0.116  0.00  0.00    -0.510 OA
ENDROOT
BRANCH   1   8
ATOM      5  C   LIG    1       -3.603  -2.203   0.378  0.00  0.00    +0.180 A 
ATOM      6  C   LIG    1       -2.379  -2.861   0.455  0.00  0.00    +0.010 A 
ATOM      7  C   LIG    1       -1.206  -2.149   0.349  0.00  0.00    +0.110 A 
ATOM      8  C   LIG    1       -1.244  -0.764   0.164  0.00  0.00    -0.150 A 
ATOM      9  C   LIG    1       -2.475  -0.106   0.093  0.00  0.00    +0.070 A 
ATOM     10  C   LIG    1       -3.645  -0.824   0.194  0.00  0.00    -0.010 A 
BRANCH   5  12
ATOM     11  C   LIG    1       -4.859  -4.183   0.005  0.00  0.00    +0.520 C 
ATOM     12  N   LIG    1       -4.790  -2.926   0.487  0.00  0.00    -0.670 N 
ATOM     13  H   LIG    1       -5.565  -2.526   0.909  0.00  0.00    +0.420 HD
ATOM     14  O   LIG    1       -3.921  -4.651  -0.605  0.00  0.00    -0.500 OA
BRANCH  11  15
ATOM     15  C   LIG    1       -6.103  -5.006   0.223  0.00  0.00    +0.260 C 
BRANCH  15  17
ATOM     16  N   LIG    1       -5.795  -7.353  -0.873  0.00  0.00    -0.400 NA
ATOM     17  C   LIG    1       -5.929  -6.331  -0.395  0.00  0.00    +0.210 C 
ENDBRANCH  15  17
ENDBRANCH  11  15
ENDBRANCH   5  12
ENDBRANCH   1   8
BRANCH   2  18
ATOM     18  C   LIG    1        1.161   2.076  -0.140  0.00  0.00    +0.120 A 
ATOM     19  C   LIG    1        1.188   3.356   0.396  0.00  0.00    +0.060 A 
ATOM     20  C   LIG    1        2.364   4.081   0.389  0.00  0.00    +0.020 A 
ATOM     21  C   LIG    1        3.510   3.538  -0.162  0.00  0.00    +0.120 A 
ATOM     22  C   LIG    1        3.484   2.265  -0.703  0.00  0.00    -0.660 A 
ATOM     23  C   LIG    1        2.313   1.532  -0.693  0.00  0.00    +0.140 A 
BRANCH  22  24
ATOM     24  S   LIG    1        4.947   1.577  -1.404  0.00  0.00    +2.700 S 
ATOM     25  O   LIG    1        4.789   0.165  -1.357  0.00  0.00    -0.950 OA
ATOM     26  O   LIG    1        6.039   2.257  -0.802  0.00  0.00    -0.960 OA
BRANCH  24  27
ATOM     27  N   LIG    1        4.963   1.992  -3.007  0.00  0.00    -1.250 NA
ATOM     28  H   LIG    1        5.696   1.704  -3.575  0.00  0.00    +0.420 HD
ATOM     29  H   LIG    1        4.241   2.522  -3.379  0.00  0.00    +0.420 HD
ENDBRANCH  24  27
ENDBRANCH  22  24
ENDBRANCH   2  18
TORSDOF 7
