REMARK  Name = ZINCpe000000VPcS.0
REMARK                            x       y       z     vdW  Elec       q    Type
REMARK                         _______ _______ _______ _____ _____    ______ ____
ROOT
ATOM      1  N   LIG    1        2.055  -6.179   7.010  0.00  0.00    -0.590 N 
ATOM      2  C   LIG    1        0.695  -6.697   6.971  0.00  0.00    +0.270 C 
ATOM      3  C   LIG    1       -0.309  -5.568   6.702  0.00  0.00    +0.300 C 
ATOM      4  N   LIG    1        0.203  -4.763   5.580  0.00  0.00    -0.610 N 
ATOM      5  C   LIG    1        1.495  -4.087   5.769  0.00  0.00    +0.330 C 
ATOM      6  C   LIG    1       -0.486  -4.647   4.427  0.00  0.00    +0.570 C 
ATOM      7  O   LIG    1       -1.583  -5.161   4.321  0.00  0.00    -0.520 OA
ATOM      8  C   LIG    1        2.447  -5.036   6.445  0.00  0.00    +0.510 C 
ATOM      9  O   LIG    1        3.625  -4.749   6.478  0.00  0.00    -0.540 OA
ENDROOT
BRANCH   6  10
ATOM     10  C   LIG    1        0.091  -3.894   3.293  0.00  0.00    -0.120 A 
ATOM     11  C   LIG    1        0.714  -2.665   3.512  0.00  0.00    +0.030 A 
ATOM     12  C   LIG    1        1.251  -1.968   2.450  0.00  0.00    +0.050 A 
ATOM     13  C   LIG    1        1.172  -2.486   1.169  0.00  0.00    -0.090 A 
ATOM     14  C   LIG    1        0.551  -3.701   0.944  0.00  0.00    +0.030 A 
ATOM     15  C   LIG    1        0.015  -4.411   1.999  0.00  0.00    +0.060 A 
BRANCH  13  16
ATOM     16  C   LIG    1        1.760  -1.718   0.013  0.00  0.00    +0.380 C 
BRANCH  16  17
ATOM     17  N   LIG    1        3.158  -2.115  -0.176  0.00  0.00    -0.370 N 
ATOM     18  C   LIG    1        3.705  -2.579  -1.319  0.00  0.00    +0.220 A 
ATOM     19  C   LIG    1        5.013  -2.829  -1.079  0.00  0.00    -0.120 A 
ATOM     20  C   LIG    1        5.274  -2.507   0.257  0.00  0.00    +0.230 A 
ATOM     21  N   LIG    1        4.163  -2.079   0.799  0.00  0.00    -0.290 NA
ENDBRANCH  16  17
ENDBRANCH  13  16
ENDBRANCH   6  10
BRANCH   1  22
ATOM     22  C   LIG    1        3.064  -6.969   7.719  0.00  0.00    +0.310 C 
BRANCH  22  23
ATOM     23  C   LIG    1        3.112  -6.537   9.186  0.00  0.00    +0.160 C 
BRANCH  23  25
ATOM     24  C   LIG    1        1.809  -6.492  11.198  0.00  0.00    +0.200 C 
ATOM     25  O   LIG    1        1.870  -6.856   9.817  0.00  0.00    -0.390 OA
ENDBRANCH  23  25
ENDBRANCH  22  23
ENDBRANCH   1  22
TORSDOF 6
