REMARK  Name = ZINCnE000001NyVS.0
REMARK                            x       y       z     vdW  Elec       q    Type
REMARK                         _______ _______ _______ _____ _____    ______ ____
ROOT
ATOM      1  C   LIG    1        0.331  -4.792   1.393  0.00  0.00    +0.040 C 
ATOM      2  C   LIG    1        0.060  -4.278  -0.022  0.00  0.00    +0.280 C 
ENDROOT
BRANCH   2   3
ATOM      3  C   LIG    1        0.040  -2.771  -0.014  0.00  0.00    -0.080 A 
ATOM      4  C   LIG    1       -1.168  -2.098   0.002  0.00  0.00    +0.050 A 
ATOM      5  C   LIG    1       -1.191  -0.717   0.010  0.00  0.00    +0.040 A 
ATOM      6  C   LIG    1        0.002  -0.004   0.002  0.00  0.00    -0.100 A 
ATOM      7  C   LIG    1        1.214  -0.684  -0.019  0.00  0.00    +0.020 A 
ATOM      8  C   LIG    1        1.229  -2.065  -0.022  0.00  0.00    +0.040 A 
BRANCH   6   9
ATOM      9  S   LIG    1       -0.022   1.758   0.012  0.00  0.00    -0.100 S 
BRANCH   9  10
ATOM     10  C   LIG    1        1.740   2.190  -0.003  0.00  0.00    +0.430 C 
ATOM     11  F   LIG    1        2.339   1.667  -1.154  0.00  0.00    -0.180 F 
ATOM     12  F   LIG    1        2.361   1.654   1.131  0.00  0.00    -0.180 F 
ENDBRANCH   9  10
ENDBRANCH   6   9
ENDBRANCH   2   3
BRANCH   2  13
ATOM     13  N   LIG    1        1.116  -4.747  -0.923  0.00  0.00    -0.720 N 
ATOM     14  H   LIG    1        1.879  -4.179  -1.112  0.00  0.00    +0.400 HD
ATOM     15  C   LIG    1        1.027  -5.967  -1.489  0.00  0.00    +0.580 C 
ATOM     16  O   LIG    1        0.072  -6.676  -1.252  0.00  0.00    -0.540 OA
BRANCH  15  17
ATOM     17  C   LIG    1        2.113  -6.449  -2.415  0.00  0.00    -0.190 C 
ATOM     18  C   LIG    1        2.604  -5.832  -3.749  0.00  0.00    +0.050 C 
ATOM     19  C   LIG    1        3.528  -7.096  -3.611  0.00  0.00    -0.150 C 
ATOM     20  C   LIG    1        3.620  -6.658  -2.128  0.00  0.00    +0.050 C 
ATOM     21  C   LIG    1        2.222  -7.793  -3.169  0.00  0.00    +0.060 C 
BRANCH  19  22
ATOM     22  C   LIG    1        4.603  -7.598  -4.540  0.00  0.00    +0.550 C 
ATOM     23  O   LIG    1        4.824  -8.794  -4.627  0.00  0.00    -0.680 OA
ATOM     24  O   LIG    1        5.251  -6.808  -5.206  0.00  0.00    -0.690 OA
ENDBRANCH  19  22
ENDBRANCH  15  17
ENDBRANCH   2  13
TORSDOF 6
