REMARK  Name = ZINCpk00001AZj5u.0
REMARK                            x       y       z     vdW  Elec       q    Type
REMARK                         _______ _______ _______ _____ _____    ______ ____
ROOT
ATOM      1  C   LIG    1        1.996   0.937   3.877  0.00  0.00    +0.250 C 
ATOM      2  C   LIG    1        1.756   1.884   5.068  0.00  0.00    +0.210 C 
ATOM      3  N   LIG    1        3.079   2.390   5.493  0.00  0.00    -0.470 N 
ATOM      4  C   LIG    1        3.950   2.305   4.293  0.00  0.00    +0.210 C 
ATOM      5  C   LIG    1        3.524   0.966   3.640  0.00  0.00    +0.280 C 
ENDROOT
BRANCH   3   6
ATOM      6  C   LIG    1        2.987   3.703   5.951  0.00  0.00    +0.070 A 
ATOM      7  C   LIG    1        2.529   4.704   5.101  0.00  0.00    +0.020 A 
ATOM      8  C   LIG    1        2.436   6.003   5.550  0.00  0.00    +0.070 A 
ATOM      9  C   LIG    1        2.805   6.316   6.862  0.00  0.00    +0.010 A 
ATOM     10  C   LIG    1        3.266   5.308   7.715  0.00  0.00    +0.050 A 
ATOM     11  C   LIG    1        3.350   4.009   7.261  0.00  0.00    +0.140 A 
ATOM     12  F   LIG    1        3.790   3.034   8.086  0.00  0.00    -0.110 F 
BRANCH   9  13
ATOM     13  C   LIG    1        2.709   7.665   7.331  0.00  0.00    +0.250 C 
ATOM     14  N   LIG    1        2.634   8.736   7.703  0.00  0.00    -0.390 NA
ENDBRANCH   9  13
ENDBRANCH   3   6
BRANCH   5  15
ATOM     15  N   LIG    1        3.825   0.969   2.206  0.00  0.00    -0.280 N 
ATOM     16  C   LIG    1        3.874   2.061   1.409  0.00  0.00    +0.120 A 
ATOM     17  C   LIG    1        4.184   1.611   0.171  0.00  0.00    +0.150 A 
ATOM     18  N   LIG    1        4.309   0.282   0.270  0.00  0.00    -0.260 NA
ATOM     19  N   LIG    1        4.096  -0.066   1.490  0.00  0.00    -0.070 NA
ENDBRANCH   5  15
BRANCH   1  21
ATOM     20  C   LIG    1        0.000   1.080   2.488  0.00  0.00    +0.520 C 
ATOM     21  N   LIG    1        1.288   1.422   2.691  0.00  0.00    -0.730 N 
ATOM     22  H   LIG    1        1.746   1.990   2.051  0.00  0.00    +0.400 HD
ATOM     23  O   LIG    1       -0.572   0.370   3.288  0.00  0.00    -0.520 OA
BRANCH  20  25
ATOM     24  C   LIG    1       -0.013   1.086   0.008  0.00  0.00    +0.050 C 
ATOM     25  C   LIG    1       -0.729   1.579   1.267  0.00  0.00    -0.010 C 
ATOM     26  C   LIG    1       -2.164   1.050   1.278  0.00  0.00    +0.060 C 
ENDBRANCH  20  25
ENDBRANCH   1  21
TORSDOF 5
