REMARK  Name = ZINCrD00000hQ45x.0
REMARK                            x       y       z     vdW  Elec       q    Type
REMARK                         _______ _______ _______ _____ _____    ______ ____
ROOT
ATOM      1  C   LIG    1       -2.902   4.590  -0.888  0.00  0.00    +0.540 C 
ATOM      2  N   LIG    1       -2.465   3.819   0.127  0.00  0.00    -0.560 N 
ATOM      3  C   LIG    1       -3.264   3.655   1.342  0.00  0.00    +0.280 C 
ATOM      4  C   LIG    1       -4.043   2.360   1.286  0.00  0.00    +0.030 C 
ATOM      5  C   LIG    1       -3.148   1.126   1.240  0.00  0.00    +0.200 C 
ATOM      6  N   LIG    1       -2.431   1.036  -0.032  0.00  0.00    -0.490 N 
ATOM      7  C   LIG    1       -1.220   1.756   0.017  0.00  0.00    +0.110 A 
ATOM      8  C   LIG    1       -0.013   1.076   0.008  0.00  0.00    +0.000 A 
ATOM      9  C   LIG    1        1.174   1.787   0.000  0.00  0.00    +0.060 A 
ATOM     10  C   LIG    1        1.159   3.170   0.008  0.00  0.00    -0.040 A 
ATOM     11  C   LIG    1       -0.046   3.854   0.032  0.00  0.00    +0.040 A 
ATOM     12 CL   LIG    1        2.653   4.053  -0.013  0.00  0.00    -0.060 Cl
ATOM     13  C   LIG    1       -2.196  -0.365  -0.405  0.00  0.00    +0.220 C 
ATOM     14  C   LIG    1       -1.236   3.145   0.050  0.00  0.00    +0.140 A 
ATOM     15  O   LIG    1       -3.968   5.163  -0.799  0.00  0.00    -0.520 OA
ENDROOT
BRANCH   1  20
ATOM     16  C   LIG    1       -2.772   5.664  -3.147  0.00  0.00    +0.270 C 
ATOM     17  O   LIG    1       -2.976   4.903  -4.349  0.00  0.00    -0.360 OA
ATOM     18  C   LIG    1       -3.047   3.514  -3.963  0.00  0.00    +0.210 C 
ATOM     19  C   LIG    1       -1.951   3.385  -2.874  0.00  0.00    +0.040 C 
ATOM     20  C   LIG    1       -2.068   4.740  -2.134  0.00  0.00    -0.030 C 
BRANCH  16  23
ATOM     21  C   LIG    1       -2.655   8.304  -1.474  0.00  0.00    +0.140 C 
ATOM     22  C   LIG    1       -1.854   8.003  -2.714  0.00  0.00    +0.100 A 
ATOM     23  C   LIG    1       -1.904   6.861  -3.438  0.00  0.00    -0.240 A 
ATOM     24  C   LIG    1       -1.013   6.990  -4.508  0.00  0.00    +0.260 A 
ATOM     25  N   LIG    1       -0.444   8.165  -4.426  0.00  0.00    -0.300 NA
ATOM     26  N   LIG    1       -0.956   8.822  -3.300  0.00  0.00    -0.370 N 
ATOM     27  C   LIG    1       -0.586  10.164  -2.842  0.00  0.00    +0.360 C 
ENDBRANCH  16  23
ENDBRANCH   1  20
TORSDOF 2
