REMARK  Name = ZINCrD00000eQGX8.0
REMARK                            x       y       z     vdW  Elec       q    Type
REMARK                         _______ _______ _______ _____ _____    ______ ____
ROOT
ATOM      1  N   LIG    1       -3.428   1.889   0.154  0.00  0.00    -0.370 N 
ATOM      2  N   LIG    1       -3.813   0.548  -0.006  0.00  0.00    -0.310 NA
ATOM      3  C   LIG    1       -4.423   0.191   1.094  0.00  0.00    +0.250 A 
ATOM      4  N   LIG    1       -4.446   1.221   1.936  0.00  0.00    -0.530 NA
ATOM      5  C   LIG    1       -3.844   2.258   1.388  0.00  0.00    +0.330 A 
ENDROOT
BRANCH   5   6
ATOM      6  C   LIG    1       -3.659   3.586   2.009  0.00  0.00    -0.030 A 
ATOM      7  C   LIG    1       -4.237   3.869   3.256  0.00  0.00    +0.140 A 
ATOM      8  N   LIG    1       -5.011   3.138   4.125  0.00  0.00    -0.570 N 
ATOM      9  H   LIG    1       -5.297   2.222   3.982  0.00  0.00    +0.430 HD
ATOM     10  C   LIG    1       -5.320   3.893   5.223  0.00  0.00    +0.240 A 
ATOM     11  C   LIG    1       -4.769   5.112   5.107  0.00  0.00    -0.040 A 
ATOM     12  C   LIG    1       -4.051   5.137   3.830  0.00  0.00    -0.090 A 
ATOM     13  C   LIG    1       -3.295   6.103   3.163  0.00  0.00    +0.070 A 
ATOM     14  C   LIG    1       -2.731   5.811   1.938  0.00  0.00    +0.070 A 
ATOM     15  F   LIG    1       -2.000   6.749   1.295  0.00  0.00    -0.130 F 
ATOM     16  C   LIG    1       -2.905   4.561   1.363  0.00  0.00    +0.020 A 
ENDBRANCH   5   6
BRANCH   1  18
ATOM     17  C   LIG    1       -3.497   4.013  -1.062  0.00  0.00    +0.080 C 
ATOM     18  C   LIG    1       -2.714   2.721  -0.818  0.00  0.00    +0.190 C 
ATOM     19  C   LIG    1       -1.314   3.062  -0.278  0.00  0.00    +0.090 C 
ATOM     20  C   LIG    1       -0.470   1.761  -0.372  0.00  0.00    -0.300 C 
ATOM     21  S   LIG    1       -0.945   1.100  -2.014  0.00  0.00    +2.390 S 
ATOM     22  O   LIG    1       -0.061   1.612  -3.002  0.00  0.00    -0.930 OA
ATOM     23  O   LIG    1       -1.159  -0.301  -1.914  0.00  0.00    -0.920 OA
ATOM     24  C   LIG    1       -2.559   1.951  -2.144  0.00  0.00    -0.280 C 
ENDBRANCH   1  18
BRANCH   3  25
ATOM     25  C   LIG    1       -5.006  -1.171   1.366  0.00  0.00    +0.090 C 
ATOM     26  C   LIG    1       -6.345  -1.129   2.121  0.00  0.00    +0.040 C 
ATOM     27  C   LIG    1       -5.840  -2.342   2.922  0.00  0.00    +0.010 C 
ATOM     28  C   LIG    1       -4.414  -1.858   2.609  0.00  0.00    +0.040 C 
ENDBRANCH   3  25
TORSDOF 3
