REMARK  Name = ZINCtV00001bB3dG.0
REMARK                            x       y       z     vdW  Elec       q    Type
REMARK                         _______ _______ _______ _____ _____    ______ ____
ROOT
ATOM      1  C   LIG    1       -0.313   1.077   2.620  0.00  0.00    +0.090 A 
ATOM      2  C   LIG    1        0.746   0.193   2.610  0.00  0.00    -0.010 A 
ATOM      3  C   LIG    1        1.611   0.129   3.710  0.00  0.00    -0.070 A 
ATOM      4  C   LIG    1        1.389   0.955   4.818  0.00  0.00    +0.070 A 
ATOM      5  C   LIG    1        0.325   1.831   4.822  0.00  0.00    -0.050 A 
ATOM      6  C   LIG    1       -0.528   1.897   3.728  0.00  0.00    +0.120 A 
ENDROOT
BRANCH   3   7
ATOM      7  C   LIG    1        2.744  -0.805   3.703  0.00  0.00    +0.140 C 
ATOM      8  C   LIG    1        2.992  -1.575   4.787  0.00  0.00    -0.200 C 
ATOM      9  C   LIG    1        4.282  -2.347   4.888  0.00  0.00    +0.090 C 
ATOM     10  C   LIG    1        4.801  -2.329   6.326  0.00  0.00    +0.100 C 
ATOM     11  C   LIG    1        3.726  -2.760   7.287  0.00  0.00    -0.040 A 
ATOM     12  C   LIG    1        4.059  -3.482   8.416  0.00  0.00    +0.000 A 
ATOM     13  C   LIG    1        3.079  -3.839   9.325  0.00  0.00    +0.040 A 
ATOM     14  C   LIG    1        1.761  -3.479   9.112  0.00  0.00    -0.010 A 
ATOM     15  C   LIG    1        1.412  -2.766   7.983  0.00  0.00    +0.070 A 
ATOM     16  C   LIG    1        2.395  -2.411   7.060  0.00  0.00    -0.160 A 
ATOM     17  C   LIG    1        2.036  -1.665   5.832  0.00  0.00    +0.420 C 
ATOM     18  O   LIG    1        0.944  -1.140   5.722  0.00  0.00    -0.440 OA
ENDBRANCH   3   7
BRANCH   1  20
ATOM     19  C   LIG    1       -0.873   0.277   0.451  0.00  0.00    +0.230 C 
ATOM     20  O   LIG    1       -1.152   1.145   1.552  0.00  0.00    -0.310 OA
ENDBRANCH   1  20
BRANCH   6  21
ATOM     21  O   LIG    1       -1.575   2.762   3.738  0.00  0.00    -0.300 OA
BRANCH  21  22
ATOM     22  C   LIG    1       -1.736   3.572   4.904  0.00  0.00    +0.240 C 
BRANCH  22  23
ATOM     23  C   LIG    1       -2.940   4.463   4.734  0.00  0.00    -0.090 A 
ATOM     24  C   LIG    1       -2.797   5.718   4.171  0.00  0.00    +0.050 A 
ATOM     25  C   LIG    1       -3.901   6.533   4.011  0.00  0.00    +0.030 A 
ATOM     26  C   LIG    1       -5.148   6.098   4.424  0.00  0.00    -0.030 A 
ATOM     27  C   LIG    1       -5.290   4.844   4.992  0.00  0.00    +0.030 A 
ATOM     28 CL   LIG    1       -6.535   7.124   4.230  0.00  0.00    -0.070 Cl
ATOM     29  C   LIG    1       -4.185   4.027   5.146  0.00  0.00    +0.060 A 
ENDBRANCH  22  23
ENDBRANCH  21  22
ENDBRANCH   6  21
TORSDOF 5
