REMARK  Name = ZINCvU000000097l.0
REMARK                            x       y       z     vdW  Elec       q    Type
REMARK                         _______ _______ _______ _____ _____    ______ ____
ROOT
ATOM      1  C   LIG    1        4.471   1.400   0.133  0.00  0.00    +0.300 C 
ENDROOT
BRANCH   1   2
ATOM      2  C   LIG    1        4.789   1.322  -1.338  0.00  0.00    -0.110 A 
ATOM      3  C   LIG    1        4.338   2.308  -2.196  0.00  0.00    +0.030 A 
ATOM      4  C   LIG    1        4.632   2.238  -3.544  0.00  0.00    +0.000 A 
ATOM      5  C   LIG    1        5.370   1.178  -4.037  0.00  0.00    +0.010 A 
ATOM      6  C   LIG    1        5.816   0.189  -3.180  0.00  0.00    +0.020 A 
ATOM      7  C   LIG    1        5.526   0.261  -1.831  0.00  0.00    +0.020 A 
ENDBRANCH   1   2
BRANCH   1   8
ATOM      8  C   LIG    1        5.424   2.357   0.802  0.00  0.00    +0.520 C 
ATOM      9  N   LIG    1        6.751   2.122   0.767  0.00  0.00    -0.670 N 
ATOM     10  H   LIG    1        7.098   1.374   0.256  0.00  0.00    +0.420 HD
ATOM     11  O   LIG    1        4.997   3.339   1.372  0.00  0.00    -0.500 OA
BRANCH   9  12
ATOM     12  C   LIG    1        7.628   2.956   1.469  0.00  0.00    +0.140 A 
ATOM     13  C   LIG    1        7.372   4.318   1.558  0.00  0.00    +0.060 A 
ATOM     14  C   LIG    1        8.237   5.137   2.257  0.00  0.00    +0.040 A 
ATOM     15  C   LIG    1        9.363   4.605   2.857  0.00  0.00    +0.060 A 
ATOM     16  C   LIG    1        9.623   3.250   2.767  0.00  0.00    -0.160 A 
ATOM     17  C   LIG    1        8.759   2.424   2.074  0.00  0.00    +0.050 A 
BRANCH  16  18
ATOM     18  C   LIG    1       10.851   2.674   3.423  0.00  0.00    +0.510 C 
ATOM     19  F   LIG    1       10.599   1.352   3.805  0.00  0.00    -0.180 F 
ATOM     20  F   LIG    1       11.175   3.432   4.553  0.00  0.00    -0.170 F 
ATOM     21  F   LIG    1       11.920   2.703   2.520  0.00  0.00    -0.170 F 
ENDBRANCH  16  18
ENDBRANCH   9  12
ENDBRANCH   1   8
BRANCH   1  22
ATOM     22  N   LIG    1        3.097   1.875   0.312  0.00  0.00    -0.720 N 
ATOM     23  H   LIG    1        2.925   2.818   0.461  0.00  0.00    +0.410 HD
BRANCH  22  28
ATOM     24  C   LIG    1       -0.321   0.515   0.392  0.00  0.00    +0.190 A 
ATOM     25  C   LIG    1       -0.069  -0.834   0.178  0.00  0.00    -0.080 A 
ATOM     26  C   LIG    1        1.229  -1.278   0.010  0.00  0.00    +0.080 A 
ATOM     27  C   LIG    1        2.280  -0.382   0.054  0.00  0.00    -0.090 A 
ATOM     28  C   LIG    1        2.034   0.969   0.268  0.00  0.00    +0.240 A 
ATOM     29  C   LIG    1        0.732   1.418   0.436  0.00  0.00    -0.060 A 
BRANCH  24  32
ATOM     30  C   LIG    1       -3.292   2.565   1.457  0.00  0.00    +0.110 C 
ATOM     31  C   LIG    1       -1.895   2.006   1.370  0.00  0.00    +0.510 C 
ATOM     32  N   LIG    1       -1.636   0.965   0.555  0.00  0.00    -0.680 N 
ATOM     33  H   LIG    1       -2.361   0.526   0.083  0.00  0.00    +0.410 HD
ATOM     34  O   LIG    1       -1.005   2.494   2.034  0.00  0.00    -0.520 OA
ENDBRANCH  24  32
ENDBRANCH  22  28
ENDBRANCH   1  22
TORSDOF 7
