REMARK  Name = ZINCpk00000iSpe7.0
REMARK                            x       y       z     vdW  Elec       q    Type
REMARK                         _______ _______ _______ _____ _____    ______ ____
ROOT
ATOM      1  C   LIG    1        0.064  -1.090   1.610  0.00  0.00    +0.520 C 
ATOM      2  N   LIG    1        0.281  -0.477   0.429  0.00  0.00    -0.610 N 
ATOM      3  C   LIG    1       -0.286   0.851   0.159  0.00  0.00    +0.270 C 
ATOM      4  C   LIG    1        0.843   1.790  -0.278  0.00  0.00    +0.030 C 
ATOM      5  C   LIG    1        1.586   1.170  -1.464  0.00  0.00    +0.040 C 
ATOM      6  C   LIG    1        2.204  -0.164  -1.040  0.00  0.00    -0.020 C 
ATOM      7  C   LIG    1        1.090  -1.125  -0.612  0.00  0.00    +0.310 C 
ATOM      8  O   LIG    1        0.538  -2.186   1.821  0.00  0.00    -0.530 OA
ENDROOT
BRANCH   6   9
ATOM      9  C   LIG    1        2.963  -0.758  -2.199  0.00  0.00    +0.530 C 
ATOM     10  N   LIG    1        4.222  -0.352  -2.458  0.00  0.00    -0.620 N 
ATOM     11  C   LIG    1        4.910   0.598  -1.569  0.00  0.00    +0.250 C 
ATOM     12  C   LIG    1        6.287   0.013  -1.216  0.00  0.00    +0.220 C 
ATOM     13  O   LIG    1        6.971  -0.338  -2.421  0.00  0.00    -0.380 OA
ATOM     14  C   LIG    1        6.320  -1.353  -3.189  0.00  0.00    +0.220 C 
ATOM     15  C   LIG    1        4.947  -0.842  -3.641  0.00  0.00    +0.260 C 
ATOM     16  O   LIG    1        2.441  -1.600  -2.897  0.00  0.00    -0.530 OA
ENDBRANCH   6   9
BRANCH   1  17
ATOM     17  C   LIG    1       -0.768  -0.412   2.668  0.00  0.00    +0.050 C 
BRANCH  17  18
ATOM     18  C   LIG    1       -0.859  -1.314   3.901  0.00  0.00    +0.130 C 
BRANCH  18  19
ATOM     19  C   LIG    1       -1.704  -0.626   4.975  0.00  0.00    +0.040 C 
ATOM     20  N   LIG    1       -2.751   0.307   4.553  0.00  0.00    -0.120 NA
ATOM     21  N   LIG    1       -1.729   0.838   5.016  0.00  0.00    -0.120 NA
BRANCH  19  22
ATOM     22  C   LIG    1       -1.895  -1.399   6.282  0.00  0.00    +0.120 C 
BRANCH  22  23
ATOM     23  C   LIG    1       -2.757  -0.575   7.240  0.00  0.00    +0.160 C 
BRANCH  23  25
ATOM     24  C   LIG    1       -3.088  -1.911   9.500  0.00  0.00    +0.030 C 
ATOM     25  C   LIG    1       -2.942  -1.318   8.497  0.00  0.00    -0.190 C 
ENDBRANCH  23  25
ENDBRANCH  22  23
ENDBRANCH  19  22
ENDBRANCH  18  19
ENDBRANCH  17  18
ENDBRANCH   1  17
TORSDOF 7
