REMARK  Name = ZINCpe000000UFfF.0
REMARK                            x       y       z     vdW  Elec       q    Type
REMARK                         _______ _______ _______ _____ _____    ______ ____
ROOT
ATOM      1  C   LIG    1       -3.800   4.993  -3.679  0.00  0.00    +0.210 C 
ATOM      2  C   LIG    1       -4.418   6.358  -3.992  0.00  0.00    +0.240 C 
ATOM      3  O   LIG    1       -5.059   6.289  -5.271  0.00  0.00    -0.360 OA
ATOM      4  C   LIG    1       -6.217   5.450  -5.269  0.00  0.00    +0.280 C 
ATOM      5  C   LIG    1       -5.886   4.125  -4.642  0.00  0.00    +0.490 C 
ATOM      6  O   LIG    1       -6.642   3.192  -4.811  0.00  0.00    -0.520 OA
ATOM      7  N   LIG    1       -4.786   3.938  -3.902  0.00  0.00    -0.590 N 
ENDROOT
BRANCH   1   9
ATOM      8  N   LIG    1       -4.233   5.236  -1.256  0.00  0.00    -0.590 N 
ATOM      9  C   LIG    1       -3.353   4.964  -2.240  0.00  0.00    +0.520 C 
ATOM     10  O   LIG    1       -2.202   4.697  -1.968  0.00  0.00    -0.530 OA
ATOM     11  C   LIG    1       -5.649   5.437  -1.573  0.00  0.00    +0.280 C 
BRANCH   8  12
ATOM     12  C   LIG    1       -3.773   5.331   0.132  0.00  0.00    +0.370 C 
BRANCH  12  16
ATOM     13  C   LIG    1       -0.786   9.334   0.550  0.00  0.00    +0.360 C 
ATOM     14  N   LIG    1       -1.966   8.467   0.581  0.00  0.00    -0.370 N 
ATOM     15  C   LIG    1       -2.004   7.165   0.226  0.00  0.00    +0.260 A 
ATOM     16  C   LIG    1       -3.272   6.727   0.401  0.00  0.00    -0.270 A 
ATOM     17  C   LIG    1       -4.037   7.799   0.871  0.00  0.00    +0.240 A 
ATOM     18  N   LIG    1       -3.255   8.843   0.979  0.00  0.00    -0.300 NA
ENDBRANCH  12  16
ENDBRANCH   8  12
ENDBRANCH   1   9
BRANCH   7  19
ATOM     19  C   LIG    1       -4.562   2.625  -3.292  0.00  0.00    +0.330 C 
BRANCH  19  20
ATOM     20  C   LIG    1       -5.340   2.529  -2.006  0.00  0.00    -0.120 A 
ATOM     21  C   LIG    1       -4.710   2.763  -0.798  0.00  0.00    +0.030 A 
ATOM     22  C   LIG    1       -5.426   2.679   0.382  0.00  0.00    -0.010 A 
ATOM     23  C   LIG    1       -6.769   2.353   0.355  0.00  0.00    +0.010 A 
ATOM     24  C   LIG    1       -7.397   2.114  -0.853  0.00  0.00    -0.010 A 
ATOM     25  C   LIG    1       -6.683   2.202  -2.033  0.00  0.00    +0.040 A 
ENDBRANCH  19  20
ENDBRANCH   7  19
TORSDOF 5
