REMARK  Name = ZINCrH00000No501.0
REMARK                            x       y       z     vdW  Elec       q    Type
REMARK                         _______ _______ _______ _____ _____    ______ ____
ROOT
ATOM      1  C   LIG    1       -1.966   2.710  -4.852  0.00  0.00    +0.330 C 
ENDROOT
BRANCH   1   2
ATOM      2  C   LIG    1       -1.701   2.315  -3.422  0.00  0.00    -0.200 A 
ATOM      3  C   LIG    1       -2.616   2.270  -2.457  0.00  0.00    +0.030 A 
ATOM      4  C   LIG    1       -2.153   1.879  -1.207  0.00  0.00    -0.150 A 
ATOM      5  C   LIG    1       -0.833   1.606  -1.180  0.00  0.00    -0.190 A 
ATOM      6  C   LIG    1       -0.092   1.160   0.063  0.00  0.00    +0.100 C 
ATOM      7  C   LIG    1       -0.982   1.461   1.277  0.00  0.00    +0.220 C 
ATOM      8  O   LIG    1       -2.308   0.988   1.011  0.00  0.00    -0.380 OA
ATOM      9  C   LIG    1       -3.021   1.756   0.038  0.00  0.00    +0.310 C 
ATOM     10  S   LIG    1       -0.136   1.844  -2.773  0.00  0.00    +0.210 S 
ENDBRANCH   1   2
BRANCH   1  15
ATOM     11  C   LIG    1        0.297  -0.347  -6.782  0.00  0.00    +0.000 C 
ATOM     12  C   LIG    1       -0.452   0.045  -8.027  0.00  0.00    +0.020 C 
ATOM     13  C   LIG    1       -0.569   1.585  -8.076  0.00  0.00    +0.030 C 
ATOM     14  C   LIG    1       -1.600   2.074  -7.167  0.00  0.00    +0.160 C 
ATOM     15  N   LIG    1       -1.325   1.743  -5.753  0.00  0.00    -0.510 NA
ATOM     16  C   LIG    1       -1.776   0.401  -5.477  0.00  0.00    +0.170 C 
ATOM     17  C   LIG    1       -0.631  -0.625  -5.581  0.00  0.00    +0.030 C 
BRANCH  11  19
ATOM     18  C   LIG    1        2.186  -1.287  -8.120  0.00  0.00    +0.010 C 
ATOM     19  C   LIG    1        1.114  -1.606  -7.075  0.00  0.00    +0.000 C 
ENDBRANCH  11  19
ENDBRANCH   1  15
BRANCH   1  20
ATOM     20  C   LIG    1       -1.403   4.084  -5.106  0.00  0.00    +0.190 A 
ATOM     21  N   LIG    1       -0.139   4.397  -5.253  0.00  0.00    -0.270 NA
ATOM     22  N   LIG    1       -0.064   5.667  -5.455  0.00  0.00    -0.070 NA
ATOM     23  N   LIG    1       -1.247   6.174  -5.434  0.00  0.00    -0.090 NA
ATOM     24  N   LIG    1       -2.100   5.230  -5.221  0.00  0.00    -0.280 N 
BRANCH  24  25
ATOM     25  C   LIG    1       -3.554   5.377  -5.122  0.00  0.00    +0.200 C 
ATOM     26  C   LIG    1       -4.153   6.737  -5.487  0.00  0.00    +0.090 C 
ATOM     27  C   LIG    1       -4.099   6.292  -4.023  0.00  0.00    +0.070 C 
ENDBRANCH  24  25
ENDBRANCH   1  20
TORSDOF 5
