REMARK  Name = ZINCrD000000AbcK.0
REMARK                            x       y       z     vdW  Elec       q    Type
REMARK                         _______ _______ _______ _____ _____    ______ ____
ROOT
ATOM      1  C   LIG    1        0.959  -3.239  -2.783  0.00  0.00    +0.070 C 
ENDROOT
BRANCH   1   3
ATOM      2  O   LIG    1       -1.332  -3.526  -3.275  0.00  0.00    -0.450 OA
ATOM      3  C   LIG    1       -0.198  -3.898  -3.490  0.00  0.00    +0.400 C 
BRANCH   3   4
ATOM      4  C   LIG    1        0.049  -4.992  -4.439  0.00  0.00    -0.170 A 
ATOM      5  C   LIG    1        1.357  -5.423  -4.688  0.00  0.00    +0.090 A 
ATOM      6  C   LIG    1        1.587  -6.449  -5.578  0.00  0.00    +0.010 A 
ATOM      7  C   LIG    1        0.521  -7.055  -6.229  0.00  0.00    +0.100 A 
ATOM      8  O   LIG    1        0.745  -8.069  -7.110  0.00  0.00    -0.320 OA
ATOM      9  C   LIG    1        0.288  -9.361  -6.706  0.00  0.00    +0.230 C 
ATOM     10  C   LIG    1       -1.183  -9.545  -7.045  0.00  0.00    -0.010 C 
ATOM     11  C   LIG    1       -2.079  -8.594  -6.267  0.00  0.00    +0.230 C 
ATOM     12  O   LIG    1       -1.819  -7.238  -6.635  0.00  0.00    -0.320 OA
ATOM     13  C   LIG    1       -0.782  -6.632  -5.986  0.00  0.00    +0.050 A 
ATOM     14  C   LIG    1       -1.026  -5.610  -5.093  0.00  0.00    +0.090 A 
ENDBRANCH   3   4
ENDBRANCH   1   3
BRANCH   1  15
ATOM     15  C   LIG    1        0.431  -2.140  -1.858  0.00  0.00    +0.070 C 
BRANCH  15  16
ATOM     16  C   LIG    1        1.587  -1.481  -1.151  0.00  0.00    +0.520 C 
ATOM     17  N   LIG    1        1.361  -0.478  -0.280  0.00  0.00    -0.610 N 
ATOM     18  C   LIG    1        2.469   0.187   0.427  0.00  0.00    +0.290 C 
ATOM     19  C   LIG    1        2.510   1.644  -0.032  0.00  0.00    +0.070 C 
ATOM     20  C   LIG    1        1.135   2.256   0.003  0.00  0.00    -0.070 A 
ATOM     21  C   LIG    1        1.048   3.643   0.024  0.00  0.00    +0.000 A 
ATOM     22  C   LIG    1       -0.182   4.269   0.043  0.00  0.00    +0.000 A 
ATOM     23  C   LIG    1       -1.338   3.512   0.043  0.00  0.00    +0.010 A 
ATOM     24  C   LIG    1       -1.255   2.135   0.031  0.00  0.00    +0.020 A 
ATOM     25  C   LIG    1       -0.018   1.504   0.010  0.00  0.00    -0.100 A 
ATOM     26  C   LIG    1        0.002  -0.004   0.002  0.00  0.00    +0.330 C 
ATOM     27  O   LIG    1        2.722  -1.854  -1.366  0.00  0.00    -0.540 OA
ENDBRANCH  15  16
ENDBRANCH   1  15
TORSDOF 4
