REMARK  Name = ZINCqH0000003tAR.0
REMARK                            x       y       z     vdW  Elec       q    Type
REMARK                         _______ _______ _______ _____ _____    ______ ____
ROOT
ATOM      1  N   LIG    1       -2.386   7.929   4.310  0.00  0.00    -0.620 N 
ATOM      2  H   LIG    1       -3.164   7.823   4.880  0.00  0.00    +0.430 HD
ATOM      3  C   LIG    1       -2.388   7.413   3.065  0.00  0.00    +0.510 C 
ATOM      4  O   LIG    1       -1.416   7.545   2.353  0.00  0.00    -0.490 OA
ENDROOT
BRANCH   1   8
ATOM      5  C   LIG    1        0.002   9.760   6.201  0.00  0.00    +0.040 A 
ATOM      6  C   LIG    1        0.891   9.731   5.185  0.00  0.00    -0.070 A 
ATOM      7  S   LIG    1        0.208   8.886   3.865  0.00  0.00    +0.300 S 
ATOM      8  C   LIG    1       -1.271   8.612   4.777  0.00  0.00    +0.250 A 
ATOM      9  N   LIG    1       -1.161   9.151   5.950  0.00  0.00    -0.460 NA
BRANCH   5  10
ATOM     10  C   LIG    1        0.290  10.417   7.484  0.00  0.00    +0.550 C 
ATOM     11  O   LIG    1        1.362  10.961   7.662  0.00  0.00    -0.500 OA
BRANCH  10  12
ATOM     12  O   LIG    1       -0.636  10.415   8.465  0.00  0.00    -0.340 OA
BRANCH  12  14
ATOM     13  C   LIG    1       -1.449  10.977  10.690  0.00  0.00    +0.070 C 
ATOM     14  C   LIG    1       -0.283  11.082   9.705  0.00  0.00    +0.200 C 
ENDBRANCH  12  14
ENDBRANCH  10  12
ENDBRANCH   5  10
ENDBRANCH   1   8
BRANCH   3  15
ATOM     15  C   LIG    1       -3.598   6.671   2.558  0.00  0.00    +0.180 C 
BRANCH  15  16
ATOM     16  C   LIG    1       -3.345   6.200   1.150  0.00  0.00    -0.170 A 
ATOM     17  C   LIG    1       -3.697   6.824   0.017  0.00  0.00    +0.250 A 
ATOM     18  O   LIG    1       -3.305   6.104  -1.049  0.00  0.00    -0.190 OA
ATOM     19  C   LIG    1       -2.677   4.975  -0.663  0.00  0.00    +0.060 A 
ATOM     20  C   LIG    1       -2.096   3.921  -1.353  0.00  0.00    +0.030 A 
ATOM     21  C   LIG    1       -1.512   2.875  -0.665  0.00  0.00    -0.070 A 
ATOM     22  C   LIG    1       -1.501   2.866   0.723  0.00  0.00    -0.110 A 
ATOM     23  C   LIG    1       -0.802   1.617   1.223  0.00  0.00    +0.080 C 
ATOM     24  C   LIG    1       -0.013   1.086   0.008  0.00  0.00    +0.030 C 
ATOM     25  C   LIG    1       -2.074   3.906   1.427  0.00  0.00    +0.060 A 
ATOM     26  C   LIG    1       -0.825   1.630  -1.186  0.00  0.00    +0.080 C 
ATOM     27  C   LIG    1       -2.664   4.965   0.742  0.00  0.00    -0.110 A 
ENDBRANCH  15  16
ENDBRANCH   3  15
TORSDOF 6
