REMARK  Name = ZINCrH000004tYzt.0
REMARK                            x       y       z     vdW  Elec       q    Type
REMARK                         _______ _______ _______ _____ _____    ______ ____
ROOT
ATOM      1  C   LIG    1        8.577  -2.690  -0.091  0.00  0.00    +0.150 C 
ENDROOT
BRANCH   1   2
ATOM      2  C   LIG    1        7.622  -1.525  -0.076  0.00  0.00    +0.110 A 
ATOM      3  C   LIG    1        8.032  -0.256  -0.074  0.00  0.00    -0.130 A 
ATOM      4  S   LIG    1        6.607   0.779  -0.055  0.00  0.00    +0.250 S 
ATOM      5  C   LIG    1        5.594  -0.598  -0.053  0.00  0.00    +0.240 A 
ATOM      6  N   LIG    1        6.311  -1.678  -0.059  0.00  0.00    -0.480 NA
BRANCH   5   7
ATOM      7  N   LIG    1        4.206  -0.564  -0.040  0.00  0.00    -0.610 N 
ATOM      8  H   LIG    1        3.701  -1.392  -0.039  0.00  0.00    +0.430 HD
ATOM      9  C   LIG    1        3.560   0.619  -0.028  0.00  0.00    +0.610 C 
ATOM     10  O   LIG    1        4.194   1.658  -0.029  0.00  0.00    -0.490 OA
BRANCH   9  11
ATOM     11  C   LIG    1        2.095   0.654  -0.014  0.00  0.00    -0.090 A 
ATOM     12  C   LIG    1        1.319   1.778  -0.001  0.00  0.00    +0.070 A 
ATOM     13  C   LIG    1       -0.016   1.347   0.009  0.00  0.00    -0.070 A 
ATOM     14  C   LIG    1        0.002  -0.004   0.002  0.00  0.00    +0.230 A 
ATOM     15  O   LIG    1        1.276  -0.418  -0.012  0.00  0.00    -0.160 OA
ENDBRANCH   9  11
ENDBRANCH   5   7
ENDBRANCH   1   2
BRANCH   1  17
ATOM     16  O   LIG    1        7.375  -3.332   1.836  0.00  0.00    -0.510 OA
ATOM     17  C   LIG    1        8.277  -3.602   1.071  0.00  0.00    +0.520 C 
ATOM     18  N   LIG    1        9.010  -4.717   1.260  0.00  0.00    -0.730 N 
ATOM     19  H   LIG    1        9.731  -4.933   0.648  0.00  0.00    +0.400 HD
BRANCH  18  20
ATOM     20  C   LIG    1        8.717  -5.603   2.390  0.00  0.00    +0.290 C 
ATOM     21  C   LIG    1        9.977  -6.384   2.756  0.00  0.00    +0.020 C 
ATOM     22  C   LIG    1        9.600  -7.454   3.787  0.00  0.00    +0.030 C 
ATOM     23  C   LIG    1        8.754  -8.518   3.090  0.00  0.00    +0.080 C 
ATOM     24  C   LIG    1        7.618  -7.880   2.334  0.00  0.00    -0.070 A 
ATOM     25  C   LIG    1        6.555  -8.691   1.958  0.00  0.00    -0.010 A 
ATOM     26  C   LIG    1        5.487  -8.167   1.260  0.00  0.00    +0.000 A 
ATOM     27  C   LIG    1        5.473  -6.825   0.930  0.00  0.00    -0.010 A 
ATOM     28  C   LIG    1        6.528  -6.017   1.304  0.00  0.00    +0.040 A 
ATOM     29  C   LIG    1        7.603  -6.542   2.009  0.00  0.00    -0.100 A 
ENDBRANCH  18  20
ENDBRANCH   1  17
TORSDOF 5
