REMARK  Name = ZINCvU000000053m.0
REMARK                            x       y       z     vdW  Elec       q    Type
REMARK                         _______ _______ _______ _____ _____    ______ ____
ROOT
ATOM      1  C   LIG    1       -1.145   1.800   0.039  0.00  0.00    -0.210 A 
ATOM      2  C   LIG    1       -0.648   2.689  -0.893  0.00  0.00    +0.040 A 
ATOM      3  N   LIG    1        0.596   3.024  -0.506  0.00  0.00    -0.280 N 
ATOM      4  N   LIG    1        0.887   2.346   0.683  0.00  0.00    -0.240 NA
ATOM      5  C   LIG    1       -0.142   1.618   1.018  0.00  0.00    +0.300 A 
ENDROOT
BRANCH   1   7
ATOM      6  O   LIG    1       -3.467   1.833  -0.183  0.00  0.00    -0.520 OA
ATOM      7  C   LIG    1       -2.474   1.162   0.019  0.00  0.00    +0.590 C 
ATOM      8  N   LIG    1       -2.587  -0.165   0.224  0.00  0.00    -0.600 N 
ATOM      9  C   LIG    1       -1.393  -1.017   0.335  0.00  0.00    +0.280 C 
ATOM     10  C   LIG    1       -1.518  -1.856   1.617  0.00  0.00    +0.170 C 
ATOM     11  N   LIG    1       -2.796  -2.579   1.601  0.00  0.00    -0.530 NA
ATOM     12  C   LIG    1       -3.934  -1.650   1.611  0.00  0.00    +0.170 C 
ATOM     13  C   LIG    1       -3.909  -0.802   0.335  0.00  0.00    +0.300 C 
BRANCH  11  14
ATOM     14  C   LIG    1       -2.880  -3.526   2.720  0.00  0.00    +0.270 C 
BRANCH  14  15
ATOM     15  C   LIG    1       -1.845  -4.608   2.541  0.00  0.00    -0.160 A 
ATOM     16  C   LIG    1       -0.596  -4.560   3.004  0.00  0.00    +0.010 A 
ATOM     17  C   LIG    1        0.175  -5.675   2.720  0.00  0.00    +0.060 A 
ATOM     18  C   LIG    1       -0.448  -6.623   2.017  0.00  0.00    -0.210 A 
ATOM     19 BR   LIG    1        0.328  -8.257   1.466  0.00  0.00    +0.010 Br
ATOM     20  S   LIG    1       -2.100  -6.122   1.683  0.00  0.00    +0.190 S 
ENDBRANCH  14  15
ENDBRANCH  11  14
ENDBRANCH   1   7
BRANCH   3  21
ATOM     21  C   LIG    1        1.455   3.903  -1.179  0.00  0.00    +0.130 A 
ATOM     22  C   LIG    1        2.796   3.581  -1.337  0.00  0.00    +0.070 A 
ATOM     23  C   LIG    1        3.639   4.447  -2.006  0.00  0.00    +0.060 A 
ATOM     24  C   LIG    1        3.151   5.639  -2.509  0.00  0.00    -0.020 A 
ATOM     25  C   LIG    1        1.815   5.965  -2.349  0.00  0.00    +0.060 A 
ATOM     26 CL   LIG    1        4.215   6.729  -3.343  0.00  0.00    -0.050 Cl
ATOM     27  C   LIG    1        0.967   5.101  -1.686  0.00  0.00    +0.030 A 
ENDBRANCH   3  21
BRANCH   2  28
ATOM     28  C   LIG    1       -1.365   3.188  -2.121  0.00  0.00    +0.540 C 
ATOM     29  F   LIG    1       -1.988   4.407  -1.835  0.00  0.00    -0.160 F 
ATOM     30  F   LIG    1       -2.329   2.251  -2.511  0.00  0.00    -0.150 F 
ATOM     31  F   LIG    1       -0.443   3.367  -3.159  0.00  0.00    -0.160 F 
ENDBRANCH   2  28
TORSDOF 5
