REMARK  Name = ZINCtV00000L6kA3.0
REMARK                            x       y       z     vdW  Elec       q    Type
REMARK                         _______ _______ _______ _____ _____    ______ ____
ROOT
ATOM      1  N   LIG    1        1.316   1.693   0.118  0.00  0.00    -0.510 N 
ATOM      2  C   LIG    1        2.401   0.909   0.271  0.00  0.00    +0.570 A 
ATOM      3  C   LIG    1        3.686   1.525   0.371  0.00  0.00    -0.230 A 
ATOM      4  C   LIG    1        3.753   2.911   0.318  0.00  0.00    +0.080 A 
ATOM      5  S   LIG    1        5.425   3.426   0.469  0.00  0.00    +0.200 S 
ATOM      6  C   LIG    1        6.002   1.774   0.602  0.00  0.00    -0.200 A 
ATOM      7  C   LIG    1        7.460   1.385   0.770  0.00  0.00    +0.120 C 
ATOM      8  C   LIG    1        7.532  -0.064   1.259  0.00  0.00    +0.020 C 
ATOM      9  C   LIG    1        6.654  -0.936   0.357  0.00  0.00    +0.020 C 
ATOM     10  C   LIG    1        5.183  -0.607   0.621  0.00  0.00    +0.110 C 
ATOM     11  N   LIG    1        2.621   3.630   0.168  0.00  0.00    -0.510 NA
ATOM     12  C   LIG    1        4.994   0.902   0.535  0.00  0.00    -0.030 A 
ATOM     13  O   LIG    1        2.289  -0.303   0.317  0.00  0.00    -0.510 OA
ATOM     14  C   LIG    1        1.449   3.051   0.072  0.00  0.00    +0.370 A 
ENDROOT
BRANCH   1  15
ATOM     15  C   LIG    1       -0.013   1.086   0.008  0.00  0.00    +0.230 C 
ATOM     16  C   LIG    1       -0.318   0.293   1.281  0.00  0.00    +0.060 C 
BRANCH  15  18
ATOM     17  C   LIG    1        0.150   0.955  -2.482  0.00  0.00    +0.020 C 
ATOM     18  C   LIG    1       -0.045   0.145  -1.198  0.00  0.00    +0.040 C 
ENDBRANCH  15  18
ENDBRANCH   1  15
BRANCH  14  19
ATOM     19  S   LIG    1        0.010   4.049  -0.122  0.00  0.00    +0.030 S 
BRANCH  19  20
ATOM     20  C   LIG    1        0.765   5.694  -0.116  0.00  0.00    +0.120 C 
BRANCH  20  21
ATOM     21  C   LIG    1       -0.324   6.756  -0.276  0.00  0.00    +0.230 C 
BRANCH  21  22
ATOM     22  O   LIG    1        0.272   8.055  -0.272  0.00  0.00    -0.300 OA
BRANCH  22  23
ATOM     23  C   LIG    1       -0.564   9.118  -0.406  0.00  0.00    +0.150 A 
ATOM     24  C   LIG    1       -1.929   8.915  -0.544  0.00  0.00    -0.060 A 
ATOM     25  C   LIG    1       -2.777   9.998  -0.676  0.00  0.00    +0.090 A 
ATOM     26  C   LIG    1       -2.265  11.283  -0.679  0.00  0.00    -0.130 A 
ATOM     27  C   LIG    1       -0.903  11.487  -0.546  0.00  0.00    +0.090 A 
ATOM     28 BR   LIG    1       -3.428  12.762  -0.866  0.00  0.00    -0.050 Br
ATOM     29  C   LIG    1       -0.052  10.407  -0.410  0.00  0.00    +0.000 A 
ENDBRANCH  22  23
ENDBRANCH  21  22
ENDBRANCH  20  21
ENDBRANCH  19  20
ENDBRANCH  14  19
TORSDOF 7
