REMARK  Name = ZINCrH00000No579.0
REMARK                            x       y       z     vdW  Elec       q    Type
REMARK                         _______ _______ _______ _____ _____    ______ ____
ROOT
ATOM      1  O   LIG    1        0.092   0.182  -0.935  0.00  0.00    -0.500 OA
ATOM      2  C   LIG    1        0.033   1.313  -0.482  0.00  0.00    +0.570 A 
ATOM      3  C   LIG    1       -1.206   2.023  -0.461  0.00  0.00    -0.230 A 
ATOM      4  C   LIG    1       -1.216   3.305   0.072  0.00  0.00    +0.080 A 
ATOM      5  S   LIG    1       -2.843   3.963  -0.005  0.00  0.00    +0.210 S 
ATOM      6  C   LIG    1       -3.479   2.502  -0.743  0.00  0.00    -0.200 A 
ATOM      7  C   LIG    1       -4.933   2.304  -1.135  0.00  0.00    +0.120 C 
ATOM      8  C   LIG    1       -5.026   1.120  -2.101  0.00  0.00    +0.030 C 
ATOM      9  C   LIG    1       -4.272  -0.071  -1.502  0.00  0.00    +0.020 C 
ATOM     10  C   LIG    1       -2.771   0.220  -1.534  0.00  0.00    +0.110 C 
ATOM     11  N   LIG    1       -0.071   3.845   0.539  0.00  0.00    -0.500 NA
ATOM     12  C   LIG    1        1.061   3.184   0.508  0.00  0.00    +0.370 A 
ATOM     13  C   LIG    1       -2.522   1.590  -0.915  0.00  0.00    -0.030 A 
ATOM     14  N   LIG    1        1.136   1.916   0.002  0.00  0.00    -0.470 N 
ENDROOT
BRANCH  14  15
ATOM     15  C   LIG    1        2.364   1.242  -0.015  0.00  0.00    +0.090 A 
ATOM     16  C   LIG    1        3.205   1.355  -1.114  0.00  0.00    +0.040 A 
ATOM     17  C   LIG    1        4.417   0.692  -1.125  0.00  0.00    +0.030 A 
ATOM     18  C   LIG    1        4.789  -0.090  -0.047  0.00  0.00    +0.030 A 
ATOM     19  C   LIG    1        3.952  -0.208   1.047  0.00  0.00    +0.030 A 
ATOM     20  C   LIG    1        2.740   0.456   1.066  0.00  0.00    +0.040 A 
ENDBRANCH  14  15
BRANCH  12  21
ATOM     21  S   LIG    1        2.521   3.947   1.134  0.00  0.00    +0.060 S 
BRANCH  21  22
ATOM     22  C   LIG    1        1.844   5.545   1.648  0.00  0.00    +0.130 C 
BRANCH  22  23
ATOM     23  C   LIG    1        2.962   6.405   2.241  0.00  0.00    -0.310 C 
BRANCH  23  24
ATOM     24  S   LIG    1        2.283   8.007   2.756  0.00  0.00    +2.590 S 
ATOM     25  F   LIG    1        3.488   8.715   3.556  0.00  0.00    -0.470 F 
ATOM     26  O   LIG    1        1.270   7.827   3.737  0.00  0.00    -0.920 OA
ATOM     27  O   LIG    1        2.071   8.845   1.629  0.00  0.00    -0.920 OA
ENDBRANCH  23  24
ENDBRANCH  22  23
ENDBRANCH  21  22
ENDBRANCH  12  21
TORSDOF 5
