REMARK  Name = ZINCpk00000ebjA6.0
REMARK                            x       y       z     vdW  Elec       q    Type
REMARK                         _______ _______ _______ _____ _____    ______ ____
ROOT
ATOM      1  C   LIG    1        0.804   2.884   6.401  0.00  0.00    +0.590 C 
ATOM      2  N   LIG    1        2.068   2.706   6.836  0.00  0.00    -0.600 N 
ATOM      3  C   LIG    1        3.206   2.262   6.011  0.00  0.00    +0.230 C 
ATOM      4  C   LIG    1        4.460   2.799   6.744  0.00  0.00    +0.180 C 
ATOM      5  C   LIG    1        4.053   2.622   8.230  0.00  0.00    +0.080 C 
ATOM      6  C   LIG    1        2.540   2.928   8.210  0.00  0.00    +0.290 C 
ATOM      7  O   LIG    1       -0.034   3.355   7.145  0.00  0.00    -0.510 OA
ENDROOT
BRANCH   1  14
ATOM      8  C   LIG    1       -1.482   1.733   0.219  0.00  0.00    +0.390 C 
ATOM      9  N   LIG    1       -0.462   1.363   1.204  0.00  0.00    -0.380 N 
ATOM     10  N   LIG    1        0.555   0.413   1.037  0.00  0.00    +0.020 NA
ATOM     11  N   LIG    1        1.267   0.354   2.107  0.00  0.00    -0.200 NA
ATOM     12  C   LIG    1        0.788   1.219   3.031  0.00  0.00    -0.070 A 
ATOM     13  C   LIG    1        1.176   1.541   4.335  0.00  0.00    +0.200 A 
ATOM     14  C   LIG    1        0.438   2.505   5.021  0.00  0.00    -0.200 A 
ATOM     15  C   LIG    1       -0.654   3.112   4.387  0.00  0.00    +0.420 A 
ATOM     16  N   LIG    1       -0.993   2.788   3.161  0.00  0.00    -0.480 NA
ATOM     17  C   LIG    1       -0.323   1.876   2.468  0.00  0.00    +0.290 A 
ENDBRANCH   1  14
BRANCH   6  18
ATOM     18  C   LIG    1        1.820   2.002   9.156  0.00  0.00    -0.100 A 
ATOM     19  C   LIG    1        1.534   0.706   8.770  0.00  0.00    +0.050 A 
ATOM     20  C   LIG    1        0.879  -0.146   9.638  0.00  0.00    -0.010 A 
ATOM     21  C   LIG    1        0.499   0.302  10.892  0.00  0.00    +0.100 A 
ATOM     22  C   LIG    1        0.780   1.602  11.276  0.00  0.00    -0.010 A 
ATOM     23  F   LIG    1       -0.147  -0.528  11.740  0.00  0.00    -0.140 F 
ATOM     24  C   LIG    1        1.440   2.451  10.408  0.00  0.00    +0.060 A 
ENDBRANCH   6  18
BRANCH   4  25
ATOM     25  O   LIG    1        4.684   4.176   6.435  0.00  0.00    -0.550 OA
ATOM     26  H   LIG    1        4.846   4.348   5.497  0.00  0.00    +0.380 HD
ENDBRANCH   4  25
TORSDOF 3
