REMARK  Name = ZINCtV000002GVTE.0
REMARK                            x       y       z     vdW  Elec       q    Type
REMARK                         _______ _______ _______ _____ _____    ______ ____
ROOT
ATOM      1  N   LIG    1       -2.892   1.119  -3.026  0.00  0.00    -0.510 NA
ENDROOT
BRANCH   1   2
ATOM      2  C   LIG    1       -3.289   2.479  -3.414  0.00  0.00    +0.290 C 
BRANCH   2   6
ATOM      3  C   LIG    1       -0.807   5.148  -1.764  0.00  0.00    -0.150 A 
ATOM      4  C   LIG    1       -0.330   4.705  -2.944  0.00  0.00    +0.020 A 
ATOM      5  C   LIG    1       -1.131   3.778  -3.579  0.00  0.00    +0.020 A 
ATOM      6  C   LIG    1       -2.255   3.462  -2.929  0.00  0.00    -0.160 A 
ATOM      7  S   LIG    1       -2.349   4.370  -1.426  0.00  0.00    +0.120 S 
BRANCH   3  12
ATOM      8  C   LIG    1        1.784   9.003   1.633  0.00  0.00    +0.090 C 
ATOM      9  C   LIG    1        1.105   7.994   0.744  0.00  0.00    -0.090 A 
ATOM     10  C   LIG    1       -0.108   7.447   1.123  0.00  0.00    +0.010 A 
ATOM     11  C   LIG    1       -0.734   6.522   0.313  0.00  0.00    +0.010 A 
ATOM     12  C   LIG    1       -0.142   6.138  -0.891  0.00  0.00    -0.020 A 
ATOM     13  C   LIG    1        1.085   6.690  -1.265  0.00  0.00    +0.030 A 
ATOM     14  C   LIG    1        1.698   7.618  -0.449  0.00  0.00    +0.020 A 
ENDBRANCH   3  12
ENDBRANCH   2   6
ENDBRANCH   1   2
BRANCH   1  15
ATOM     15  C   LIG    1       -3.002   0.933  -1.573  0.00  0.00    +0.210 C 
BRANCH  15  16
ATOM     16  C   LIG    1       -4.479   0.888  -1.175  0.00  0.00    +0.120 C 
ATOM     17  C   LIG    1       -4.606   0.563   0.329  0.00  0.00    +0.010 C 
ATOM     18  C   LIG    1       -5.782   1.483   0.768  0.00  0.00    +0.010 C 
ATOM     19  C   LIG    1       -5.547   2.711  -0.147  0.00  0.00    +0.190 C 
ATOM     20  O   LIG    1       -5.080   2.169  -1.393  0.00  0.00    -0.370 OA
ENDBRANCH  15  16
ENDBRANCH   1  15
BRANCH   1  21
ATOM     21  C   LIG    1       -3.684   0.113  -3.747  0.00  0.00    +0.230 C 
BRANCH  21  22
ATOM     22  C   LIG    1       -3.092  -1.253  -3.514  0.00  0.00    -0.060 A 
ATOM     23  C   LIG    1       -3.716  -2.140  -2.657  0.00  0.00    +0.020 A 
ATOM     24  C   LIG    1       -3.173  -3.393  -2.444  0.00  0.00    +0.020 A 
ATOM     25  C   LIG    1       -2.007  -3.761  -3.088  0.00  0.00    -0.080 A 
ATOM     26  C   LIG    1       -1.383  -2.875  -3.946  0.00  0.00    +0.030 A 
ATOM     27  C   LIG    1       -1.417  -5.128  -2.856  0.00  0.00    +0.090 C 
ATOM     28  C   LIG    1       -1.928  -1.622  -4.163  0.00  0.00    -0.060 A 
ATOM     29 BR   LIG    1       -1.077  -0.412  -5.342  0.00  0.00    -0.040 Br
ENDBRANCH  21  22
ENDBRANCH   1  21
TORSDOF 7
