REMARK  Name = ZINCpe000000UdAh.0
REMARK                            x       y       z     vdW  Elec       q    Type
REMARK                         _______ _______ _______ _____ _____    ______ ____
ROOT
ATOM      1  C   LIG    1        1.176   1.782   0.000  0.00  0.00    -0.100 A 
ATOM      2  C   LIG    1        1.155   3.164   0.008  0.00  0.00    +0.040 A 
ATOM      3  C   LIG    1       -0.047   3.840   0.022  0.00  0.00    +0.010 A 
ATOM      4  C   LIG    1       -1.251   3.134   0.030  0.00  0.00    +0.160 A 
ATOM      5  C   LIG    1       -1.219   1.749   0.017  0.00  0.00    -0.140 A 
ATOM      6  C   LIG    1       -2.641   1.234   0.033  0.00  0.00    +0.100 C 
ATOM      7  C   LIG    1       -3.511   2.502   0.048  0.00  0.00    +0.260 C 
ATOM      8  N   LIG    1       -2.563   3.619   0.045  0.00  0.00    -0.560 N 
ATOM      9  C   LIG    1       -2.904   4.923   0.054  0.00  0.00    +0.720 C 
ATOM     10  N   LIG    1       -4.204   5.279   0.068  0.00  0.00    -0.740 N 
ATOM     11  H   LIG    1       -4.894   4.596   0.071  0.00  0.00    +0.400 HD
ATOM     12  O   LIG    1       -2.040   5.778   0.051  0.00  0.00    -0.560 OA
ATOM     13  C   LIG    1       -0.013   1.076   0.008  0.00  0.00    +0.050 A 
ENDROOT
BRANCH   1  15
ATOM     14  C   LIG    1        2.923   0.805  -1.464  0.00  0.00    +0.020 C 
ATOM     15  C   LIG    1        2.491   1.046  -0.016  0.00  0.00    +0.060 C 
ENDBRANCH   1  15
BRANCH  10  16
ATOM     16  C   LIG    1       -4.576   6.696   0.079  0.00  0.00    +0.440 C 
BRANCH  16  17
ATOM     17  C   LIG    1       -6.077   6.821   0.094  0.00  0.00    +0.190 A 
ATOM     18  N   LIG    1       -6.844   6.881   1.162  0.00  0.00    -0.270 NA
ATOM     19  N   LIG    1       -8.084   6.987   0.813  0.00  0.00    -0.200 NA
ATOM     20  C   LIG    1       -8.161   6.999  -0.483  0.00  0.00    +0.130 A 
ATOM     21  C   LIG    1       -9.307   7.101  -1.408  0.00  0.00    +0.620 C 
ATOM     22  N   LIG    1       -9.056   6.822  -2.709  0.00  0.00    -0.720 N 
ATOM     23  H   LIG    1       -9.749   6.985  -3.367  0.00  0.00    +0.420 HD
ATOM     24  C   LIG    1       -7.778   6.277  -3.149  0.00  0.00    +0.300 C 
ATOM     25  C   LIG    1       -6.589   6.885  -2.405  0.00  0.00    +0.310 C 
ATOM     26  O   LIG    1      -10.413   7.429  -1.025  0.00  0.00    -0.480 OA
ATOM     27  N   LIG    1       -6.873   6.897  -0.972  0.00  0.00    -0.460 N 
ENDBRANCH  16  17
ENDBRANCH  10  16
TORSDOF 3
