REMARK  Name = ZINCrH000004m15t.0
REMARK                            x       y       z     vdW  Elec       q    Type
REMARK                         _______ _______ _______ _____ _____    ______ ____
ROOT
ATOM      1  N   LIG    1        0.157   5.991  -0.403  0.00  0.00    -0.660 N 
ATOM      2  H   LIG    1        0.021   6.948  -0.322  0.00  0.00    +0.410 HD
ATOM      3  C   LIG    1        0.872   5.497  -1.433  0.00  0.00    +0.560 C 
ATOM      4  O   LIG    1        0.977   4.294  -1.579  0.00  0.00    -0.520 OA
ENDROOT
BRANCH   1   8
ATOM      5  C   LIG    1       -1.473   3.411   2.442  0.00  0.00    +0.090 A 
ATOM      6  C   LIG    1       -1.009   4.660   2.823  0.00  0.00    -0.020 A 
ATOM      7  C   LIG    1       -0.471   5.515   1.880  0.00  0.00    -0.110 A 
ATOM      8  C   LIG    1       -0.389   5.123   0.551  0.00  0.00    +0.150 A 
ATOM      9  C   LIG    1       -0.847   3.869   0.167  0.00  0.00    -0.010 A 
ATOM     10  C   LIG    1        0.027   6.876   2.295  0.00  0.00    +0.090 C 
ATOM     11  C   LIG    1       -1.386   3.012   1.111  0.00  0.00    +0.110 A 
BRANCH   5  13
ATOM     12  C   LIG    1       -2.066   3.047   4.717  0.00  0.00    +0.230 C 
ATOM     13  O   LIG    1       -2.008   2.572   3.370  0.00  0.00    -0.310 OA
ENDBRANCH   5  13
BRANCH  11  14
ATOM     14  O   LIG    1       -1.835   1.784   0.738  0.00  0.00    -0.300 OA
ATOM     15  C   LIG    1       -1.720   1.444  -0.645  0.00  0.00    +0.240 C 
ENDBRANCH  11  14
ENDBRANCH   1   8
BRANCH   3  16
ATOM     16  C   LIG    1        1.527   6.415  -2.384  0.00  0.00    -0.140 A 
ATOM     17  C   LIG    1        1.403   7.798  -2.221  0.00  0.00    +0.060 A 
ATOM     18  C   LIG    1        2.020   8.652  -3.107  0.00  0.00    +0.020 A 
ATOM     19  C   LIG    1        2.757   8.140  -4.170  0.00  0.00    +0.170 A 
ATOM     20  C   LIG    1        2.879   6.764  -4.338  0.00  0.00    +0.000 A 
ATOM     21  C   LIG    1        2.269   5.905  -3.453  0.00  0.00    +0.100 A 
BRANCH  19  22
ATOM     22  N   LIG    1        3.376   9.008  -5.070  0.00  0.00    -0.570 N 
ATOM     23  C   LIG    1        2.906   9.011  -6.449  0.00  0.00    +0.260 C 
ATOM     24  C   LIG    1        3.333  10.297  -7.157  0.00  0.00    +0.030 C 
ATOM     25  C   LIG    1        4.838  10.500  -6.942  0.00  0.00    +0.020 C 
ATOM     26  C   LIG    1        5.078  10.795  -5.459  0.00  0.00    +0.080 C 
ATOM     27  C   LIG    1        4.357   9.787  -4.612  0.00  0.00    +0.520 C 
ATOM     28  O   LIG    1        4.687   9.671  -3.451  0.00  0.00    -0.530 OA
ENDBRANCH  19  22
ENDBRANCH   3  16
TORSDOF 5
