REMARK  Name = ZINCqH0000037euP.1
REMARK                            x       y       z     vdW  Elec       q    Type
REMARK                         _______ _______ _______ _____ _____    ______ ____
ROOT
ATOM      1  N   LIG    1        0.535   2.056   5.173  0.00  0.00    -0.720 N 
ATOM      2  H   LIG    1        1.221   1.845   4.520  0.00  0.00    +0.400 HD
ATOM      3  C   LIG    1        0.757   1.823   6.482  0.00  0.00    +0.570 C 
ATOM      4  O   LIG    1       -0.102   2.088   7.300  0.00  0.00    -0.530 OA
ENDROOT
BRANCH   3   5
ATOM      5  C   LIG    1        2.045   1.246   6.923  0.00  0.00    -0.190 A 
ATOM      6  C   LIG    1        2.288   1.000   8.279  0.00  0.00    +0.140 A 
ATOM      7  C   LIG    1        3.509   0.458   8.639  0.00  0.00    -0.030 A 
ATOM      8  C   LIG    1        4.442   0.180   7.657  0.00  0.00    +0.160 A 
ATOM      9  N   LIG    1        4.186   0.423   6.385  0.00  0.00    -0.470 NA
ATOM     10  C   LIG    1        3.037   0.932   5.993  0.00  0.00    +0.300 A 
BRANCH   8  11
ATOM     11  C   LIG    1        5.774  -0.410   8.045  0.00  0.00    +0.260 C 
BRANCH  11  12
ATOM     12  N   LIG    1        5.717  -1.872   7.917  0.00  0.00    -0.540 NA
ATOM     13  C   LIG    1        4.781  -2.450   8.892  0.00  0.00    +0.190 C 
ATOM     14  C   LIG    1        7.053  -2.465   8.056  0.00  0.00    +0.190 C 
ENDBRANCH  11  12
ENDBRANCH   8  11
ENDBRANCH   3   5
BRANCH   1  16
ATOM     15  C   LIG    1       -0.681   4.152   4.847  0.00  0.00    +0.030 C 
ATOM     16  C   LIG    1       -0.741   2.628   4.737  0.00  0.00    +0.320 C 
BRANCH  16  17
ATOM     17  C   LIG    1       -1.002   2.237   3.305  0.00  0.00    -0.180 A 
ATOM     18  C   LIG    1       -0.091   1.823   2.411  0.00  0.00    +0.230 A 
ATOM     19  N   LIG    1       -0.698   1.558   1.213  0.00  0.00    -0.480 N 
ATOM     20  C   LIG    1       -2.049   1.808   1.308  0.00  0.00    +0.110 A 
ATOM     21  C   LIG    1       -3.108   1.701   0.413  0.00  0.00    +0.010 A 
ATOM     22  C   LIG    1       -4.384   2.028   0.819  0.00  0.00    -0.010 A 
ATOM     23  C   LIG    1       -4.625   2.458   2.118  0.00  0.00    +0.000 A 
ATOM     24  C   LIG    1       -3.600   2.565   3.015  0.00  0.00    +0.080 A 
ATOM     25 CL   LIG    1       -5.703   1.900  -0.302  0.00  0.00    -0.070 Cl
ATOM     26  C   LIG    1       -0.013   1.086   0.008  0.00  0.00    +0.310 C 
ATOM     27  C   LIG    1       -2.300   2.239   2.624  0.00  0.00    -0.090 A 
ENDBRANCH  16  17
ENDBRANCH   1  16
TORSDOF 5
