REMARK  Name = ZINCqH0000007EUP.0
REMARK                            x       y       z     vdW  Elec       q    Type
REMARK                         _______ _______ _______ _____ _____    ______ ____
ROOT
ATOM      1  C   LIG    1        0.058  -4.145  -0.022  0.00  0.00    +0.510 C 
ATOM      2  N   LIG    1        0.036  -2.797  -0.014  0.00  0.00    -0.520 N 
ATOM      3  H   LIG    1       -0.812  -2.326  -0.004  0.00  0.00    +0.420 HD
ATOM      4  O   LIG    1        1.118  -4.734  -0.035  0.00  0.00    -0.510 OA
ENDROOT
BRANCH   1   5
ATOM      5  C   LIG    1       -1.235  -4.919  -0.014  0.00  0.00    +0.190 C 
ATOM      6  C   LIG    1       -2.031  -4.570   1.244  0.00  0.00    +0.050 C 
BRANCH   5   7
ATOM      7  O   LIG    1       -0.951  -6.320  -0.025  0.00  0.00    -0.350 OA
BRANCH   7   8
ATOM      8  C   LIG    1       -1.950  -7.110  -0.673  0.00  0.00    +0.240 C 
BRANCH   8  13
ATOM      9  C   LIG    1       -1.575 -10.689   0.480  0.00  0.00    +0.120 A 
ATOM     10  C   LIG    1       -0.812 -11.229  -0.544  0.00  0.00    -0.070 A 
ATOM     11  C   LIG    1       -0.421 -10.435  -1.605  0.00  0.00    +0.050 A 
ATOM     12  C   LIG    1       -0.794  -9.105  -1.649  0.00  0.00    +0.000 A 
ATOM     13  C   LIG    1       -1.550  -8.562  -0.625  0.00  0.00    -0.050 A 
ATOM     14  C   LIG    1       -1.944  -9.352   0.437  0.00  0.00    +0.000 A 
BRANCH   9  16
ATOM     15  C   LIG    1       -1.546 -12.835   1.503  0.00  0.00    +0.250 C 
ATOM     16  O   LIG    1       -1.961 -11.468   1.525  0.00  0.00    -0.320 OA
ENDBRANCH   9  16
ENDBRANCH   8  13
ENDBRANCH   7   8
ENDBRANCH   5   7
ENDBRANCH   1   5
BRANCH   2  17
ATOM     17  N   LIG    1        1.238  -2.077  -0.021  0.00  0.00    -0.530 N 
ATOM     18  H   LIG    1        2.085  -2.548  -0.032  0.00  0.00    +0.440 HD
BRANCH  17  19
ATOM     19  C   LIG    1        1.215  -0.680  -0.013  0.00  0.00    +0.270 A 
ATOM     20  C   LIG    1        0.002  -0.004   0.002  0.00  0.00    -0.070 A 
ATOM     21  C   LIG    1       -0.017   1.377   0.010  0.00  0.00    +0.110 A 
ATOM     22  C   LIG    1        1.170   2.086   0.002  0.00  0.00    -0.040 A 
ATOM     23  C   LIG    1        2.380   1.416  -0.013  0.00  0.00    +0.120 A 
ATOM     24  C   LIG    1        2.406   0.035  -0.021  0.00  0.00    -0.260 A 
BRANCH  24  25
ATOM     25  C   LIG    1        3.724  -0.695  -0.038  0.00  0.00    +0.510 C 
ATOM     26  F   LIG    1        3.802  -1.491  -1.185  0.00  0.00    -0.180 F 
ATOM     27  F   LIG    1        3.824  -1.504   1.099  0.00  0.00    -0.180 F 
ATOM     28  F   LIG    1        4.771   0.234  -0.043  0.00  0.00    -0.170 F 
ENDBRANCH  24  25
ENDBRANCH  17  19
ENDBRANCH   2  17
TORSDOF 8
