REMARK  Name = ZINCrH000004ndwo.0
REMARK                            x       y       z     vdW  Elec       q    Type
REMARK                         _______ _______ _______ _____ _____    ______ ____
ROOT
ATOM      1  C   LIG    1       -0.018   1.503   0.010  0.00  0.00    +0.500 C 
ATOM      2  N   LIG    1       -1.195   2.161   0.019  0.00  0.00    -0.600 N 
ATOM      3  O   LIG    1        1.024   2.123   0.004  0.00  0.00    -0.510 OA
ENDROOT
BRANCH   1   4
ATOM      4  C   LIG    1        0.002  -0.004   0.002  0.00  0.00    +0.330 C 
BRANCH   4  12
ATOM      5  C   LIG    1        4.219  -1.163   2.923  0.00  0.00    +0.100 A 
ATOM      6  C   LIG    1        2.980  -0.705   3.362  0.00  0.00    -0.050 A 
ATOM      7  C   LIG    1        1.970  -0.446   2.462  0.00  0.00    +0.030 A 
ATOM      8  C   LIG    1        2.183  -0.640   1.102  0.00  0.00    +0.080 A 
ATOM      9  C   LIG    1        3.433  -1.103   0.656  0.00  0.00    -0.070 A 
ATOM     10  C   LIG    1        3.333  -1.201  -0.802  0.00  0.00    -0.050 A 
ATOM     11  C   LIG    1        2.091  -0.818  -1.137  0.00  0.00    +0.240 A 
ATOM     12  N   LIG    1        1.390  -0.473  -0.014  0.00  0.00    -0.470 N 
ATOM     13  C   LIG    1        4.451  -1.363   1.576  0.00  0.00    +0.020 A 
BRANCH   5  15
ATOM     14  C   LIG    1        4.901  -1.187   5.201  0.00  0.00    +0.230 C 
ATOM     15  O   LIG    1        5.206  -1.415   3.824  0.00  0.00    -0.320 OA
ENDBRANCH   5  15
ENDBRANCH   4  12
ENDBRANCH   1   4
BRANCH   2  16
ATOM     16  C   LIG    1       -2.453   1.411   0.021  0.00  0.00    +0.310 C 
BRANCH  16  17
ATOM     17  C   LIG    1       -2.885   1.142   1.464  0.00  0.00    -0.070 C 
ATOM     18  C   LIG    1       -2.948  -0.316   1.923  0.00  0.00    +0.020 C 
ATOM     19  C   LIG    1       -4.241   0.468   1.683  0.00  0.00    +0.030 C 
ENDBRANCH  16  17
ENDBRANCH   2  16
BRANCH   2  20
ATOM     20  C   LIG    1       -1.214   3.626   0.028  0.00  0.00    +0.350 C 
BRANCH  20  21
ATOM     21  C   LIG    1       -1.228   4.136  -1.391  0.00  0.00    -0.170 A 
ATOM     22  C   LIG    1       -2.430   4.357  -2.045  0.00  0.00    +0.070 A 
ATOM     23  C   LIG    1       -2.394   4.827  -3.349  0.00  0.00    -0.040 A 
ATOM     24  C   LIG    1       -1.170   5.058  -3.949  0.00  0.00    +0.130 A 
ATOM     25  N   LIG    1       -0.046   4.835  -3.295  0.00  0.00    -0.490 NA
ATOM     26  C   LIG    1       -1.119   5.569  -5.365  0.00  0.00    +0.130 C 
ATOM     27  C   LIG    1       -0.043   4.394  -2.053  0.00  0.00    +0.290 A 
ENDBRANCH  20  21
ENDBRANCH   2  20
TORSDOF 7
