REMARK  Name = ZINCvU0000000E9U.0
REMARK                            x       y       z     vdW  Elec       q    Type
REMARK                         _______ _______ _______ _____ _____    ______ ____
ROOT
ATOM      1  N   LIG    1        7.858  -1.929   0.933  0.00  0.00    -0.740 N 
ATOM      2  H   LIG    1        7.360  -2.718   1.199  0.00  0.00    +0.410 HD
ENDROOT
BRANCH   1   3
ATOM      3  C   LIG    1        9.123  -1.687   1.472  0.00  0.00    +0.220 A 
ATOM      4  C   LIG    1        9.836  -0.556   1.092  0.00  0.00    -0.060 A 
ATOM      5  C   LIG    1       11.089  -0.313   1.623  0.00  0.00    +0.060 A 
ATOM      6  C   LIG    1       11.640  -1.191   2.534  0.00  0.00    -0.050 A 
ATOM      7  C   LIG    1       10.932  -2.329   2.922  0.00  0.00    +0.030 A 
ATOM      8  C   LIG    1        9.666  -2.572   2.392  0.00  0.00    +0.000 A 
BRANCH   7   9
ATOM      9  C   LIG    1       11.521  -3.272   3.898  0.00  0.00    +0.210 A 
ATOM     10  N   LIG    1       10.874  -4.170   4.610  0.00  0.00    -0.280 NA
ATOM     11  N   LIG    1       11.704  -4.820   5.349  0.00  0.00    -0.290 NA
ATOM     12  C   LIG    1       12.915  -4.380   5.150  0.00  0.00    +0.190 A 
ATOM     13  C   LIG    1       14.183  -4.876   5.796  0.00  0.00    +0.150 C 
ATOM     14  C   LIG    1       15.002  -3.675   6.278  0.00  0.00    +0.030 C 
ATOM     15  C   LIG    1       15.913  -3.193   5.153  0.00  0.00    +0.020 C 
ATOM     16  C   LIG    1       15.243  -3.394   3.795  0.00  0.00    +0.030 C 
ATOM     17  C   LIG    1       13.952  -2.573   3.729  0.00  0.00    +0.290 C 
ATOM     18  N   LIG    1       12.840  -3.381   4.230  0.00  0.00    -0.470 N 
ENDBRANCH   7   9
ENDBRANCH   1   3
BRANCH   1  19
ATOM     19  C   LIG    1        7.282  -0.991  -0.034  0.00  0.00    +0.370 C 
ATOM     20  C   LIG    1        7.784  -1.333  -1.438  0.00  0.00    +0.060 C 
BRANCH  19  24
ATOM     21  C   LIG    1        3.679  -0.608   0.048  0.00  0.00    +0.220 A 
ATOM     22  N   LIG    1        3.828  -1.912   0.054  0.00  0.00    -0.270 NA
ATOM     23  N   LIG    1        5.083  -2.196   0.020  0.00  0.00    -0.270 NA
ATOM     24  C   LIG    1        5.779  -1.094   0.001  0.00  0.00    +0.150 A 
ATOM     25  O   LIG    1        4.913  -0.065   0.018  0.00  0.00    -0.210 OA
BRANCH  21  30
ATOM     26  C   LIG    1       -1.309   2.259   0.147  0.00  0.00    +0.100 C 
ATOM     27  C   LIG    1       -0.002   1.508   0.126  0.00  0.00    -0.050 A 
ATOM     28  C   LIG    1        1.192   2.206   0.096  0.00  0.00    +0.010 A 
ATOM     29  C   LIG    1        2.392   1.524   0.071  0.00  0.00    +0.050 A 
ATOM     30  C   LIG    1        2.398   0.129   0.074  0.00  0.00    -0.040 A 
ATOM     31  C   LIG    1        1.189  -0.568   0.104  0.00  0.00    +0.080 A 
ATOM     32  C   LIG    1       -0.003   0.125   0.130  0.00  0.00    +0.020 A 
ENDBRANCH  21  30
ENDBRANCH  19  24
ENDBRANCH   1  19
TORSDOF 5
