REMARK  Name = ZINCkj000005lNgC.0
REMARK                            x       y       z     vdW  Elec       q    Type
REMARK                         _______ _______ _______ _____ _____    ______ ____
ROOT
ATOM      1  O   LIG    1       -1.083   1.565  -3.601  0.00  0.00    -0.490 OA
ATOM      2  C   LIG    1       -1.414   2.735  -3.602  0.00  0.00    +0.570 C 
ATOM      3  N   LIG    1       -1.758   3.337  -4.758  0.00  0.00    -0.760 N 
ATOM      4  H   LIG    1       -2.022   4.270  -4.759  0.00  0.00    +0.390 HD
ENDROOT
BRANCH   2   5
ATOM      5  C   LIG    1       -1.438   3.496  -2.338  0.00  0.00    -0.150 A 
ATOM      6  C   LIG    1       -1.817   4.841  -2.337  0.00  0.00    +0.040 A 
ATOM      7  C   LIG    1       -1.837   5.549  -1.154  0.00  0.00    +0.020 A 
ATOM      8  C   LIG    1       -1.484   4.934   0.034  0.00  0.00    +0.070 A 
ATOM      9  C   LIG    1       -1.104   3.600   0.049  0.00  0.00    +0.050 A 
ATOM     10  O   LIG    1       -0.757   3.018   1.230  0.00  0.00    -0.300 OA
ATOM     11  C   LIG    1       -0.743   1.587   1.262  0.00  0.00    +0.230 C 
ATOM     12  C   LIG    1       -0.013   1.086   0.008  0.00  0.00    +0.220 C 
ATOM     13  O   LIG    1       -0.716   1.565  -1.143  0.00  0.00    -0.270 OA
ATOM     14  C   LIG    1       -1.081   2.874  -1.135  0.00  0.00    +0.120 A 
ENDBRANCH   2   5
BRANCH   3  15
ATOM     15  C   LIG    1       -1.734   2.581  -6.013  0.00  0.00    +0.320 C 
BRANCH  15  16
ATOM     16  C   LIG    1       -2.165   3.492  -7.165  0.00  0.00    +0.170 C 
ATOM     17  C   LIG    1       -2.022   2.739  -8.489  0.00  0.00    +0.070 C 
ATOM     18  C   LIG    1       -2.454   3.654  -9.639  0.00  0.00    +0.040 C 
ATOM     19  C   LIG    1       -1.614   4.933  -9.604  0.00  0.00    +0.050 C 
ATOM     20  C   LIG    1       -1.772   5.604  -8.238  0.00  0.00    +0.260 C 
ATOM     21  N   LIG    1       -1.317   4.689  -7.185  0.00  0.00    -0.510 N 
ATOM     22  H   LIG    1       -0.361   4.421  -7.363  0.00  0.00    +0.430 HD
ATOM     23  H   LIG    1       -1.372   5.154  -6.291  0.00  0.00    +0.420 HD
ENDBRANCH  15  16
ENDBRANCH   3  15
TORSDOF 3
