REMARK  Name = ZINCpe000000YUwf.0
REMARK                            x       y       z     vdW  Elec       q    Type
REMARK                         _______ _______ _______ _____ _____    ______ ____
ROOT
ATOM      1  O   LIG    1        1.801  -1.850   3.021  0.00  0.00    -0.510 OA
ATOM      2  C   LIG    1        1.352  -2.639   2.217  0.00  0.00    +0.510 C 
ATOM      3  N   LIG    1        1.496  -3.964   2.421  0.00  0.00    -0.660 N 
ATOM      4  H   LIG    1        1.069  -4.596   1.822  0.00  0.00    +0.430 HD
ENDROOT
BRANCH   3   5
ATOM      5  C   LIG    1        2.258  -4.425   3.492  0.00  0.00    +0.210 A 
ATOM      6  C   LIG    1        3.267  -3.629   4.030  0.00  0.00    +0.050 A 
ATOM      7  C   LIG    1        4.024  -4.082   5.092  0.00  0.00    +0.080 A 
ATOM      8  C   LIG    1        3.794  -5.334   5.641  0.00  0.00    +0.070 A 
ATOM      9  C   LIG    1        2.794  -6.141   5.121  0.00  0.00    -0.090 A 
ATOM     10  C   LIG    1        2.515  -7.484   5.675  0.00  0.00    +0.570 A 
ATOM     11  O   LIG    1        3.165  -7.908   6.610  0.00  0.00    -0.500 OA
ATOM     12  N   LIG    1        1.533  -8.232   5.135  0.00  0.00    -0.510 N 
ATOM     13  H   LIG    1        1.355  -9.112   5.504  0.00  0.00    +0.430 HD
ATOM     14  N   LIG    1        0.765  -7.780   4.062  0.00  0.00    -0.500 N 
ATOM     15  H   LIG    1        0.069  -8.354   3.706  0.00  0.00    +0.430 HD
ATOM     16  C   LIG    1        0.961  -6.569   3.504  0.00  0.00    +0.570 A 
ATOM     17  O   LIG    1        0.273  -6.207   2.569  0.00  0.00    -0.520 OA
ATOM     18  C   LIG    1        2.014  -5.684   4.039  0.00  0.00    -0.150 A 
ENDBRANCH   3   5
BRANCH   2  19
ATOM     19  C   LIG    1        0.633  -2.140   0.991  0.00  0.00    +0.320 C 
BRANCH  19  20
ATOM     20  N   LIG    1        0.609  -0.675   1.001  0.00  0.00    -0.720 N 
ATOM     21  H   LIG    1        1.022  -0.189   1.732  0.00  0.00    +0.410 HD
ATOM     22  C   LIG    1        0.014  -0.004  -0.005  0.00  0.00    +0.520 C 
ATOM     23  O   LIG    1       -0.502  -0.612  -0.918  0.00  0.00    -0.530 OA
BRANCH  22  24
ATOM     24  C   LIG    1       -0.010   1.503   0.006  0.00  0.00    +0.000 C 
ATOM     25  C   LIG    1       -0.738   1.993   1.259  0.00  0.00    +0.030 C 
ATOM     26  C   LIG    1       -0.762   3.523   1.270  0.00  0.00    +0.020 C 
ATOM     27  C   LIG    1       -1.492   4.030   0.025  0.00  0.00    +0.000 C 
ATOM     28  C   LIG    1       -0.764   3.540  -1.229  0.00  0.00    +0.010 C 
ATOM     29  C   LIG    1       -0.740   2.010  -1.239  0.00  0.00    +0.040 C 
ENDBRANCH  22  24
ENDBRANCH  19  20
ENDBRANCH   2  19
TORSDOF 4
