REMARK  Name = ZINCtV00000tRSTV.0
REMARK                            x       y       z     vdW  Elec       q    Type
REMARK                         _______ _______ _______ _____ _____    ______ ____
ROOT
ATOM      1  C   LIG    1        1.679  -3.250  -0.032  0.00  0.00    +0.320 C 
ATOM      2  C   LIG    1        2.241  -3.476  -1.449  0.00  0.00    +0.100 C 
ATOM      3  C   LIG    1        3.733  -3.291  -1.283  0.00  0.00    +0.110 C 
ATOM      4  N   LIG    1        3.998  -3.018  -0.052  0.00  0.00    -0.220 NA
ATOM      5  N   LIG    1        2.876  -2.968   0.777  0.00  0.00    -0.470 N 
ENDROOT
BRANCH   3   6
ATOM      6  C   LIG    1        4.730  -3.405  -2.363  0.00  0.00    -0.030 A 
ATOM      7  C   LIG    1        4.323  -3.712  -3.664  0.00  0.00    +0.040 A 
ATOM      8  C   LIG    1        5.261  -3.812  -4.671  0.00  0.00    +0.010 A 
ATOM      9  C   LIG    1        6.602  -3.619  -4.393  0.00  0.00    +0.020 A 
ATOM     10  C   LIG    1        7.013  -3.321  -3.106  0.00  0.00    +0.010 A 
ATOM     11  C   LIG    1        6.086  -3.212  -2.090  0.00  0.00    +0.050 A 
ENDBRANCH   3   6
BRANCH   5  12
ATOM     12  C   LIG    1        2.884  -2.696   2.146  0.00  0.00    +0.230 A 
ATOM     13  C   LIG    1        1.691  -2.669   2.858  0.00  0.00    -0.050 A 
ATOM     14  C   LIG    1        1.704  -2.403   4.213  0.00  0.00    +0.040 A 
ATOM     15  C   LIG    1        2.901  -2.154   4.860  0.00  0.00    -0.040 A 
ATOM     16  C   LIG    1        4.090  -2.175   4.153  0.00  0.00    +0.050 A 
ATOM     17  C   LIG    1        4.085  -2.445   2.799  0.00  0.00    -0.030 A 
ENDBRANCH   5  12
BRANCH   1  21
ATOM     18  C   LIG    1        0.002  -0.004   0.002  0.00  0.00    +0.030 A 
ATOM     19  C   LIG    1       -1.088  -0.817   0.013  0.00  0.00    -0.020 A 
ATOM     20  C   LIG    1       -0.607  -2.141  -0.004  0.00  0.00    -0.030 A 
ATOM     21  C   LIG    1        0.739  -2.072  -0.016  0.00  0.00    -0.020 A 
ATOM     22  O   LIG    1        1.103  -0.779  -0.012  0.00  0.00    -0.150 OA
BRANCH  18  27
ATOM     23 CL   LIG    1       -0.079   5.979   0.035  0.00  0.00    -0.060 Cl
ATOM     24  C   LIG    1       -0.056   4.243   0.025  0.00  0.00    -0.030 A 
ATOM     25  C   LIG    1        1.155   3.570   0.010  0.00  0.00    +0.030 A 
ATOM     26  C   LIG    1        1.180   2.191   0.003  0.00  0.00    +0.050 A 
ATOM     27  C   LIG    1       -0.018   1.474   0.010  0.00  0.00    -0.010 A 
ATOM     28  C   LIG    1       -1.235   2.158   0.020  0.00  0.00    +0.060 A 
ATOM     29  C   LIG    1       -1.247   3.537   0.033  0.00  0.00    +0.030 A 
ENDBRANCH  18  27
ENDBRANCH   1  21
TORSDOF 4
