REMARK  Name = ZINCrg000000qIZ6.0
REMARK                            x       y       z     vdW  Elec       q    Type
REMARK                         _______ _______ _______ _____ _____    ______ ____
ROOT
ATOM      1  C   LIG    1       -2.046  -0.656   1.149  0.00  0.00    +0.510 C 
ATOM      2  N   LIG    1       -1.372  -0.512  -0.009  0.00  0.00    -0.720 N 
ATOM      3  H   LIG    1       -1.797  -0.744  -0.849  0.00  0.00    +0.410 HD
ATOM      4  O   LIG    1       -1.515  -0.366   2.200  0.00  0.00    -0.530 OA
ENDROOT
BRANCH   2   5
ATOM      5  C   LIG    1        0.002  -0.004   0.002  0.00  0.00    +0.250 C 
ATOM      6  C   LIG    1        0.738  -0.493  -1.249  0.00  0.00    +0.020 C 
ATOM      7  C   LIG    1        2.153   0.091  -1.260  0.00  0.00    +0.060 C 
ATOM      8  C   LIG    1        2.070   1.619  -1.215  0.00  0.00    +0.210 C 
ATOM      9  N   LIG    1        1.359   2.036   0.000  0.00  0.00    -0.460 N 
ATOM     10  C   LIG    1       -0.019   1.526   0.010  0.00  0.00    +0.200 C 
BRANCH   9  11
ATOM     11  C   LIG    1        1.379   3.413   0.139  0.00  0.00    +0.490 A 
ATOM     12  N   LIG    1        0.233   4.068   0.251  0.00  0.00    -0.550 NA
ATOM     13  C   LIG    1        0.218   5.384   0.391  0.00  0.00    +0.340 A 
ATOM     14  C   LIG    1        1.419   6.076   0.407  0.00  0.00    -0.110 A 
ATOM     15  C   LIG    1        2.598   5.359   0.281  0.00  0.00    +0.350 A 
ATOM     16  N   LIG    1        2.544   4.044   0.150  0.00  0.00    -0.530 NA
ENDBRANCH   9  11
ENDBRANCH   2   5
BRANCH   1  17
ATOM     17  C   LIG    1       -3.460  -1.179   1.138  0.00  0.00    +0.300 C 
BRANCH  17  19
ATOM     18  C   LIG    1       -5.219  -1.683   2.747  0.00  0.00    +0.570 C 
ATOM     19  N   LIG    1       -3.967  -1.243   2.511  0.00  0.00    -0.720 N 
ATOM     20  H   LIG    1       -3.403  -0.968   3.250  0.00  0.00    +0.410 HD
ATOM     21  O   LIG    1       -5.927  -2.027   1.820  0.00  0.00    -0.540 OA
BRANCH  18  25
ATOM     22  C   LIG    1       -6.691  -1.869   6.726  0.00  0.00    +0.160 A 
ATOM     23  C   LIG    1       -7.502  -2.263   5.668  0.00  0.00    -0.020 A 
ATOM     24  C   LIG    1       -7.028  -2.204   4.376  0.00  0.00    +0.130 A 
ATOM     25  C   LIG    1       -5.731  -1.748   4.130  0.00  0.00    -0.180 A 
ATOM     26  C   LIG    1       -4.917  -1.358   5.196  0.00  0.00    +0.090 A 
ATOM     27  C   LIG    1       -5.400  -1.415   6.485  0.00  0.00    -0.080 A 
BRANCH  22  29
ATOM     28  C   LIG    1       -6.276  -1.508   9.037  0.00  0.00    +0.240 C 
ATOM     29  O   LIG    1       -7.162  -1.928   7.997  0.00  0.00    -0.310 OA
ENDBRANCH  22  29
ENDBRANCH  18  25
ENDBRANCH  17  19
ENDBRANCH   1  17
TORSDOF 6
