REMARK  Name = ZINCpk00000eaExO.0
REMARK                            x       y       z     vdW  Elec       q    Type
REMARK                         _______ _______ _______ _____ _____    ______ ____
ROOT
ATOM      1  C   LIG    1        0.305   8.285  -0.319  0.00  0.00    +0.520 C 
ATOM      2  N   LIG    1        1.456   7.596  -0.188  0.00  0.00    -0.680 N 
ATOM      3  H   LIG    1        2.300   8.070  -0.123  0.00  0.00    +0.410 HD
ATOM      4  O   LIG    1       -0.757   7.700  -0.304  0.00  0.00    -0.500 OA
ENDROOT
BRANCH   2   5
ATOM      5  C   LIG    1        1.433   6.196  -0.147  0.00  0.00    +0.130 A 
ATOM      6  C   LIG    1        0.483   5.495  -0.878  0.00  0.00    +0.050 A 
ATOM      7  C   LIG    1        0.460   4.115  -0.836  0.00  0.00    +0.010 A 
ATOM      8  C   LIG    1        1.387   3.428  -0.063  0.00  0.00    +0.090 A 
ATOM      9  C   LIG    1        2.333   4.129   0.673  0.00  0.00    -0.020 A 
ATOM     10  C   LIG    1        2.360   5.509   0.626  0.00  0.00    +0.010 A 
BRANCH   8  11
ATOM     11  N   LIG    1        1.364   2.030  -0.021  0.00  0.00    -0.490 N 
ATOM     12  C   LIG    1        2.426   1.511   0.853  0.00  0.00    +0.160 C 
ATOM     13  C   LIG    1        2.327  -0.015   0.917  0.00  0.00    +0.220 C 
ATOM     14  O   LIG    1        2.407  -0.549  -0.407  0.00  0.00    -0.380 OA
ATOM     15  C   LIG    1        1.387  -0.066  -1.285  0.00  0.00    +0.220 C 
ATOM     16  C   LIG    1        1.476   1.460  -1.372  0.00  0.00    +0.160 C 
ENDBRANCH   8  11
ENDBRANCH   2   5
BRANCH   1  18
ATOM     17  C   LIG    1        1.128  10.140  -1.744  0.00  0.00    +0.030 C 
ATOM     18  C   LIG    1        0.338   9.783  -0.484  0.00  0.00    +0.180 C 
BRANCH  18  19
ATOM     19  N   LIG    1       -1.034  10.293  -0.605  0.00  0.00    -0.660 NA
ATOM     20  H   LIG    1       -1.381  10.179  -1.546  0.00  0.00    +0.360 HD
BRANCH  19  21
ATOM     21  C   LIG    1       -1.114  11.697  -0.180  0.00  0.00    +0.280 C 
BRANCH  21  22
ATOM     22  C   LIG    1       -2.533  12.184  -0.318  0.00  0.00    +0.070 A 
ATOM     23  C   LIG    1       -3.389  12.146   0.771  0.00  0.00    +0.050 A 
ATOM     24  C   LIG    1       -4.687  12.611   0.596  0.00  0.00    +0.030 A 
ATOM     25  C   LIG    1       -5.048  13.074  -0.659  0.00  0.00    +0.210 A 
ATOM     26  N   LIG    1       -4.166  13.067  -1.641  0.00  0.00    -0.240 NA
ATOM     27  N   LIG    1       -2.965  12.642  -1.478  0.00  0.00    -0.240 NA
ENDBRANCH  21  22
ENDBRANCH  19  21
ENDBRANCH  18  19
ENDBRANCH   1  18
TORSDOF 6
