REMARK  Name = ZINC5d0000002omv.0
REMARK                            x       y       z     vdW  Elec       q    Type
REMARK                         _______ _______ _______ _____ _____    ______ ____
ROOT
ATOM      1  C   LIG    1       -2.164   1.050   1.278  0.00  0.00    +0.170 C 
ATOM      2  C   LIG    1       -2.841   1.438   2.594  0.00  0.00    +0.080 C 
ENDROOT
BRANCH   1   3
ATOM      3  N   LIG    1       -2.909   1.631   0.153  0.00  0.00    -0.640 N 
ATOM      4  H   LIG    1       -2.463   1.375  -0.715  0.00  0.00    +0.430 HD
ATOM      5  H   LIG    1       -2.921   2.637   0.242  0.00  0.00    +0.430 HD
ATOM      6  H   LIG    1       -3.856   1.282   0.161  0.00  0.00    +0.440 HD
ENDBRANCH   1   3
BRANCH   1   8
ATOM      7  C   LIG    1       -0.013   1.086   0.008  0.00  0.00    +0.020 C 
ATOM      8  C   LIG    1       -0.729   1.579   1.267  0.00  0.00    +0.050 C 
ENDBRANCH   1   8
TORSDOF 2
