REMARK  Name = ZINCpe000000ZkUm.0
REMARK                            x       y       z     vdW  Elec       q    Type
REMARK                         _______ _______ _______ _____ _____    ______ ____
ROOT
ATOM      1  C   LIG    1       -1.322  -0.841   0.305  0.00  0.00    +0.240 C 
ATOM      2  C   LIG    1       -2.103  -0.135  -0.808  0.00  0.00    +0.040 C 
ATOM      3  C   LIG    1       -3.330  -0.974  -1.175  0.00  0.00    +0.020 C 
ATOM      4  C   LIG    1       -2.881  -2.344  -1.690  0.00  0.00    +0.010 C 
ATOM      5  C   LIG    1       -2.110  -3.073  -0.586  0.00  0.00    +0.290 C 
ATOM      6  N   LIG    1       -1.012  -2.211  -0.128  0.00  0.00    -0.980 NA
ENDROOT
BRANCH   1   8
ATOM      7  O   LIG    1        0.723   0.147  -0.336  0.00  0.00    -0.540 OA
ATOM      8  C   LIG    1       -0.041  -0.094   0.574  0.00  0.00    +0.530 C 
ATOM      9  N   LIG    1        0.256   0.304   1.827  0.00  0.00    -0.700 N 
ATOM     10  H   LIG    1       -0.357   0.115   2.554  0.00  0.00    +0.400 HD
BRANCH   9  11
ATOM     11  CA  LIG    1        1.501   1.030   2.089  0.00  0.00    +0.260 C 
BRANCH  11  12
ATOM     12  C   LIG    1        1.338   1.885   3.348  0.00  0.00    +0.040 C 
BRANCH  12  13
ATOM     13  C   LIG    1        0.285   2.965   3.098  0.00  0.00    +0.160 C 
BRANCH  13  14
ATOM     14  O   LIG    1        0.133   3.763   4.274  0.00  0.00    -0.570 OA
ATOM     15  H   LIG    1       -0.521   4.470   4.188  0.00  0.00    +0.380 HD
ENDBRANCH  13  14
ENDBRANCH  12  13
ENDBRANCH  11  12
BRANCH  11  16
ATOM     16  C   LIG    1        2.641   0.031   2.295  0.00  0.00    +0.190 C 
BRANCH  16  17
ATOM     17  O   LIG    1        2.394  -0.736   3.475  0.00  0.00    -0.570 OA
ATOM     18  H   LIG    1        3.079  -1.392   3.668  0.00  0.00    +0.380 HD
ENDBRANCH  16  17
ENDBRANCH  11  16
ENDBRANCH   9  11
ENDBRANCH   1   8
BRANCH   6  19
ATOM     19  S   LIG    1        0.546  -2.772  -0.100  0.00  0.00    +2.680 S 
ATOM     20  O   LIG    1        0.466  -4.162   0.183  0.00  0.00    -0.950 OA
ATOM     21  O   LIG    1        1.288  -1.858   0.696  0.00  0.00    -0.920 OA
BRANCH  19  22
ATOM     22  C   LIG    1        1.180  -2.634  -1.738  0.00  0.00    -0.670 A 
ATOM     23  C   LIG    1        1.040  -3.685  -2.624  0.00  0.00    +0.120 A 
ATOM     24  C   LIG    1        1.532  -3.575  -3.911  0.00  0.00    +0.020 A 
ATOM     25  C   LIG    1        2.175  -2.417  -4.309  0.00  0.00    -0.040 A 
ATOM     26  C   LIG    1        2.319  -1.367  -3.420  0.00  0.00    +0.020 A 
ATOM     27 BR   LIG    1        2.855  -2.268  -6.067  0.00  0.00    -0.040 Br
ATOM     28  C   LIG    1        1.822  -1.476  -2.135  0.00  0.00    +0.180 A 
ENDBRANCH  19  22
ENDBRANCH   6  19
TORSDOF 9
