REMARK  Name = ZINCrH000004k5U9.0
REMARK                            x       y       z     vdW  Elec       q    Type
REMARK                         _______ _______ _______ _____ _____    ______ ____
ROOT
ATOM      1  C   LIG    1        5.044   5.355   3.271  0.00  0.00    +0.220 C 
ATOM      2  N   LIG    1        3.887   4.454   3.362  0.00  0.00    -0.490 N 
ATOM      3  C   LIG    1        3.302   4.487   4.702  0.00  0.00    +0.200 C 
ATOM      4  C   LIG    1        2.699   3.139   5.079  0.00  0.00    +0.030 C 
ATOM      5  C   LIG    1        1.457   2.802   4.284  0.00  0.00    +0.280 C 
ATOM      6  N   LIG    1        1.792   2.684   2.854  0.00  0.00    -0.560 N 
ATOM      7  C   LIG    1        1.903   3.868   2.113  0.00  0.00    +0.150 A 
ATOM      8  C   LIG    1        0.977   4.151   1.114  0.00  0.00    +0.060 A 
ATOM      9  C   LIG    1        1.072   5.339   0.409  0.00  0.00    -0.040 A 
ATOM     10  C   LIG    1        2.079   6.243   0.696  0.00  0.00    +0.050 A 
ATOM     11  C   LIG    1        3.008   5.959   1.681  0.00  0.00    +0.000 A 
ATOM     12 CL   LIG    1       -0.079   5.695  -0.841  0.00  0.00    -0.060 Cl
ATOM     13  C   LIG    1        1.991   1.480   2.281  0.00  0.00    +0.530 C 
ATOM     14  O   LIG    1        2.359   1.412   1.127  0.00  0.00    -0.500 OA
ATOM     15  C   LIG    1        2.924   4.766   2.380  0.00  0.00    +0.110 A 
ENDROOT
BRANCH  13  16
ATOM     16  C   LIG    1        1.755   0.220   3.073  0.00  0.00    +0.060 C 
ATOM     17  C   LIG    1        3.059  -0.209   3.746  0.00  0.00    +0.110 C 
ATOM     18  C   LIG    1        4.020  -0.734   2.713  0.00  0.00    +0.530 C 
ATOM     19  N   LIG    1        3.576  -1.424   1.647  0.00  0.00    -0.660 N 
ATOM     20  H   LIG    1        4.209  -1.766   0.996  0.00  0.00    +0.420 HD
ATOM     21  C   LIG    1        2.208  -1.653   1.471  0.00  0.00    +0.220 A 
ATOM     22  C   LIG    1        1.773  -2.660   0.620  0.00  0.00    -0.050 A 
ATOM     23  C   LIG    1        0.417  -2.881   0.451  0.00  0.00    +0.140 A 
ATOM     24  C   LIG    1       -0.503  -2.099   1.130  0.00  0.00    -0.040 A 
ATOM     25  C   LIG    1       -0.070  -1.096   1.977  0.00  0.00    +0.100 A 
ATOM     26  F   LIG    1       -0.009  -3.860  -0.377  0.00  0.00    -0.130 F 
ATOM     27  O   LIG    1        5.210  -0.535   2.845  0.00  0.00    -0.510 OA
ATOM     28  C   LIG    1        1.281  -0.872   2.150  0.00  0.00    -0.130 A 
ENDBRANCH  13  16
TORSDOF 1
