REMARK  Name = ZINCvU00000009yV.0
REMARK                            x       y       z     vdW  Elec       q    Type
REMARK                         _______ _______ _______ _____ _____    ______ ____
ROOT
ATOM      1  C   LIG    1       -0.980   2.772   4.766  0.00  0.00    +0.290 A 
ATOM      2  N   LIG    1       -1.232   1.597   5.265  0.00  0.00    -0.480 NA
ATOM      3  C   LIG    1       -1.092   1.636   6.615  0.00  0.00    +0.050 A 
ATOM      4  C   LIG    1       -1.238   0.683   7.627  0.00  0.00    +0.070 A 
ATOM      5  C   LIG    1       -1.022   1.035   8.930  0.00  0.00    +0.000 A 
ATOM      6  C   LIG    1       -0.658   2.332   9.261  0.00  0.00    +0.030 A 
ATOM      7  C   LIG    1       -0.507   3.288   8.280  0.00  0.00    +0.010 A 
ATOM      8  C   LIG    1       -0.722   2.950   6.951  0.00  0.00    +0.060 A 
ATOM      9  N   LIG    1       -0.655   3.643   5.759  0.00  0.00    -0.480 N 
ENDROOT
BRANCH   1  13
ATOM     10  O   LIG    1       -2.812   2.066   0.382  0.00  0.00    -0.520 OA
ATOM     11  C   LIG    1       -2.025   2.215   1.292  0.00  0.00    +0.530 C 
ATOM     12  C   LIG    1       -2.386   2.696   2.680  0.00  0.00    +0.090 C 
ATOM     13  C   LIG    1       -1.033   3.115   3.299  0.00  0.00    +0.090 C 
ATOM     14  C   LIG    1       -0.037   2.253   2.493  0.00  0.00    +0.300 C 
ATOM     15  N   LIG    1       -0.704   1.975   1.216  0.00  0.00    -0.610 N 
BRANCH  15  16
ATOM     16  C   LIG    1       -0.018   1.503   0.010  0.00  0.00    +0.360 C 
BRANCH  16  17
ATOM     17  C   LIG    1        0.002  -0.004   0.002  0.00  0.00    -0.130 A 
ATOM     18  C   LIG    1        1.057  -0.684   0.582  0.00  0.00    +0.060 A 
ATOM     19  C   LIG    1        1.074  -2.066   0.579  0.00  0.00    -0.020 A 
ATOM     20  C   LIG    1        0.040  -2.769  -0.014  0.00  0.00    +0.110 A 
ATOM     21  C   LIG    1       -1.013  -2.087  -0.599  0.00  0.00    -0.020 A 
ATOM     22  F   LIG    1        0.058  -4.120  -0.021  0.00  0.00    -0.140 F 
ATOM     23  C   LIG    1       -1.031  -0.706  -0.591  0.00  0.00    +0.070 A 
ENDBRANCH  16  17
ENDBRANCH  15  16
ENDBRANCH   1  13
BRANCH   9  24
ATOM     24  C   LIG    1       -0.302   5.055   5.594  0.00  0.00    +0.360 C 
BRANCH  24  25
ATOM     25  C   LIG    1       -1.549   5.897   5.672  0.00  0.00    -0.110 A 
ATOM     26  C   LIG    1       -2.260   6.186   4.522  0.00  0.00    +0.030 A 
ATOM     27  C   LIG    1       -3.408   6.954   4.593  0.00  0.00    +0.040 A 
ATOM     28  C   LIG    1       -3.838   7.443   5.812  0.00  0.00    +0.040 A 
ATOM     29  C   LIG    1       -3.123   7.159   6.962  0.00  0.00    -0.030 A 
ATOM     30 CL   LIG    1       -3.663   7.773   8.494  0.00  0.00    -0.060 Cl
ATOM     31  C   LIG    1       -1.978   6.386   6.891  0.00  0.00    +0.040 A 
ENDBRANCH  24  25
ENDBRANCH   9  24
TORSDOF 5
