REMARK  Name = ZINCqH0000006RPb.0
REMARK                            x       y       z     vdW  Elec       q    Type
REMARK                         _______ _______ _______ _____ _____    ______ ____
ROOT
ATOM      1  N   LIG    1        1.143   1.898   0.001  0.00  0.00    -0.660 N 
ATOM      2  H   LIG    1        1.131   2.866  -0.068  0.00  0.00    +0.420 HD
ATOM      3  C   LIG    1       -0.014   1.209   0.011  0.00  0.00    +0.540 C 
ATOM      4  O   LIG    1        0.002  -0.004   0.013  0.00  0.00    -0.490 OA
ENDROOT
BRANCH   1   7
ATOM      5  C   LIG    1        3.720  -0.697  -0.418  0.00  0.00    +0.180 A 
ATOM      6  C   LIG    1        2.511  -0.024  -0.508  0.00  0.00    -0.040 A 
ATOM      7  C   LIG    1        2.363   1.219   0.092  0.00  0.00    +0.220 A 
ATOM      8  C   LIG    1        3.427   1.790   0.776  0.00  0.00    -0.070 A 
ATOM      9  C   LIG    1        4.634   1.114   0.869  0.00  0.00    +0.180 A 
ATOM     10  C   LIG    1        4.782  -0.128   0.270  0.00  0.00    -0.170 A 
BRANCH   5  12
ATOM     11  C   LIG    1        5.139  -2.550  -0.873  0.00  0.00    +0.250 C 
ATOM     12  O   LIG    1        3.866  -1.914  -1.005  0.00  0.00    -0.310 OA
ENDBRANCH   5  12
BRANCH   9  13
ATOM     13  O   LIG    1        5.675   1.671   1.543  0.00  0.00    -0.310 OA
ATOM     14  C   LIG    1        6.890   0.921   1.594  0.00  0.00    +0.250 C 
ENDBRANCH   9  13
ENDBRANCH   1   7
BRANCH   3  15
ATOM     15  C   LIG    1       -1.330   1.945   0.012  0.00  0.00    +0.000 C 
ATOM     16  C   LIG    1       -1.649   2.415   1.433  0.00  0.00    +0.090 C 
BRANCH  15  17
ATOM     17  S   LIG    1       -2.643   0.836  -0.568  0.00  0.00    +0.090 S 
BRANCH  17  18
ATOM     18  C   LIG    1       -4.051   1.894  -0.640  0.00  0.00    +0.240 A 
ATOM     19  N   LIG    1       -4.051   3.177  -0.320  0.00  0.00    -0.520 NA
ATOM     20  C   LIG    1       -5.298   3.654  -0.503  0.00  0.00    +0.010 A 
ATOM     21  C   LIG    1       -5.899   4.899  -0.339  0.00  0.00    +0.210 A 
ATOM     22  C   LIG    1       -7.255   5.033  -0.624  0.00  0.00    -0.120 A 
ATOM     23  C   LIG    1       -7.977   3.963  -1.056  0.00  0.00    +0.360 A 
ATOM     24  N   LIG    1       -7.410   2.753  -1.219  0.00  0.00    -0.470 N 
ATOM     25  H   LIG    1       -7.950   2.008  -1.528  0.00  0.00    +0.440 HD
ATOM     26 CL   LIG    1       -8.030   6.574  -0.429  0.00  0.00    -0.020 Cl
ATOM     27  C   LIG    1       -6.085   2.563  -0.955  0.00  0.00    +0.250 A 
ATOM     28  N   LIG    1       -5.271   1.515  -1.020  0.00  0.00    -0.530 NA
ENDBRANCH  17  18
ENDBRANCH  15  17
ENDBRANCH   3  15
TORSDOF 6
