REMARK  Name = ZINCpe00000gM8WH.2
REMARK                            x       y       z     vdW  Elec       q    Type
REMARK                         _______ _______ _______ _____ _____    ______ ____
ROOT
ATOM      1  C   LIG    1        4.574   5.646   0.128  0.00  0.00    +0.300 C 
ENDROOT
BRANCH   1   2
ATOM      2  C   LIG    1        4.598   6.064   1.599  0.00  0.00    -0.020 C 
ATOM      3  C   LIG    1        3.370   5.493   2.314  0.00  0.00    +0.020 C 
ATOM      4  C   LIG    1        3.371   5.966   3.770  0.00  0.00    +0.020 C 
ATOM      5  C   LIG    1        3.383   7.496   3.805  0.00  0.00    +0.180 C 
ATOM      6  N   LIG    1        4.577   7.993   3.109  0.00  0.00    -0.540 NA
ATOM      7  C   LIG    1        4.694   9.451   3.241  0.00  0.00    +0.190 C 
ATOM      8  C   LIG    1        4.575   7.591   1.697  0.00  0.00    +0.220 C 
BRANCH   8   9
ATOM      9  C   LIG    1        5.792   8.157   1.012  0.00  0.00    +0.090 A 
ATOM     10  C   LIG    1        5.792   9.024  -0.027  0.00  0.00    -0.120 A 
ATOM     11  C   LIG    1        7.123   9.296  -0.360  0.00  0.00    +0.230 A 
ATOM     12  N   LIG    1        7.894   8.617   0.449  0.00  0.00    -0.300 NA
ATOM     13  N   LIG    1        7.077   7.894   1.328  0.00  0.00    -0.350 N 
ATOM     14  C   LIG    1        7.537   7.007   2.399  0.00  0.00    +0.360 C 
ENDBRANCH   8   9
ENDBRANCH   1   2
BRANCH   1  16
ATOM     15  C   LIG    1        6.042   3.586  -0.073  0.00  0.00    +0.310 C 
ATOM     16  N   LIG    1        4.712   4.190   0.032  0.00  0.00    -0.590 N 
BRANCH  16  17
ATOM     17  C   LIG    1        3.584   3.386   0.039  0.00  0.00    +0.360 A 
ATOM     18  C   LIG    1        3.717   1.996   0.054  0.00  0.00    -0.040 A 
ATOM     19  C   LIG    1        2.564   1.233   0.067  0.00  0.00    +0.140 A 
ATOM     20  C   LIG    1        1.333   1.901   0.055  0.00  0.00    -0.040 A 
ATOM     21  N   LIG    1        1.303   3.228   0.041  0.00  0.00    -0.160 NA
ATOM     22  N   LIG    1        2.374   3.935   0.034  0.00  0.00    -0.300 NA
BRANCH  20  23
ATOM     23  C   LIG    1        0.071   1.131   0.063  0.00  0.00    +0.590 C 
ATOM     24  O   LIG    1        0.101  -0.085   0.075  0.00  0.00    -0.540 OA
ATOM     25  N   LIG    1       -1.112   1.776   0.051  0.00  0.00    -0.840 N 
ATOM     26  H   LIG    1       -1.136   2.745   0.042  0.00  0.00    +0.410 HD
ATOM     27  H   LIG    1       -1.940   1.270   0.053  0.00  0.00    +0.410 HD
ENDBRANCH  20  23
ENDBRANCH  16  17
ENDBRANCH   1  16
TORSDOF 5
