REMARK  Name = ZINCpk00001AZiHf.0
REMARK                            x       y       z     vdW  Elec       q    Type
REMARK                         _______ _______ _______ _____ _____    ______ ____
ROOT
ATOM      1  C   LIG    1       -4.875  -4.695  -0.261  0.00  0.00    +0.300 C 
ATOM      2  N   LIG    1       -4.452  -3.361   0.174  0.00  0.00    -0.620 N 
ATOM      3  C   LIG    1       -4.812  -2.795   1.339  0.00  0.00    +0.520 C 
ATOM      4  C   LIG    1       -4.204  -1.415   1.456  0.00  0.00    +0.050 C 
ATOM      5  C   LIG    1       -3.767  -1.069   0.014  0.00  0.00    +0.270 C 
ATOM      6  O   LIG    1       -5.522  -3.314   2.175  0.00  0.00    -0.510 OA
ATOM      7  C   LIG    1       -3.582  -2.473  -0.604  0.00  0.00    +0.280 C 
ENDROOT
BRANCH   7   8
ATOM      8  C   LIG    1       -4.002  -2.465  -2.051  0.00  0.00    -0.160 A 
ATOM      9  C   LIG    1       -3.053  -2.378  -3.058  0.00  0.00    +0.080 A 
ATOM     10  C   LIG    1       -3.486  -2.374  -4.375  0.00  0.00    -0.030 A 
ATOM     11  C   LIG    1       -4.840  -2.457  -4.639  0.00  0.00    +0.270 A 
ATOM     12  N   LIG    1       -5.715  -2.539  -3.656  0.00  0.00    -0.480 NA
ATOM     13  C   LIG    1       -5.339  -2.550  -2.392  0.00  0.00    +0.270 A 
ENDBRANCH   7   8
BRANCH   5  14
ATOM     14  N   LIG    1       -2.505  -0.325   0.012  0.00  0.00    -0.710 N 
ATOM     15  H   LIG    1       -1.661  -0.802   0.005  0.00  0.00    +0.400 HD
ATOM     16  C   LIG    1       -2.518   1.023   0.019  0.00  0.00    +0.580 C 
ATOM     17  O   LIG    1       -3.577   1.621   0.028  0.00  0.00    -0.520 OA
BRANCH  16  18
ATOM     18  C   LIG    1       -1.247   1.773   0.018  0.00  0.00    -0.170 A 
ATOM     19  C   LIG    1       -1.259   3.138   0.031  0.00  0.00    +0.330 A 
ATOM     20  N   LIG    1       -0.094   3.838   0.024  0.00  0.00    -0.370 N 
ATOM     21  C   LIG    1        0.177   5.181   0.029  0.00  0.00    +0.100 A 
ATOM     22  C   LIG    1        1.520   5.316   0.017  0.00  0.00    +0.230 A 
ATOM     23  N   LIG    1        2.071   4.099   0.005  0.00  0.00    -0.490 NA
ATOM     24  C   LIG    1        1.113   3.186   0.009  0.00  0.00    +0.230 A 
ATOM     25  C   LIG    1        1.150   1.774   0.001  0.00  0.00    +0.090 A 
ATOM     26  C   LIG    1       -0.013   1.076   0.008  0.00  0.00    +0.050 A 
ENDBRANCH  16  18
ENDBRANCH   5  14
TORSDOF 3
