REMARK  Name = ZINCnE000001M5H2.0
REMARK                            x       y       z     vdW  Elec       q    Type
REMARK                         _______ _______ _______ _____ _____    ______ ____
ROOT
ATOM      1  C   UNK A  0        1.196   5.377  -3.421  0.00  0.00    +0.550 C 
ATOM      2  N   PHE A  1        1.159   5.497  -2.079  0.00  0.00    -0.680 N 
ATOM      3  H   PHE A  1        1.961   5.339  -1.556  0.00  0.00    +0.390 HD
ATOM      4  O   UNK A  0        0.191   5.573  -4.076  0.00  0.00    -0.510 OA
ENDROOT
BRANCH   1   9
ATOM      5  C   UNK A  0        4.792   4.433  -3.986  0.00  0.00    -0.090 A 
ATOM      6  C   UNK A  0        4.822   4.311  -5.371  0.00  0.00    +0.020 A 
ATOM      7  C   UNK A  0        3.679   4.535  -6.114  0.00  0.00    +0.040 A 
ATOM      8  C   UNK A  0        2.498   4.881  -5.487  0.00  0.00    +0.010 A 
ATOM      9  C   UNK A  0        2.458   5.006  -4.096  0.00  0.00    -0.090 A 
ATOM     10 CL   UNK A  0        1.066   5.162  -6.426  0.00  0.00    -0.030 Cl
ATOM     11  C   UNK A  0        3.613   4.785  -3.346  0.00  0.00    +0.090 A 
BRANCH   5  13
ATOM     12  C   UNK A  0        7.483   3.737  -4.314  0.00  0.00    +0.130 C 
ATOM     13  S   UNK A  0        6.254   4.147  -3.045  0.00  0.00    -0.100 S 
ENDBRANCH   5  13
ENDBRANCH   1   9
BRANCH   2  14
ATOM     14  CA  PHE A  1       -0.091   5.864  -1.410  0.00  0.00    +0.180 C 
BRANCH  14  15
ATOM     15  C   PHE A  1       -0.235   7.364  -1.404  0.00  0.00    +0.490 C 
ATOM     16  OXT PHE A  1       -1.345   7.870  -1.422  0.00  0.00    -0.690 OA
ATOM     17  O   PHE A  1        0.757   8.072  -1.380  0.00  0.00    -0.690 OA
ENDBRANCH  14  15
BRANCH  14  18
ATOM     18  CB  PHE A  1       -0.070   5.347   0.030  0.00  0.00    +0.090 C 
BRANCH  18  19
ATOM     19  CG  PHE A  1       -0.050   3.840   0.022  0.00  0.00    -0.060 A 
ATOM     20  CD2 PHE A  1        1.156   3.165   0.008  0.00  0.00    +0.000 A 
ATOM     21  CE2 PHE A  1        1.175   1.783   0.000  0.00  0.00    +0.000 A 
ATOM     22  CZ  PHE A  1       -0.013   1.076   0.008  0.00  0.00    -0.010 A 
ATOM     23  CE1 PHE A  1       -1.219   1.751   0.017  0.00  0.00    +0.000 A 
ATOM     24  CD1 PHE A  1       -1.238   3.133   0.030  0.00  0.00    +0.000 A 
ENDBRANCH  18  19
ENDBRANCH  14  18
ENDBRANCH   2  14
TORSDOF 6
