REMARK  Name = ZINCtV000002GWze.0
REMARK                            x       y       z     vdW  Elec       q    Type
REMARK                         _______ _______ _______ _____ _____    ______ ____
ROOT
ATOM      1  N   LIG    1       -2.664   3.934  -0.006  0.00  0.00    -0.490 N 
ATOM      2  C   LIG    1       -1.482   3.268  -0.546  0.00  0.00    +0.210 C 
ATOM      3  C   LIG    1       -1.817   1.892  -1.110  0.00  0.00    +0.060 C 
ATOM      4  C   LIG    1       -3.070   1.950  -1.943  0.00  0.00    -0.060 A 
ATOM      5  C   LIG    1       -3.018   1.885  -3.317  0.00  0.00    +0.010 A 
ATOM      6  C   LIG    1       -4.189   1.924  -4.055  0.00  0.00    +0.000 A 
ATOM      7  C   LIG    1       -5.414   2.026  -3.419  0.00  0.00    +0.000 A 
ATOM      8  C   LIG    1       -5.477   2.098  -2.041  0.00  0.00    +0.020 A 
ATOM      9  C   LIG    1       -4.304   2.069  -1.297  0.00  0.00    -0.030 A 
ATOM     10  C   LIG    1       -4.314   2.183   0.179  0.00  0.00    -0.050 A 
ATOM     11  C   LIG    1       -5.143   1.388   0.959  0.00  0.00    +0.040 A 
ATOM     12  C   LIG    1       -5.090   1.487   2.336  0.00  0.00    -0.010 A 
ATOM     13  C   LIG    1       -4.220   2.379   2.938  0.00  0.00    +0.020 A 
ATOM     14  C   LIG    1       -3.404   3.189   2.171  0.00  0.00    -0.040 A 
ATOM     15  C   LIG    1       -3.450   3.106   0.788  0.00  0.00    +0.120 A 
ENDROOT
BRANCH   1  16
ATOM     16  C   LIG    1       -2.296   5.160   0.714  0.00  0.00    +0.240 C 
BRANCH  16  21
ATOM     17  C   LIG    1        0.863   6.643  -0.746  0.00  0.00    -0.040 A 
ATOM     18  C   LIG    1        0.340   7.501  -1.712  0.00  0.00    +0.020 A 
ATOM     19  C   LIG    1       -1.026   7.593  -1.883  0.00  0.00    +0.010 A 
ATOM     20  C   LIG    1       -1.877   6.835  -1.098  0.00  0.00    +0.030 A 
ATOM     21  C   LIG    1       -1.363   5.982  -0.138  0.00  0.00    -0.080 A 
ATOM     22  C   LIG    1        0.001   5.886   0.045  0.00  0.00    +0.020 A 
BRANCH  17  27
ATOM     23  C   LIG    1        6.561   6.245  -0.012  0.00  0.00    +0.090 C 
ATOM     24  C   LIG    1        5.070   6.350  -0.204  0.00  0.00    -0.080 A 
ATOM     25  C   LIG    1        4.557   7.202  -1.164  0.00  0.00    +0.000 A 
ATOM     26  C   LIG    1        3.192   7.302  -1.345  0.00  0.00    +0.020 A 
ATOM     27  C   LIG    1        2.331   6.540  -0.557  0.00  0.00    -0.050 A 
ATOM     28  C   LIG    1        2.853   5.687   0.413  0.00  0.00    +0.010 A 
ATOM     29  C   LIG    1        4.220   5.592   0.581  0.00  0.00    +0.000 A 
ENDBRANCH  17  27
ENDBRANCH  16  21
ENDBRANCH   1  16
TORSDOF 3
