REMARK  Name = ZINCpe00000MJMfG.0
REMARK                            x       y       z     vdW  Elec       q    Type
REMARK                         _______ _______ _______ _____ _____    ______ ____
ROOT
ATOM      1  C   LIG    1       -2.254   6.321   3.377  0.00  0.00    +0.530 C 
ATOM      2  N   LIG    1       -2.323   7.664   3.458  0.00  0.00    -0.610 N 
ATOM      3  C   LIG    1       -1.639   8.509   2.469  0.00  0.00    +0.270 C 
ATOM      4  C   LIG    1       -2.654   9.487   1.870  0.00  0.00    +0.050 C 
ATOM      5  C   LIG    1       -3.335  10.265   2.998  0.00  0.00    +0.040 C 
ATOM      6  C   LIG    1       -4.083   9.291   3.912  0.00  0.00    +0.260 C 
ATOM      7  C   LIG    1       -3.089   8.311   4.531  0.00  0.00    +0.290 C 
ATOM      8  O   LIG    1       -2.823   5.634   4.199  0.00  0.00    -0.520 OA
ENDROOT
BRANCH   6   9
ATOM      9  N   LIG    1       -4.762  10.040   4.973  0.00  0.00    -0.290 N 
ATOM     10  C   LIG    1       -4.299  11.155   5.567  0.00  0.00    +0.430 A 
ATOM     11  N   LIG    1       -5.183  11.525   6.459  0.00  0.00    -0.480 NA
ATOM     12  C   LIG    1       -6.191  10.635   6.414  0.00  0.00    +0.140 A 
ATOM     13  N   LIG    1       -5.904   9.744   5.491  0.00  0.00    -0.240 NA
BRANCH  12  14
ATOM     14  C   LIG    1       -7.410  10.659   7.251  0.00  0.00    +0.620 C 
ATOM     15  O   LIG    1       -8.256   9.796   7.118  0.00  0.00    -0.520 OA
ATOM     16  N   LIG    1       -7.585  11.638   8.160  0.00  0.00    -0.830 N 
ATOM     17  H   LIG    1       -8.384  11.654   8.709  0.00  0.00    +0.410 HD
ATOM     18  H   LIG    1       -6.910  12.327   8.266  0.00  0.00    +0.410 HD
ENDBRANCH  12  14
ENDBRANCH   6   9
BRANCH   1  19
ATOM     19  C   LIG    1       -1.469   5.671   2.266  0.00  0.00    +0.050 C 
BRANCH  19  20
ATOM     20  C   LIG    1       -1.551   4.150   2.405  0.00  0.00    +0.130 C 
BRANCH  20  21
ATOM     21  C   LIG    1       -0.755   3.491   1.277  0.00  0.00    +0.040 C 
ATOM     22  N   LIG    1       -0.625   4.201   0.003  0.00  0.00    -0.120 NA
ATOM     23  N   LIG    1        0.391   4.211   0.715  0.00  0.00    -0.120 NA
BRANCH  21  24
ATOM     24  C   LIG    1       -0.734   1.961   1.269  0.00  0.00    +0.120 C 
BRANCH  24  25
ATOM     25  C   LIG    1       -0.018   1.468   0.010  0.00  0.00    +0.160 C 
BRANCH  25  27
ATOM     26  C   LIG    1        0.018  -1.178  -0.004  0.00  0.00    +0.030 C 
ATOM     27  C   LIG    1        0.002  -0.004   0.002  0.00  0.00    -0.200 C 
ENDBRANCH  25  27
ENDBRANCH  24  25
ENDBRANCH  21  24
ENDBRANCH  20  21
ENDBRANCH  19  20
ENDBRANCH   1  19
TORSDOF 8
