REMARK  Name = ZINCkj00000GeO7S.0
REMARK                            x       y       z     vdW  Elec       q    Type
REMARK                         _______ _______ _______ _____ _____    ______ ____
ROOT
ATOM      1  N   LIG    1       -0.681   1.498  -1.234  0.00  0.00    -0.380 N 
ATOM      2  C   LIG    1       -1.951   0.773  -1.369  0.00  0.00    +0.280 C 
ATOM      3  C   LIG    1       -1.681  -0.732  -1.393  0.00  0.00    +0.210 C 
ATOM      4  N   LIG    1       -0.794  -1.050  -2.522  0.00  0.00    -0.540 NA
ATOM      5  C   LIG    1        0.473  -0.313  -2.413  0.00  0.00    +0.210 C 
ATOM      6  C   LIG    1        0.185   1.190  -2.380  0.00  0.00    +0.180 C 
ATOM      7  H   LIG    1       -0.861   2.490  -1.206  0.00  0.00    +0.420 HD
ENDROOT
BRANCH   6   8
ATOM      8  C   LIG    1        1.500   1.959  -2.247  0.00  0.00    +0.050 C 
ATOM      9  C   LIG    1        1.225   3.461  -2.339  0.00  0.00    +0.030 C 
ENDBRANCH   6   8
BRANCH   1  10
ATOM     10  C   LIG    1       -0.013   1.086   0.008  0.00  0.00    +0.270 C 
BRANCH  10  11
ATOM     11  C   LIG    1       -0.835   1.557   1.210  0.00  0.00    +0.210 C 
BRANCH  11  12
ATOM     12  O   LIG    1       -2.058   0.820   1.268  0.00  0.00    -0.390 OA
BRANCH  12  14
ATOM     13  C   LIG    1       -4.178   0.337   2.323  0.00  0.00    +0.050 C 
ATOM     14  C   LIG    1       -2.904   1.185   2.360  0.00  0.00    +0.180 C 
ENDBRANCH  12  14
ENDBRANCH  11  12
ENDBRANCH  10  11
ENDBRANCH   1  10
BRANCH   4  15
ATOM     15  C   LIG    1       -0.555  -2.496  -2.613  0.00  0.00    +0.280 C 
BRANCH  15  16
ATOM     16  C   LIG    1       -1.842  -3.196  -2.968  0.00  0.00    -0.250 A 
ATOM     17  C   LIG    1       -2.754  -3.677  -2.092  0.00  0.00    +0.230 A 
ATOM     18  N   LIG    1       -3.760  -4.226  -2.805  0.00  0.00    -0.370 N 
ATOM     19  N   LIG    1       -3.450  -4.087  -4.164  0.00  0.00    -0.290 NA
ATOM     20  C   LIG    1       -4.959  -4.862  -2.255  0.00  0.00    +0.360 C 
ATOM     21  C   LIG    1       -2.301  -3.469  -4.261  0.00  0.00    +0.250 A 
ENDBRANCH  15  16
ENDBRANCH   4  15
TORSDOF 7
