REMARK  Name = ZINCkj00000GeO7S.1
REMARK                            x       y       z     vdW  Elec       q    Type
REMARK                         _______ _______ _______ _____ _____    ______ ____
ROOT
ATOM      1  N   LIG    1       -0.104   0.892  -0.038  0.00  0.00    -0.380 N 
ATOM      2  C   LIG    1       -0.825   1.504   1.086  0.00  0.00    +0.260 C 
ATOM      3  C   LIG    1       -2.313   1.159   0.986  0.00  0.00    +0.210 C 
ATOM      4  N   LIG    1       -2.844   1.659  -0.290  0.00  0.00    -0.530 NA
ATOM      5  C   LIG    1       -2.115   1.075  -1.424  0.00  0.00    +0.220 C 
ATOM      6  C   LIG    1       -0.629   1.420  -1.304  0.00  0.00    +0.170 C 
ATOM      7  H   LIG    1       -0.229  -0.108  -0.013  0.00  0.00    +0.430 HD
ENDROOT
BRANCH   6   8
ATOM      8  C   LIG    1        0.136   0.796  -2.473  0.00  0.00    +0.030 C 
ATOM      9  C   LIG    1       -0.360   1.401  -3.788  0.00  0.00    +0.060 C 
ENDBRANCH   6   8
BRANCH   1  10
ATOM     10  C   LIG    1        1.327   1.209   0.069  0.00  0.00    +0.270 C 
BRANCH  10  11
ATOM     11  C   LIG    1        1.906   0.540   1.317  0.00  0.00    +0.200 C 
BRANCH  11  12
ATOM     12  O   LIG    1        1.843  -0.880   1.169  0.00  0.00    -0.400 OA
BRANCH  12  14
ATOM     13  C   LIG    1        2.244  -3.106   2.019  0.00  0.00    +0.050 C 
ATOM     14  C   LIG    1        2.362  -1.604   2.286  0.00  0.00    +0.180 C 
ENDBRANCH  12  14
ENDBRANCH  11  12
ENDBRANCH  10  11
ENDBRANCH   1  10
BRANCH   4  15
ATOM     15  C   LIG    1       -4.285   1.397  -0.399  0.00  0.00    +0.290 C 
BRANCH  15  16
ATOM     16  C   LIG    1       -5.023   2.204   0.638  0.00  0.00    -0.250 A 
ATOM     17  C   LIG    1       -5.321   1.803   1.895  0.00  0.00    +0.230 A 
ATOM     18  N   LIG    1       -5.981   2.811   2.503  0.00  0.00    -0.370 N 
ATOM     19  N   LIG    1       -6.101   3.863   1.586  0.00  0.00    -0.290 NA
ATOM     20  C   LIG    1       -6.489   2.804   3.877  0.00  0.00    +0.360 C 
ATOM     21  C   LIG    1       -5.526   3.498   0.468  0.00  0.00    +0.250 A 
ENDBRANCH  15  16
ENDBRANCH   4  15
TORSDOF 7
