REMARK  Name = ZINCqH00000k8DSH.0
REMARK                            x       y       z     vdW  Elec       q    Type
REMARK                         _______ _______ _______ _____ _____    ______ ____
ROOT
ATOM      1  C   LIG    1        1.165   2.076   0.000  0.00  0.00    -0.180 A 
ATOM      2  C   LIG    1       -0.035   1.361  -0.004  0.00  0.00    +0.060 A 
ATOM      3  C   LIG    1       -0.013  -0.017  -0.035  0.00  0.00    -0.010 A 
ATOM      4  C   LIG    1        1.193  -0.698  -0.062  0.00  0.00    +0.060 A 
ATOM      5  C   LIG    1        2.387  -0.004  -0.058  0.00  0.00    +0.020 A 
ATOM      6  C   LIG    1        2.385   1.384  -0.026  0.00  0.00    +0.210 A 
ENDROOT
BRANCH   1   9
ATOM      7  N   LIG    1       -0.020   4.210   0.159  0.00  0.00    -0.720 N 
ATOM      8  H   LIG    1       -0.851   3.714   0.229  0.00  0.00    +0.400 HD
ATOM      9  C   LIG    1        1.149   3.551   0.033  0.00  0.00    +0.570 C 
ATOM     10  O   LIG    1        2.191   4.172  -0.054  0.00  0.00    -0.550 OA
BRANCH   7  11
ATOM     11  C   LIG    1       -0.036   5.674   0.192  0.00  0.00    +0.260 C 
BRANCH  11  12
ATOM     12  C   LIG    1       -1.477   6.166   0.341  0.00  0.00    +0.010 C 
BRANCH  12  14
ATOM     13  C   LIG    1       -2.935   8.187   0.524  0.00  0.00    +0.010 C 
ATOM     14  C   LIG    1       -1.493   7.695   0.375  0.00  0.00    +0.020 C 
ENDBRANCH  12  14
ENDBRANCH  11  12
ENDBRANCH   7  11
ENDBRANCH   1   9
BRANCH   6  15
ATOM     15  N   LIG    1        3.588   2.086  -0.021  0.00  0.00    -0.660 N 
ATOM     16  H   LIG    1        3.657   2.933  -0.489  0.00  0.00    +0.430 HD
ATOM     17  C   LIG    1        4.656   1.588   0.633  0.00  0.00    +0.510 C 
ATOM     18  O   LIG    1        4.594   0.492   1.149  0.00  0.00    -0.520 OA
BRANCH  17  19
ATOM     19  C   LIG    1        5.926   2.393   0.724  0.00  0.00    +0.070 C 
BRANCH  19  20
ATOM     20  C   LIG    1        6.974   1.605   1.514  0.00  0.00    +0.100 C 
BRANCH  20  21
ATOM     21  C   LIG    1        8.244   2.411   1.605  0.00  0.00    -0.120 A 
ATOM     22  C   LIG    1        9.219   2.275   0.633  0.00  0.00    +0.060 A 
ATOM     23  C   LIG    1       10.382   3.016   0.712  0.00  0.00    -0.080 A 
ATOM     24  C   LIG    1       10.577   3.888   1.773  0.00  0.00    +0.120 A 
ATOM     25  C   LIG    1        9.600   4.019   2.749  0.00  0.00    -0.020 A 
ATOM     26  C   LIG    1        8.436   3.280   2.663  0.00  0.00    +0.060 A 
BRANCH  24  27
ATOM     27  O   LIG    1       11.723   4.614   1.855  0.00  0.00    -0.320 OA
ATOM     28  C   LIG    1       12.684   4.429   0.814  0.00  0.00    +0.250 C 
ENDBRANCH  24  27
ENDBRANCH  20  21
ENDBRANCH  19  20
ENDBRANCH  17  19
ENDBRANCH   6  15
TORSDOF 9
