REMARK  Name = ZINCpe000027pHfk.0
REMARK                            x       y       z     vdW  Elec       q    Type
REMARK                         _______ _______ _______ _____ _____    ______ ____
ROOT
ATOM      1  C   LIG    1       -0.013   1.086   0.008  0.00  0.00    +0.400 C 
ENDROOT
BRANCH   1   5
ATOM      2  C   LIG    1       -2.012   2.463   3.523  0.00  0.00    -0.090 A 
ATOM      3  C   LIG    1       -2.366   1.254   2.955  0.00  0.00    +0.050 A 
ATOM      4  C   LIG    1       -1.719   0.808   1.818  0.00  0.00    +0.040 A 
ATOM      5  C   LIG    1       -0.718   1.572   1.248  0.00  0.00    -0.120 A 
ATOM      6  C   LIG    1       -0.360   2.779   1.819  0.00  0.00    +0.030 A 
ATOM      7  C   LIG    1       -1.010   3.227   2.953  0.00  0.00    +0.030 A 
BRANCH   2   8
ATOM      8  C   LIG    1       -2.717   2.949   4.763  0.00  0.00    +0.380 C 
BRANCH   8  11
ATOM      9  C   LIG    1       -0.951   2.399   7.858  0.00  0.00    -0.120 A 
ATOM     10  C   LIG    1       -1.532   3.224   6.957  0.00  0.00    +0.220 A 
ATOM     11  N   LIG    1       -2.009   2.463   5.950  0.00  0.00    -0.370 N 
ATOM     12  N   LIG    1       -1.703   1.127   6.237  0.00  0.00    -0.290 NA
ATOM     13  C   LIG    1       -1.068   1.089   7.380  0.00  0.00    +0.230 A 
ENDBRANCH   8  11
ENDBRANCH   2   8
ENDBRANCH   1   5
BRANCH   1  14
ATOM     14  N   LIG    1       -0.721   1.571  -1.179  0.00  0.00    -0.300 N 
ATOM     15  N   LIG    1       -1.676   0.967  -1.802  0.00  0.00    -0.080 NA
ATOM     16  N   LIG    1       -2.052   1.697  -2.793  0.00  0.00    -0.070 NA
ATOM     17  N   LIG    1       -1.342   2.772  -2.826  0.00  0.00    -0.290 NA
ATOM     18  C   LIG    1       -0.495   2.728  -1.828  0.00  0.00    +0.180 A 
BRANCH  18  19
ATOM     19  C   LIG    1        0.534   3.772  -1.474  0.00  0.00    +0.180 C 
BRANCH  19  20
ATOM     20  C   LIG    1        1.844   3.462  -2.201  0.00  0.00    +0.340 C 
BRANCH  20  21
ATOM     21  N   LIG    1        2.844   4.476  -1.858  0.00  0.00    -0.390 N 
ATOM     22  C   LIG    1        4.067   4.260  -1.343  0.00  0.00    +0.480 A 
ATOM     23  N   LIG    1        4.651   5.419  -1.182  0.00  0.00    -0.540 NA
ATOM     24  C   LIG    1        3.833   6.395  -1.574  0.00  0.00    +0.420 A 
ATOM     25  N   LIG    1        2.714   5.867  -1.996  0.00  0.00    -0.310 NA
ENDBRANCH  20  21
ENDBRANCH  19  20
ENDBRANCH  18  19
ENDBRANCH   1  14
TORSDOF 7
