REMARK  Name = ZINCc70000002mkE.0
REMARK                            x       y       z     vdW  Elec       q    Type
REMARK                         _______ _______ _______ _____ _____    ______ ____
ROOT
ATOM      1  C   UNK    1        0.019  -0.214   0.010  0.00  0.00    +0.220 C 
ENDROOT
BRANCH   1   2
ATOM      2  O   UNK    1       -0.088   1.199  -0.175  0.00  0.00    -0.510 OA
ATOM      3  H   UNK    1        0.763   1.650  -0.262  0.00  0.00    +0.380 HD
ENDBRANCH   1   2
BRANCH   1   4
ATOM      4  C   UNK    1        0.816  -0.503   1.283  0.00  0.00    -0.020 C 
BRANCH   4   6
ATOM      5  C   UNK    1       -1.367  -0.650   2.490  0.00  0.00    +0.020 C 
ATOM      6  C   UNK    1        0.026  -0.018   2.500  0.00  0.00    -0.060 C 
ATOM      7  C   UNK    1       -0.105   1.506   2.449  0.00  0.00    +0.040 C 
ATOM      8  C   UNK    1        0.760  -0.423   3.780  0.00  0.00    +0.020 C 
ENDBRANCH   4   6
ENDBRANCH   1   4
BRANCH   1   9
ATOM      9  C   UNK    1        0.736  -0.832  -1.192  0.00  0.00    +0.040 C 
BRANCH   9  10
ATOM     10  N   UNK    1        0.845  -2.285  -1.002  0.00  0.00    -0.610 N 
ATOM     11  H   UNK    1       -0.078  -2.684  -0.920  0.00  0.00    +0.430 HD
ATOM     12  H   UNK    1        1.370  -2.476  -0.163  0.00  0.00    +0.410 HD
ATOM     13  H   UNK    1        1.318  -2.693  -1.795  0.00  0.00    +0.430 HD
ENDBRANCH   9  10
BRANCH   9  14
ATOM     14  C   UNK    1       -0.049  -0.547  -2.447  0.00  0.00    +0.490 C 
ATOM     15  O   UNK    1       -0.632  -1.452  -3.020  0.00  0.00    -0.680 OA
ATOM     16  O   UNK    1       -0.102   0.588  -2.888  0.00  0.00    -0.620 OA
ENDBRANCH   9  14
ENDBRANCH   1   9
TORSDOF 6
