REMARK  Name = ZINCvU0000000JoC.0
REMARK                            x       y       z     vdW  Elec       q    Type
REMARK                         _______ _______ _______ _____ _____    ______ ____
ROOT
ATOM      1  C   LIG    1       -1.052   2.678   4.742  0.00  0.00    +0.550 C 
ATOM      2  O   LIG    1       -2.027   3.026   5.378  0.00  0.00    -0.520 OA
ENDROOT
BRANCH   1   6
ATOM      3  C   LIG    1       -0.013   1.086   0.008  0.00  0.00    +0.140 C 
ATOM      4  C   LIG    1       -0.718   1.572   1.248  0.00  0.00    +0.010 A 
ATOM      5  C   LIG    1       -0.130   1.834   2.428  0.00  0.00    +0.030 A 
ATOM      6  C   LIG    1       -1.196   2.277   3.334  0.00  0.00    -0.220 A 
ATOM      7  C   LIG    1       -2.361   2.240   2.597  0.00  0.00    +0.130 A 
ATOM      8  C   LIG    1       -3.734   2.610   3.095  0.00  0.00    +0.150 C 
ATOM      9  N   LIG    1       -2.057   1.823   1.351  0.00  0.00    -0.390 N 
BRANCH   9  10
ATOM     10  C   LIG    1       -2.985   1.665   0.311  0.00  0.00    +0.090 A 
ATOM     11  C   LIG    1       -3.651   2.770  -0.199  0.00  0.00    +0.060 A 
ATOM     12  C   LIG    1       -4.560   2.613  -1.227  0.00  0.00    +0.010 A 
ATOM     13  C   LIG    1       -4.814   1.353  -1.742  0.00  0.00    +0.110 A 
ATOM     14  C   LIG    1       -4.154   0.248  -1.230  0.00  0.00    +0.010 A 
ATOM     15  F   LIG    1       -5.708   1.201  -2.744  0.00  0.00    -0.130 F 
ATOM     16  C   LIG    1       -3.241   0.402  -0.206  0.00  0.00    +0.070 A 
ENDBRANCH   9  10
ENDBRANCH   1   6
BRANCH   1  17
ATOM     17  O   LIG    1        0.163   2.661   5.326  0.00  0.00    -0.330 OA
BRANCH  17  18
ATOM     18  C   LIG    1        0.231   3.070   6.718  0.00  0.00    +0.250 C 
BRANCH  18  19
ATOM     19  C   LIG    1        1.657   2.987   7.197  0.00  0.00    +0.520 C 
ATOM     20  N   LIG    1        1.962   3.322   8.466  0.00  0.00    -0.730 N 
ATOM     21  H   LIG    1        1.263   3.616   9.072  0.00  0.00    +0.400 HD
ATOM     22  O   LIG    1        2.531   2.620   6.440  0.00  0.00    -0.510 OA
BRANCH  20  23
ATOM     23  C   LIG    1        3.349   3.241   8.932  0.00  0.00    +0.280 C 
BRANCH  23  24
ATOM     24  C   LIG    1        3.420   3.672  10.398  0.00  0.00    +0.080 C 
BRANCH  24  25
ATOM     25  C   LIG    1        4.846   3.589  10.877  0.00  0.00    -0.070 A 
ATOM     26  C   LIG    1        5.289   2.458  11.537  0.00  0.00    +0.050 A 
ATOM     27  C   LIG    1        6.599   2.379  11.972  0.00  0.00    +0.040 A 
ATOM     28  C   LIG    1        7.464   3.437  11.757  0.00  0.00    -0.020 A 
ATOM     29  C   LIG    1        7.020   4.572  11.102  0.00  0.00    +0.050 A 
ATOM     30 CL   LIG    1        9.107   3.340  12.309  0.00  0.00    -0.050 Cl
ATOM     31  C   LIG    1        5.711   4.648  10.662  0.00  0.00    -0.020 A 
ATOM     32 CL   LIG    1        5.153   6.072   9.840  0.00  0.00    -0.050 Cl
ENDBRANCH  24  25
ENDBRANCH  23  24
ENDBRANCH  20  23
ENDBRANCH  18  19
ENDBRANCH  17  18
ENDBRANCH   1  17
TORSDOF 8
