REMARK  Name = ZINCqH0000002ZhZ.0
REMARK                            x       y       z     vdW  Elec       q    Type
REMARK                         _______ _______ _______ _____ _____    ______ ____
ROOT
ATOM      1  N   LIG    1       -2.902   0.798  -1.460  0.00  0.00    -0.970 NA
ENDROOT
BRANCH   1   2
ATOM      2  S   LIG    1       -2.754   1.494   0.036  0.00  0.00    +2.690 S 
ATOM      3  O   LIG    1       -3.850   2.387   0.173  0.00  0.00    -0.950 OA
ATOM      4  O   LIG    1       -2.495   0.435   0.947  0.00  0.00    -0.930 OA
BRANCH   2   5
ATOM      5  C   LIG    1       -1.301   2.491   0.005  0.00  0.00    -0.660 A 
ATOM      6  C   LIG    1       -1.405   3.866   0.089  0.00  0.00    +0.160 A 
ATOM      7  C   LIG    1       -0.266   4.649   0.060  0.00  0.00    +0.040 A 
ATOM      8  C   LIG    1        0.979   4.056  -0.048  0.00  0.00    -0.030 A 
ATOM      9  C   LIG    1        1.084   2.678  -0.126  0.00  0.00    +0.050 A 
ATOM     10 BR   LIG    1        2.537   5.126  -0.087  0.00  0.00    -0.020 Br
ATOM     11  C   LIG    1       -0.056   1.896  -0.097  0.00  0.00    +0.080 A 
ATOM     12 CL   LIG    1        0.075   0.167  -0.196  0.00  0.00    -0.030 Cl
ENDBRANCH   2   5
ENDBRANCH   1   2
BRANCH   1  14
ATOM     13  C   LIG    1       -3.649  -1.524  -1.642  0.00  0.00    +0.020 C 
ATOM     14  C   LIG    1       -2.447  -0.578  -1.676  0.00  0.00    +0.290 C 
ENDBRANCH   1  14
BRANCH   1  15
ATOM     15  C   LIG    1       -3.489   1.558  -2.566  0.00  0.00    +0.350 C 
BRANCH  15  16
ATOM     16  C   LIG    1       -2.389   2.202  -3.372  0.00  0.00    +0.490 C 
ATOM     17  N   LIG    1       -2.694   2.955  -4.447  0.00  0.00    -0.670 N 
ATOM     18  H   LIG    1       -3.615   3.029  -4.742  0.00  0.00    +0.410 HD
ATOM     19  O   LIG    1       -1.230   2.041  -3.053  0.00  0.00    -0.500 OA
BRANCH  17  20
ATOM     20  C   LIG    1       -1.681   3.633  -5.138  0.00  0.00    +0.100 A 
ATOM     21  C   LIG    1       -1.935   4.878  -5.698  0.00  0.00    +0.030 A 
ATOM     22  C   LIG    1       -0.934   5.547  -6.374  0.00  0.00    -0.060 A 
ATOM     23  C   LIG    1        0.322   4.972  -6.503  0.00  0.00    +0.120 A 
ATOM     24  C   LIG    1        0.574   3.725  -5.948  0.00  0.00    +0.000 A 
ATOM     25  C   LIG    1       -0.424   3.057  -5.267  0.00  0.00    +0.070 A 
BRANCH  23  26
ATOM     26  O   LIG    1        1.305   5.629  -7.173  0.00  0.00    -0.320 OA
ATOM     27  C   LIG    1        0.975   6.908  -7.719  0.00  0.00    +0.250 C 
ENDBRANCH  23  26
ENDBRANCH  17  20
ENDBRANCH  15  16
ENDBRANCH   1  15
TORSDOF 7
