REMARK  Name = ZINCrH000004t4AG.0
REMARK                            x       y       z     vdW  Elec       q    Type
REMARK                         _______ _______ _______ _____ _____    ______ ____
ROOT
ATOM      1  C   LIG    1       -1.665   0.626  -1.643  0.00  0.00    +0.320 C 
ATOM      2  C   LIG    1       -0.323   1.397  -1.688  0.00  0.00    +0.020 C 
ATOM      3  C   LIG    1        0.647   0.789  -0.765  0.00  0.00    +0.000 C 
ATOM      4  C   LIG    1        0.230   0.837   0.702  0.00  0.00    +0.010 C 
ATOM      5  C   LIG    1       -0.657  -0.341   1.011  0.00  0.00    +0.010 C 
ATOM      6  C   LIG    1       -2.134   0.045   0.810  0.00  0.00    +0.260 C 
ATOM      7  N   LIG    1       -2.332   0.886  -0.386  0.00  0.00    -0.600 N 
ATOM      8  C   LIG    1       -3.168   1.940  -0.305  0.00  0.00    +0.510 C 
ATOM      9  O   LIG    1       -3.381   2.622  -1.284  0.00  0.00    -0.490 OA
ENDROOT
BRANCH   8  10
ATOM     10  C   LIG    1       -3.839   2.270   1.004  0.00  0.00    +0.060 C 
ATOM     11  C   LIG    1       -4.694   1.083   1.451  0.00  0.00    +0.100 C 
ATOM     12  C   LIG    1       -5.906   0.963   0.568  0.00  0.00    +0.530 C 
ATOM     13  N   LIG    1       -6.514   2.060   0.080  0.00  0.00    -0.660 N 
ATOM     14  H   LIG    1       -7.301   1.966  -0.479  0.00  0.00    +0.420 HD
ATOM     15  C   LIG    1       -6.018   3.334   0.371  0.00  0.00    +0.210 A 
ATOM     16  C   LIG    1       -6.825   4.451   0.208  0.00  0.00    -0.050 A 
ATOM     17  C   LIG    1       -6.329   5.709   0.498  0.00  0.00    +0.140 A 
ATOM     18  C   LIG    1       -5.028   5.853   0.952  0.00  0.00    -0.040 A 
ATOM     19  C   LIG    1       -4.223   4.741   1.116  0.00  0.00    +0.100 A 
ATOM     20  F   LIG    1       -7.112   6.798   0.340  0.00  0.00    -0.130 F 
ATOM     21  O   LIG    1       -6.340  -0.136   0.292  0.00  0.00    -0.510 OA
ATOM     22  C   LIG    1       -4.714   3.483   0.827  0.00  0.00    -0.110 A 
ENDBRANCH   8  10
BRANCH   1  28
ATOM     23  C   LIG    1       -1.294   3.190  -3.346  0.00  0.00    +0.300 C 
ATOM     24  N   LIG    1       -2.369   2.211  -3.522  0.00  0.00    -0.420 N 
ATOM     25  C   LIG    1       -3.361   2.279  -4.455  0.00  0.00    +0.140 A 
ATOM     26  C   LIG    1       -4.157   1.201  -4.304  0.00  0.00    -0.070 A 
ATOM     27  C   LIG    1       -3.634   0.436  -3.243  0.00  0.00    -0.080 A 
ATOM     28  C   LIG    1       -2.543   1.080  -2.780  0.00  0.00    +0.040 A 
ENDBRANCH   1  28
TORSDOF 2
