REMARK  Name = ZINCrD00000l1Z7q.0
REMARK                            x       y       z     vdW  Elec       q    Type
REMARK                         _______ _______ _______ _____ _____    ______ ____
ROOT
ATOM      1  C   LIG    1       -1.188  -0.858  -0.018  0.00  0.00    +0.550 C 
ATOM      2  O   LIG    1       -2.297  -0.358  -0.013  0.00  0.00    -0.480 OA
ENDROOT
BRANCH   1   3
ATOM      3  C   LIG    1        0.001  -0.003  -0.027  0.00  0.00    -0.290 A 
ATOM      4  C   LIG    1       -0.018   1.341  -0.029  0.00  0.00    +0.080 A 
ATOM      5  C   LIG    1        1.246   1.932  -0.038  0.00  0.00    -0.250 A 
ATOM      6  C   LIG    1        2.281   1.003  -0.042  0.00  0.00    +0.050 A 
ATOM      7  N   LIG    1        3.580   1.460  -0.051  0.00  0.00    -0.590 N 
ATOM      8  H   LIG    1        4.310   0.820  -0.054  0.00  0.00    +0.430 HD
ATOM      9  C   LIG    1        3.856   2.774  -0.055  0.00  0.00    +0.450 A 
ATOM     10  N   LIG    1        2.928   3.688  -0.051  0.00  0.00    -0.580 NA
ATOM     11  C   LIG    1        5.299   3.209  -0.064  0.00  0.00    +0.190 C 
ATOM     12  C   LIG    1        1.624   3.364  -0.043  0.00  0.00    +0.550 A 
ATOM     13  O   LIG    1        0.768   4.233  -0.040  0.00  0.00    -0.470 OA
ATOM     14  C   LIG    1       -1.295   2.141  -0.029  0.00  0.00    +0.160 C 
ATOM     15  S   LIG    1        1.656  -0.586  -0.035  0.00  0.00    +0.320 S 
ENDBRANCH   1   3
BRANCH   1  16
ATOM     16  O   LIG    1       -1.054  -2.200  -0.017  0.00  0.00    -0.330 OA
BRANCH  16  17
ATOM     17  C   LIG    1       -2.276  -2.985  -0.008  0.00  0.00    +0.270 C 
BRANCH  17  20
ATOM     18  N   LIG    1       -2.913  -5.375  -0.000  0.00  0.00    -0.660 N 
ATOM     19  H   LIG    1       -3.838  -5.098   0.085  0.00  0.00    +0.420 HD
ATOM     20  C   LIG    1       -1.931  -4.452  -0.007  0.00  0.00    +0.520 C 
ATOM     21  O   LIG    1       -0.769  -4.802  -0.013  0.00  0.00    -0.490 OA
BRANCH  18  29
ATOM     22  C   LIG    1       -4.751  -7.277   1.050  0.00  0.00    +0.110 C 
ATOM     23  C   LIG    1       -3.466  -7.695   0.383  0.00  0.00    -0.110 A 
ATOM     24  C   LIG    1       -3.152  -9.035   0.267  0.00  0.00    +0.070 A 
ATOM     25  C   LIG    1       -1.972  -9.419  -0.345  0.00  0.00    -0.110 A 
ATOM     26  C   LIG    1       -1.105  -8.464  -0.843  0.00  0.00    +0.060 A 
ATOM     27  C   LIG    1       -1.416  -7.123  -0.735  0.00  0.00    +0.030 A 
ATOM     28  I   LIG    1       -1.499 -11.453  -0.519  0.00  0.00    -0.040 I 
ATOM     29  C   LIG    1       -2.597  -6.734  -0.116  0.00  0.00    +0.170 A 
ENDBRANCH  18  29
ENDBRANCH  17  20
ENDBRANCH  16  17
ENDBRANCH   1  16
TORSDOF 5
