REMARK  Name = ZINCvU00000005V6.0
REMARK                            x       y       z     vdW  Elec       q    Type
REMARK                         _______ _______ _______ _____ _____    ______ ____
ROOT
ATOM      1  C   LIG    1        3.284  -4.065  -2.829  0.00  0.00    -0.020 C 
ATOM      2  C   LIG    1        4.215  -2.923  -3.245  0.00  0.00    +0.060 C 
ATOM      3  C   LIG    1        5.364  -3.487  -4.084  0.00  0.00    +0.200 C 
ATOM      4  N   LIG    1        4.821  -4.158  -5.272  0.00  0.00    -0.500 N 
ATOM      5  C   LIG    1        3.961  -5.288  -4.897  0.00  0.00    +0.190 C 
ATOM      6  C   LIG    1        2.771  -4.777  -4.083  0.00  0.00    +0.070 C 
ENDROOT
BRANCH   4   7
ATOM      7  C   LIG    1        5.846  -4.570  -6.126  0.00  0.00    +0.190 A 
ATOM      8  C   LIG    1        6.758  -5.530  -5.707  0.00  0.00    +0.010 A 
ATOM      9  C   LIG    1        7.771  -5.935  -6.554  0.00  0.00    +0.150 A 
ATOM     10  C   LIG    1        7.877  -5.387  -7.819  0.00  0.00    -0.190 A 
ATOM     11  C   LIG    1        6.970  -4.431  -8.240  0.00  0.00    +0.170 A 
ATOM     12  C   LIG    1        5.952  -4.026  -7.400  0.00  0.00    -0.030 A 
BRANCH  10  13
ATOM     13  C   LIG    1        8.983  -5.832  -8.741  0.00  0.00    +0.520 C 
ATOM     14  F   LIG    1        9.780  -4.732  -9.076  0.00  0.00    -0.170 F 
ATOM     15  F   LIG    1        8.430  -6.379  -9.903  0.00  0.00    -0.170 F 
ATOM     16  F   LIG    1        9.766  -6.796  -8.098  0.00  0.00    -0.170 F 
ENDBRANCH  10  13
BRANCH  12  17
ATOM     17  N   LIG    1        4.979  -3.007  -7.854  0.00  0.00    +0.020 N 
ATOM     18  O   LIG    1        4.084  -2.646  -7.110  0.00  0.00    -0.080 OA
ATOM     19  O   LIG    1        5.072  -2.530  -8.971  0.00  0.00    -0.190 OA
ENDBRANCH  12  17
ENDBRANCH   4   7
BRANCH   1  21
ATOM     20  N   LIG    1        2.306  -3.022  -0.810  0.00  0.00    -0.610 N 
ATOM     21  C   LIG    1        2.119  -3.507  -2.053  0.00  0.00    +0.520 C 
ATOM     22  O   LIG    1        1.011  -3.495  -2.548  0.00  0.00    -0.530 OA
ATOM     23  C   LIG    1        1.157  -2.587  -0.012  0.00  0.00    +0.300 C 
BRANCH  20  25
ATOM     24  C   LIG    1        3.928  -1.493   0.197  0.00  0.00    +0.040 C 
ATOM     25  C   LIG    1        3.660  -2.930  -0.257  0.00  0.00    +0.280 C 
BRANCH  25  26
ATOM     26  C   LIG    1        3.785  -3.861   0.921  0.00  0.00    -0.100 A 
ATOM     27  C   LIG    1        3.102  -5.062   0.929  0.00  0.00    +0.020 A 
ATOM     28  C   LIG    1        3.218  -5.917   2.010  0.00  0.00    +0.000 A 
ATOM     29  C   LIG    1        4.018  -5.570   3.082  0.00  0.00    +0.000 A 
ATOM     30  C   LIG    1        4.700  -4.368   3.075  0.00  0.00    +0.000 A 
ATOM     31  C   LIG    1        4.585  -3.514   1.994  0.00  0.00    +0.020 A 
ENDBRANCH  25  26
ENDBRANCH  20  25
ENDBRANCH   1  21
TORSDOF 6
