REMARK  Name = ZINCpk00000e9AU9.0
REMARK                            x       y       z     vdW  Elec       q    Type
REMARK                         _______ _______ _______ _____ _____    ______ ____
ROOT
ATOM      1  N   LIG    1       -4.561   0.194  -2.830  0.00  0.00    -0.730 N 
ATOM      2  H   LIG    1       -3.986   0.418  -3.578  0.00  0.00    +0.400 HD
ATOM      3  C   LIG    1       -4.096   0.293  -1.569  0.00  0.00    +0.710 C 
ATOM      4  N   LIG    1       -2.831   0.703  -1.347  0.00  0.00    -0.730 N 
ATOM      5  H   LIG    1       -2.256   0.927  -2.096  0.00  0.00    +0.390 HD
ATOM      6  O   LIG    1       -4.817   0.012  -0.631  0.00  0.00    -0.590 OA
ENDROOT
BRANCH   1   7
ATOM      7  C   LIG    1       -5.936  -0.252  -3.070  0.00  0.00    +0.290 C 
BRANCH   7   8
ATOM      8  C   LIG    1       -6.250  -0.152  -4.564  0.00  0.00    +0.100 C 
ATOM      9  C   LIG    1       -7.674  -0.650  -4.821  0.00  0.00    +0.010 C 
BRANCH   8  10
ATOM     10  N   LIG    1       -5.299  -0.976  -5.321  0.00  0.00    -0.520 NA
ATOM     11  C   LIG    1       -5.516  -0.837  -6.769  0.00  0.00    +0.150 C 
ATOM     12  C   LIG    1       -4.468  -1.664  -7.518  0.00  0.00    +0.220 C 
ATOM     13  O   LIG    1       -4.546  -3.026  -7.088  0.00  0.00    -0.380 OA
ATOM     14  C   LIG    1       -4.338  -3.198  -5.683  0.00  0.00    +0.230 C 
ATOM     15  C   LIG    1       -5.385  -2.387  -4.915  0.00  0.00    +0.150 C 
ENDBRANCH   8  10
BRANCH   8  17
ATOM     16  C   LIG    1       -7.027   2.184  -4.138  0.00  0.00    +0.020 C 
ATOM     17  C   LIG    1       -6.132   1.306  -5.014  0.00  0.00    +0.030 C 
ENDBRANCH   8  17
ENDBRANCH   7   8
ENDBRANCH   1   7
BRANCH   4  18
ATOM     18  C   LIG    1       -2.325   0.810   0.023  0.00  0.00    +0.360 C 
BRANCH  18  19
ATOM     19  C   LIG    1       -0.939   1.401   0.002  0.00  0.00    -0.130 A 
ATOM     20  C   LIG    1        0.169   0.597   0.198  0.00  0.00    +0.090 A 
ATOM     21  C   LIG    1        1.428   1.183   0.165  0.00  0.00    -0.040 A 
ATOM     22  C   LIG    1        1.535   2.541  -0.055  0.00  0.00    +0.280 A 
ATOM     23  N   LIG    1        0.460   3.285  -0.233  0.00  0.00    -0.510 NA
ATOM     24  C   LIG    1       -0.757   2.764  -0.209  0.00  0.00    +0.310 A 
BRANCH  24  25
ATOM     25  N   LIG    1       -1.862   3.585  -0.402  0.00  0.00    -0.490 N 
ATOM     26  C   LIG    1       -1.795   4.260  -1.705  0.00  0.00    +0.200 C 
ATOM     27  C   LIG    1       -1.991   4.559   0.690  0.00  0.00    +0.220 C 
ENDBRANCH  24  25
ENDBRANCH  18  19
ENDBRANCH   4  18
TORSDOF 7
