REMARK  Name = ZINCrH000004oJ80.0
REMARK                            x       y       z     vdW  Elec       q    Type
REMARK                         _______ _______ _______ _____ _____    ______ ____
ROOT
ATOM      1  C   LIG    1       -3.728   2.234   5.207  0.00  0.00    -0.100 A 
ATOM      2  C   LIG    1       -4.154   1.075   4.581  0.00  0.00    +0.020 A 
ATOM      3  C   LIG    1       -3.514   0.625   3.446  0.00  0.00    +0.080 A 
ATOM      4  C   LIG    1       -2.433   1.341   2.928  0.00  0.00    -0.130 A 
ATOM      5  C   LIG    1       -2.006   2.506   3.566  0.00  0.00    +0.040 A 
ATOM      6  C   LIG    1       -2.658   2.948   4.698  0.00  0.00    +0.010 A 
ENDROOT
BRANCH   4   7
ATOM      7  C   LIG    1       -1.741   0.865   1.711  0.00  0.00    +0.560 C 
ATOM      8  N   LIG    1       -0.698   1.558   1.213  0.00  0.00    -0.720 N 
ATOM      9  H   LIG    1       -0.402   2.370   1.653  0.00  0.00    +0.400 HD
ATOM     10  O   LIG    1       -2.113  -0.153   1.160  0.00  0.00    -0.530 OA
BRANCH   8  11
ATOM     11  C   LIG    1       -0.013   1.086   0.008  0.00  0.00    +0.230 C 
ATOM     12  C   LIG    1       -0.753   1.593  -1.232  0.00  0.00    +0.020 C 
ATOM     13  C   LIG    1       -0.037   1.099  -2.490  0.00  0.00    +0.040 C 
ATOM     14  C   LIG    1        1.399   1.629  -2.501  0.00  0.00    -0.010 C 
ATOM     15  C   LIG    1        2.139   1.122  -1.262  0.00  0.00    +0.040 C 
ATOM     16  C   LIG    1        1.423   1.615  -0.003  0.00  0.00    +0.030 C 
BRANCH  14  17
ATOM     17  C   LIG    1        2.115   1.135  -3.760  0.00  0.00    +0.450 C 
ATOM     18  F   LIG    1        3.427   1.620  -3.770  0.00  0.00    -0.180 F 
ATOM     19  F   LIG    1        1.438   1.599  -4.893  0.00  0.00    -0.180 F 
ATOM     20  F   LIG    1        2.134  -0.264  -3.768  0.00  0.00    -0.180 F 
ENDBRANCH  14  17
ENDBRANCH   8  11
ENDBRANCH   4   7
BRANCH   1  21
ATOM     21  C   LIG    1       -4.433   2.719   6.447  0.00  0.00    +0.270 C 
BRANCH  21  25
ATOM     22  C   LIG    1       -3.128  -1.427   8.757  0.00  0.00    +0.050 C 
ATOM     23  C   LIG    1       -3.188   0.099   8.850  0.00  0.00    +0.160 C 
ATOM     24  C   LIG    1       -3.809   0.665   7.570  0.00  0.00    +0.160 C 
ATOM     25  N   LIG    1       -3.794   2.134   7.634  0.00  0.00    -0.520 NA
ATOM     26  C   LIG    1       -2.420   2.635   7.793  0.00  0.00    +0.150 C 
ATOM     27  C   LIG    1       -1.814   2.048   9.070  0.00  0.00    +0.220 C 
ATOM     28  O   LIG    1       -1.865   0.620   9.004  0.00  0.00    -0.380 OA
ENDBRANCH  21  25
ENDBRANCH   1  21
TORSDOF 5
