REMARK  Name = ZINCqH00000388AS.0
REMARK                            x       y       z     vdW  Elec       q    Type
REMARK                         _______ _______ _______ _____ _____    ______ ____
ROOT
ATOM      1  N   LIG    1        5.960   2.298  -0.356  0.00  0.00    -0.720 N 
ATOM      2  H   LIG    1        5.771   3.249  -0.333  0.00  0.00    +0.410 HD
ATOM      3  C   LIG    1        7.230   1.866  -0.481  0.00  0.00    +0.520 C 
ATOM      4  O   LIG    1        7.465   0.676  -0.509  0.00  0.00    -0.520 OA
ENDROOT
BRANCH   1   5
ATOM      5  C   LIG    1        4.863   1.332  -0.254  0.00  0.00    +0.310 C 
BRANCH   5   8
ATOM      6  N   LIG    1        2.402   1.379  -0.014  0.00  0.00    -0.660 N 
ATOM      7  H   LIG    1        2.420   0.412   0.061  0.00  0.00    +0.420 HD
ATOM      8  C   LIG    1        3.555   2.068  -0.123  0.00  0.00    +0.510 C 
ATOM      9  O   LIG    1        3.540   3.281  -0.116  0.00  0.00    -0.510 OA
BRANCH   6  14
ATOM     10  C   LIG    1       -2.560   4.135   0.002  0.00  0.00    +0.100 C 
ATOM     11  C   LIG    1       -1.243   3.403  -0.002  0.00  0.00    -0.070 A 
ATOM     12  C   LIG    1       -0.137   3.975  -0.603  0.00  0.00    +0.020 A 
ATOM     13  C   LIG    1        1.072   3.306  -0.609  0.00  0.00    +0.060 A 
ATOM     14  C   LIG    1        1.177   2.059  -0.009  0.00  0.00    +0.110 A 
ATOM     15  C   LIG    1        0.064   1.486   0.595  0.00  0.00    +0.070 A 
ATOM     16  F   LIG    1        0.161   0.271   1.180  0.00  0.00    -0.140 F 
ATOM     17  C   LIG    1       -1.145   2.158   0.592  0.00  0.00    +0.010 A 
ENDBRANCH   6  14
ENDBRANCH   5   8
ENDBRANCH   1   5
BRANCH   3  18
ATOM     18  C   LIG    1        8.357   2.860  -0.587  0.00  0.00    +0.070 C 
BRANCH  18  19
ATOM     19  C   LIG    1        9.686   2.112  -0.719  0.00  0.00    -0.030 C 
ATOM     20  C   LIG    1        9.656   1.239  -1.975  0.00  0.00    +0.030 C 
ATOM     21  C   LIG    1       10.985   0.492  -2.108  0.00  0.00    -0.010 C 
ATOM     22  C   LIG    1       11.197  -0.392  -0.877  0.00  0.00    +0.010 C 
ATOM     23  C   LIG    1       11.227   0.481   0.379  0.00  0.00    -0.010 C 
ATOM     24  C   LIG    1       12.371   1.490   0.272  0.00  0.00    +0.010 C 
ATOM     25  C   LIG    1       12.159   2.374  -0.958  0.00  0.00    -0.010 C 
ATOM     26  C   LIG    1       12.130   1.501  -2.215  0.00  0.00    +0.010 C 
ATOM     27  C   LIG    1        9.898   1.228   0.511  0.00  0.00    +0.030 C 
ATOM     28  C   LIG    1       10.831   3.122  -0.826  0.00  0.00    +0.020 C 
ENDBRANCH  18  19
ENDBRANCH   3  18
TORSDOF 5
