REMARK  Name = ZINCrH00000tj10f.0
REMARK                            x       y       z     vdW  Elec       q    Type
REMARK                         _______ _______ _______ _____ _____    ______ ____
ROOT
ATOM      1  C   LIG    1       -1.279  -2.160   0.003  0.00  0.00    +0.260 C 
ATOM      2  C   LIG    1       -2.802  -2.395   0.016  0.00  0.00    +0.090 C 
ATOM      3  C   LIG    1       -3.386  -1.000   0.029  0.00  0.00    +0.140 C 
ATOM      4  N   LIG    1       -2.432  -0.135   0.031  0.00  0.00    -0.240 NA
ATOM      5  N   LIG    1       -1.156  -0.694   0.009  0.00  0.00    -0.470 N 
ATOM      6  C   LIG    1        0.002  -0.004   0.002  0.00  0.00    +0.550 C 
ATOM      7  O   LIG    1        1.061  -0.596  -0.011  0.00  0.00    -0.510 OA
ATOM      8  C   LIG    1       -0.018   1.503   0.010  0.00  0.00    +0.110 C 
ENDROOT
BRANCH   3   9
ATOM      9  C   LIG    1       -4.825  -0.680   0.044  0.00  0.00    -0.040 A 
ATOM     10  C   LIG    1       -5.773  -1.707   0.042  0.00  0.00    +0.050 A 
ATOM     11  C   LIG    1       -7.117  -1.401   0.062  0.00  0.00    +0.010 A 
ATOM     12  C   LIG    1       -7.529  -0.079   0.073  0.00  0.00    -0.060 A 
ATOM     13  C   LIG    1       -6.596   0.943   0.070  0.00  0.00    +0.010 A 
ATOM     14  C   LIG    1       -9.000   0.248   0.089  0.00  0.00    +0.100 C 
ATOM     15  C   LIG    1       -5.248   0.651   0.056  0.00  0.00    +0.060 A 
ENDBRANCH   3   9
BRANCH   1  18
ATOM     16  C   LIG    1        0.614  -4.457  -2.326  0.00  0.00    +0.150 A 
ATOM     17  C   LIG    1        0.047  -3.922  -1.180  0.00  0.00    -0.070 A 
ATOM     18  C   LIG    1       -0.664  -2.738  -1.246  0.00  0.00    -0.020 A 
ATOM     19  C   LIG    1       -0.817  -2.086  -2.455  0.00  0.00    -0.090 A 
ATOM     20  C   LIG    1       -0.248  -2.612  -3.605  0.00  0.00    +0.150 A 
ATOM     21  C   LIG    1        0.467  -3.802  -3.543  0.00  0.00    +0.030 A 
BRANCH  16  23
ATOM     22  C   LIG    1        1.424  -6.240  -0.976  0.00  0.00    +0.240 C 
ATOM     23  O   LIG    1        1.313  -5.622  -2.260  0.00  0.00    -0.300 OA
ENDBRANCH  16  23
BRANCH  20  24
ATOM     24  O   LIG    1       -0.395  -1.967  -4.793  0.00  0.00    -0.300 OA
ATOM     25  C   LIG    1       -1.142  -0.749  -4.783  0.00  0.00    +0.260 C 
ENDBRANCH  20  24
BRANCH  21  26
ATOM     26  O   LIG    1        1.022  -4.325  -4.671  0.00  0.00    -0.310 OA
ATOM     27  C   LIG    1        0.217  -5.228  -5.431  0.00  0.00    +0.210 C 
ENDBRANCH  21  26
ENDBRANCH   1  18
TORSDOF 5
