REMARK  Name = ZINCrH00000No53u.0
REMARK                            x       y       z     vdW  Elec       q    Type
REMARK                         _______ _______ _______ _____ _____    ______ ____
ROOT
ATOM      1  C   LIG    1        0.260   5.768  -0.071  0.00  0.00    +0.250 C 
ENDROOT
BRANCH   1   4
ATOM      2  C   LIG    1       -0.848   2.759   1.927  0.00  0.00    +0.100 A 
ATOM      3  C   LIG    1       -0.201   3.549   0.991  0.00  0.00    +0.060 A 
ATOM      4  C   LIG    1       -0.440   4.911   0.952  0.00  0.00    -0.120 A 
ATOM      5  C   LIG    1       -1.315   5.488   1.853  0.00  0.00    -0.010 A 
ATOM      6  C   LIG    1       -1.959   4.706   2.794  0.00  0.00    -0.040 A 
ATOM      7  C   LIG    1       -1.728   3.340   2.834  0.00  0.00    +0.120 A 
BRANCH   2   9
ATOM      8  C   LIG    1        0.298   0.892   1.001  0.00  0.00    +0.240 C 
ATOM      9  O   LIG    1       -0.618   1.419   1.963  0.00  0.00    -0.300 OA
ENDBRANCH   2   9
BRANCH   7  10
ATOM     10  O   LIG    1       -2.362   2.570   3.759  0.00  0.00    -0.300 OA
BRANCH  10  11
ATOM     11  C   LIG    1       -3.252   3.234   4.658  0.00  0.00    +0.180 C 
BRANCH  11  12
ATOM     12  C   LIG    1       -3.865   2.212   5.616  0.00  0.00    -0.010 C 
ATOM     13  C   LIG    1       -4.741   1.235   4.829  0.00  0.00    +0.020 C 
ATOM     14  C   LIG    1       -4.720   2.938   6.657  0.00  0.00    +0.040 C 
ENDBRANCH  11  12
ENDBRANCH  10  11
ENDBRANCH   7  10
ENDBRANCH   1   4
BRANCH   1  15
ATOM     15  N   LIG    1        0.668   7.036   0.550  0.00  0.00    -0.510 N 
ATOM     16  H   LIG    1        1.219   6.845   1.374  0.00  0.00    +0.420 HD
ATOM     17  H   LIG    1       -0.152   7.564   0.807  0.00  0.00    +0.420 HD
BRANCH  15  18
ATOM     18  C   LIG    1        1.470   7.813  -0.406  0.00  0.00    +0.320 C 
BRANCH  18  19
ATOM     19  C   LIG    1        1.997   9.052   0.272  0.00  0.00    -0.210 A 
ATOM     20  C   LIG    1        1.373  10.275   0.082  0.00  0.00    +0.110 A 
ATOM     21  C   LIG    1        1.892  11.388   0.725  0.00  0.00    -0.030 A 
ATOM     22  C   LIG    1        3.007  11.242   1.529  0.00  0.00    +0.300 A 
ATOM     23  N   LIG    1        3.575  10.062   1.686  0.00  0.00    -0.480 NA
ATOM     24  C   LIG    1        3.105   8.982   1.095  0.00  0.00    +0.160 A 
ATOM     25  C   LIG    1        3.788   7.656   1.313  0.00  0.00    +0.140 C 
ENDBRANCH  18  19
ENDBRANCH  15  18
ENDBRANCH   1  15
BRANCH   1  26
ATOM     26  C   LIG    1       -0.691   6.053  -1.235  0.00  0.00    -0.050 C 
BRANCH  26  27
ATOM     27  C   LIG    1       -0.977   4.772  -1.975  0.00  0.00    +0.500 C 
ATOM     28  O   LIG    1       -1.811   4.755  -2.864  0.00  0.00    -0.670 OA
ATOM     29  O   LIG    1       -0.374   3.753  -1.685  0.00  0.00    -0.680 OA
ENDBRANCH  26  27
ENDBRANCH   1  26
TORSDOF 10
