REMARK  Name = ZINCrH000004mhQ5.1
REMARK                            x       y       z     vdW  Elec       q    Type
REMARK                         _______ _______ _______ _____ _____    ______ ____
ROOT
ATOM      1  C   LIG    1        0.209   6.050  -0.473  0.00  0.00    +0.180 C 
ATOM      2  C   LIG    1       -0.929   6.751  -1.219  0.00  0.00    +0.050 C 
ENDROOT
BRANCH   1   5
ATOM      3  C   LIG    1       -0.985   2.906   1.249  0.00  0.00    +0.100 A 
ATOM      4  C   LIG    1       -0.451   3.763   0.301  0.00  0.00    -0.030 A 
ATOM      5  C   LIG    1       -0.368   5.119   0.562  0.00  0.00    -0.090 A 
ATOM      6  C   LIG    1       -0.807   5.620   1.773  0.00  0.00    +0.030 A 
ATOM      7  C   LIG    1       -1.336   4.770   2.726  0.00  0.00    -0.040 A 
ATOM      8  C   LIG    1       -1.427   3.412   2.469  0.00  0.00    +0.110 A 
BRANCH   3  10
ATOM      9  C   LIG    1       -0.599   1.127  -0.281  0.00  0.00    +0.230 C 
ATOM     10  O   LIG    1       -1.072   1.574   0.992  0.00  0.00    -0.310 OA
ENDBRANCH   3  10
BRANCH   8  11
ATOM     11  O   LIG    1       -1.946   2.574   3.405  0.00  0.00    -0.300 OA
BRANCH  11  12
ATOM     12  C   LIG    1       -2.490   3.174   4.583  0.00  0.00    +0.150 C 
ATOM     13  C   LIG    1       -1.369   3.416   5.595  0.00  0.00    +0.020 C 
ATOM     14  C   LIG    1       -3.536   2.240   5.194  0.00  0.00    +0.070 C 
ENDBRANCH  11  12
ENDBRANCH   8  11
ENDBRANCH   1   5
BRANCH   1  15
ATOM     15  N   LIG    1        1.053   7.054   0.188  0.00  0.00    -0.680 NA
ATOM     16  H   LIG    1        1.482   6.676   1.019  0.00  0.00    +0.350 HD
BRANCH  15  17
ATOM     17  C   LIG    1        2.067   7.580  -0.736  0.00  0.00    +0.250 C 
BRANCH  17  18
ATOM     18  C   LIG    1        2.911   8.606  -0.024  0.00  0.00    -0.220 A 
ATOM     19  C   LIG    1        2.557   9.945  -0.034  0.00  0.00    +0.360 A 
ATOM     20  N   LIG    1        3.318  10.819   0.604  0.00  0.00    -0.550 NA
ATOM     21  C   LIG    1        4.412  10.427   1.240  0.00  0.00    +0.490 A 
ATOM     22  N   LIG    1        4.781   9.155   1.265  0.00  0.00    -0.520 NA
ATOM     23  C   LIG    1        4.062   8.230   0.650  0.00  0.00    +0.350 A 
BRANCH  21  24
ATOM     24  N   LIG    1        5.188  11.369   1.893  0.00  0.00    -0.450 N 
ATOM     25  C   LIG    1        6.547  11.443   1.300  0.00  0.00    +0.200 C 
ATOM     26  C   LIG    1        7.059  12.832   1.758  0.00  0.00    +0.030 C 
ATOM     27  C   LIG    1        5.790  13.711   1.678  0.00  0.00    +0.020 C 
ATOM     28  C   LIG    1        4.611  12.723   1.749  0.00  0.00    +0.220 C 
ENDBRANCH  21  24
ENDBRANCH  17  18
ENDBRANCH  15  17
ENDBRANCH   1  15
TORSDOF 8
