REMARK  Name = ZINCqH00000059en.0
REMARK                            x       y       z     vdW  Elec       q    Type
REMARK                         _______ _______ _______ _____ _____    ______ ____
ROOT
ATOM      1  C   LIG    1       -1.283   3.091   1.606  0.00  0.00    +0.200 C 
ENDROOT
BRANCH   1   2
ATOM      2  C   LIG    1       -2.268   3.542   0.558  0.00  0.00    +0.510 C 
ATOM      3  N   LIG    1       -2.618   4.840   0.475  0.00  0.00    -0.740 N 
ATOM      4  H   LIG    1       -2.235   5.486   1.090  0.00  0.00    +0.400 HD
ATOM      5  O   LIG    1       -2.746   2.735  -0.212  0.00  0.00    -0.510 OA
BRANCH   3   6
ATOM      6  C   LIG    1       -3.575   5.278  -0.544  0.00  0.00    +0.270 C 
BRANCH   6   7
ATOM      7  C   LIG    1       -3.796   6.787  -0.422  0.00  0.00    +0.080 C 
BRANCH   7   8
ATOM      8  C   LIG    1       -4.780   7.237  -1.470  0.00  0.00    -0.060 A 
ATOM      9  C   LIG    1       -4.326   7.740  -2.674  0.00  0.00    +0.040 A 
ATOM     10  C   LIG    1       -5.229   8.148  -3.639  0.00  0.00    +0.040 A 
ATOM     11  C   LIG    1       -6.587   8.064  -3.395  0.00  0.00    +0.040 A 
ATOM     12  C   LIG    1       -7.043   7.566  -2.188  0.00  0.00    -0.030 A 
ATOM     13 CL   LIG    1       -8.749   7.460  -1.881  0.00  0.00    -0.040 Cl
ATOM     14  C   LIG    1       -6.139   7.152  -1.224  0.00  0.00    -0.030 A 
ATOM     15 CL   LIG    1       -6.711   6.526   0.291  0.00  0.00    -0.040 Cl
ENDBRANCH   7   8
ENDBRANCH   6   7
ENDBRANCH   3   6
ENDBRANCH   1   2
BRANCH   1  17
ATOM     16  C   LIG    1       -0.186   1.330   0.358  0.00  0.00    +0.210 C 
ATOM     17  N   LIG    1       -1.071   1.643   1.488  0.00  0.00    -0.510 NA
BRANCH  17  18
ATOM     18  C   LIG    1       -0.543   1.085   2.740  0.00  0.00    +0.220 C 
BRANCH  18  19
ATOM     19  C   LIG    1       -1.013  -0.339   2.893  0.00  0.00    -0.070 A 
ATOM     20  C   LIG    1       -1.391  -1.065   1.780  0.00  0.00    +0.030 A 
ATOM     21  C   LIG    1       -1.818  -2.373   1.920  0.00  0.00    +0.000 A 
ATOM     22  C   LIG    1       -1.875  -2.951   3.174  0.00  0.00    +0.000 A 
ATOM     23  C   LIG    1       -1.501  -2.223   4.288  0.00  0.00    +0.000 A 
ATOM     24  C   LIG    1       -1.070  -0.917   4.148  0.00  0.00    +0.000 A 
ENDBRANCH  18  19
BRANCH  18  25
ATOM     25  C   LIG    1        0.986   1.116   2.708  0.00  0.00    +0.010 C 
BRANCH  25  26
ATOM     26  C   LIG    1        1.466   2.569   2.703  0.00  0.00    +0.170 C 
BRANCH  26  27
ATOM     27  O   LIG    1        2.891   2.600   2.804  0.00  0.00    -0.570 OA
ATOM     28  H   LIG    1        3.266   3.492   2.806  0.00  0.00    +0.380 HD
ENDBRANCH  26  27
ENDBRANCH  25  26
ENDBRANCH  18  25
ENDBRANCH  17  18
ENDBRANCH   1  17
TORSDOF 10
