REMARK  Name = ZINCqH0000034msM.0
REMARK                            x       y       z     vdW  Elec       q    Type
REMARK                         _______ _______ _______ _____ _____    ______ ____
ROOT
ATOM      1  C   LIG    1       -5.065  -1.032   4.343  0.00  0.00    +0.680 C 
ATOM      2  N   LIG    1       -5.612  -1.294   5.547  0.00  0.00    -0.720 N 
ATOM      3  H   LIG    1       -5.198  -0.951   6.354  0.00  0.00    +0.410 HD
ATOM      4  O   LIG    1       -5.586  -1.464   3.330  0.00  0.00    -0.650 OA
ENDROOT
BRANCH   1  10
ATOM      5  N   LIG    1       -3.014   0.042   0.876  0.00  0.00    -0.380 N 
ATOM      6  N   LIG    1       -3.885  -0.456   1.855  0.00  0.00    -0.490 N 
ATOM      7  H   LIG    1       -4.676  -0.995   1.700  0.00  0.00    +0.450 HD
ATOM      8  C   LIG    1       -3.410  -0.038   3.075  0.00  0.00    +0.500 A 
ATOM      9  C   LIG    1       -2.240   0.715   2.833  0.00  0.00    -0.090 A 
ATOM     10  N   LIG    1       -3.950  -0.297   4.261  0.00  0.00    -0.660 NA
ATOM     11  C   LIG    1       -2.028   0.750   1.500  0.00  0.00    +0.210 A 
BRANCH  11  12
ATOM     12  C   LIG    1       -0.885   1.452   0.814  0.00  0.00    +0.010 C 
ATOM     13  C   LIG    1       -1.141   2.864   0.282  0.00  0.00    +0.050 C 
ATOM     14  C   LIG    1       -0.270   2.661   1.523  0.00  0.00    +0.070 C 
ENDBRANCH  11  12
BRANCH   5  16
ATOM     15  C   LIG    1       -2.300  -1.371  -0.989  0.00  0.00    +0.030 C 
ATOM     16  C   LIG    1       -3.140  -0.162  -0.569  0.00  0.00    +0.320 C 
ENDBRANCH   5  16
ENDBRANCH   1  10
BRANCH   2  17
ATOM     17  C   LIG    1       -6.833  -2.099   5.636  0.00  0.00    +0.320 C 
BRANCH  17  18
ATOM     18  C   LIG    1       -7.234  -2.244   7.082  0.00  0.00    -0.100 A 
ATOM     19  C   LIG    1       -6.759  -3.310   7.825  0.00  0.00    +0.040 A 
ATOM     20  C   LIG    1       -7.118  -3.445   9.150  0.00  0.00    +0.030 A 
ATOM     21  C   LIG    1       -7.971  -2.510   9.738  0.00  0.00    -0.010 A 
ATOM     22  C   LIG    1       -8.452  -1.441   8.981  0.00  0.00    +0.030 A 
ATOM     23  C   LIG    1       -8.081  -1.314   7.658  0.00  0.00    +0.040 A 
BRANCH  21  24
ATOM     24  C   LIG    1       -8.365  -2.653  11.156  0.00  0.00    -0.010 A 
ATOM     25  C   LIG    1       -7.982  -3.639  12.007  0.00  0.00    +0.170 A 
ATOM     26  N   LIG    1       -8.559  -3.395  13.193  0.00  0.00    -0.490 NA
ATOM     27  C   LIG    1       -9.278  -2.312  13.098  0.00  0.00    +0.430 A 
ATOM     28  O   LIG    1       -9.180  -1.830  11.852  0.00  0.00    -0.200 OA
ENDBRANCH  21  24
ENDBRANCH  17  18
ENDBRANCH   2  17
TORSDOF 6
