REMARK  Name = ZINCnE000001D8xi.0
REMARK                            x       y       z     vdW  Elec       q    Type
REMARK                         _______ _______ _______ _____ _____    ______ ____
ROOT
ATOM      1  N   LIG    1        0.002  -0.004   0.002  0.00  0.00    -0.680 NA
ATOM      2  C   LIG    1       -1.156  -0.694   0.009  0.00  0.00    +0.460 C 
ATOM      3  O   LIG    1       -2.214  -0.102   0.023  0.00  0.00    -0.570 OA
ENDROOT
BRANCH   1   7
ATOM      4  C   LIG    1        0.298   3.811   0.020  0.00  0.00    -0.070 A 
ATOM      5  N   LIG    1       -0.924   3.382   0.029  0.00  0.00    -0.230 NA
ATOM      6  N   LIG    1       -1.082   2.129   0.018  0.00  0.00    -0.370 NA
ATOM      7  C   LIG    1       -0.017   1.387   0.010  0.00  0.00    +0.290 A 
ATOM      8  S   LIG    1        1.361   2.404   0.002  0.00  0.00    -0.010 S 
BRANCH   4  10
ATOM      9  C   LIG    1        0.201   5.944   1.282  0.00  0.00    +0.030 C 
ATOM     10  C   LIG    1        0.733   5.254   0.024  0.00  0.00    +0.040 C 
ATOM     11  C   LIG    1        0.178   5.957  -1.216  0.00  0.00    +0.030 C 
ATOM     12  C   LIG    1        2.261   5.326   0.010  0.00  0.00    +0.040 C 
ENDBRANCH   4  10
ENDBRANCH   1   7
BRANCH   2  13
ATOM     13  C   LIG    1       -1.135  -2.201   0.001  0.00  0.00    +0.060 C 
BRANCH  13  14
ATOM     14  C   LIG    1       -2.571  -2.730   0.012  0.00  0.00    +0.030 C 
ATOM     15  C   LIG    1       -3.274  -2.321  -1.284  0.00  0.00    +0.240 C 
ATOM     16  O   LIG    1       -4.516  -3.029  -1.370  0.00  0.00    -0.380 OA
ATOM     17  C   LIG    1       -4.350  -4.423  -1.624  0.00  0.00    +0.260 C 
ATOM     18  C   LIG    1       -3.386  -5.023  -0.633  0.00  0.00    -0.120 A 
ATOM     19  C   LIG    1       -3.345  -6.402  -0.496  0.00  0.00    +0.000 A 
ATOM     20  C   LIG    1       -2.467  -6.987   0.396  0.00  0.00    -0.010 A 
ATOM     21  C   LIG    1       -1.627  -6.195   1.155  0.00  0.00    +0.000 A 
ATOM     22  C   LIG    1       -1.669  -4.821   1.021  0.00  0.00    +0.010 A 
ATOM     23  C   LIG    1       -2.550  -4.233   0.128  0.00  0.00    -0.060 A 
ENDBRANCH  13  14
ENDBRANCH   2  13
TORSDOF 4
