REMARK  Name = ZINCkj00000y7Hbw.1
REMARK                            x       y       z     vdW  Elec       q    Type
REMARK                         _______ _______ _______ _____ _____    ______ ____
ROOT
ATOM      1  N   LIG    1        6.519   0.453   3.203  0.00  0.00    -0.380 N 
ATOM      2  C   LIG    1        6.392   1.800   3.772  0.00  0.00    +0.250 C 
ATOM      3  C   LIG    1        4.919   2.098   4.061  0.00  0.00    +0.070 C 
ATOM      4  C   LIG    1        4.122   2.016   2.757  0.00  0.00    +0.060 C 
ATOM      5  C   LIG    1        4.322   0.632   2.134  0.00  0.00    -0.010 C 
ATOM      6  C   LIG    1        5.816   0.388   1.916  0.00  0.00    +0.290 C 
ATOM      7  H   LIG    1        6.116  -0.219   3.838  0.00  0.00    +0.420 HD
ENDROOT
BRANCH   5   8
ATOM      8  C   LIG    1        3.603   0.567   0.811  0.00  0.00    +0.530 C 
ATOM      9  N   LIG    1        2.270   0.757   0.758  0.00  0.00    -0.690 N 
ATOM     10  H   LIG    1        1.773   0.936   1.572  0.00  0.00    +0.400 HD
ATOM     11  O   LIG    1        4.224   0.343  -0.206  0.00  0.00    -0.530 OA
BRANCH   9  12
ATOM     12  C   LIG    1        1.571   0.694  -0.528  0.00  0.00    +0.210 C 
ATOM     13  C   LIG    1        0.251   1.458  -0.653  0.00  0.00    +0.030 C 
ATOM     14  C   LIG    1        0.246  -0.070  -0.576  0.00  0.00    +0.020 C 
ENDBRANCH   9  12
ENDBRANCH   5   8
BRANCH   1  15
ATOM     15  C   LIG    1        7.940   0.141   2.999  0.00  0.00    +0.270 C 
BRANCH  15  21
ATOM     16  C   LIG    1        7.244  -4.560   4.266  0.00  0.00    +0.200 C 
ATOM     17  N   LIG    1        7.793  -3.642   3.260  0.00  0.00    -0.540 NA
ATOM     18  C   LIG    1        9.199  -3.955   2.973  0.00  0.00    +0.180 C 
ATOM     19  C   LIG    1        9.694  -3.077   1.822  0.00  0.00    +0.040 C 
ATOM     20  C   LIG    1        9.549  -1.603   2.211  0.00  0.00    +0.040 C 
ATOM     21  C   LIG    1        8.084  -1.315   2.551  0.00  0.00    -0.010 C 
ATOM     22  C   LIG    1        7.636  -2.244   3.682  0.00  0.00    +0.160 C 
ENDBRANCH  15  21
ENDBRANCH   1  15
TORSDOF 4
