REMARK  Name = ZINCkj00000y7Hbw.2
REMARK                            x       y       z     vdW  Elec       q    Type
REMARK                         _______ _______ _______ _____ _____    ______ ____
ROOT
ATOM      1  N   LIG    1       -0.723   1.572  -1.182  0.00  0.00    -0.390 N 
ATOM      2  C   LIG    1       -2.061   0.971  -1.231  0.00  0.00    +0.240 C 
ATOM      3  C   LIG    1       -2.836   1.538  -2.423  0.00  0.00    +0.050 C 
ATOM      4  C   LIG    1       -2.082   1.211  -3.715  0.00  0.00    +0.070 C 
ATOM      5  C   LIG    1       -0.662   1.778  -3.623  0.00  0.00    +0.010 C 
ATOM      6  C   LIG    1        0.032   1.203  -2.386  0.00  0.00    +0.300 C 
ATOM      7  H   LIG    1       -0.808   2.577  -1.135  0.00  0.00    +0.430 HD
ENDROOT
BRANCH   5   8
ATOM      8  C   LIG    1       -0.725   3.279  -3.513  0.00  0.00    +0.520 C 
ATOM      9  N   LIG    1       -1.297   4.003  -4.495  0.00  0.00    -0.680 N 
ATOM     10  H   LIG    1       -1.668   3.558  -5.273  0.00  0.00    +0.410 HD
ATOM     11  O   LIG    1       -0.262   3.836  -2.540  0.00  0.00    -0.550 OA
BRANCH   9  12
ATOM     12  C   LIG    1       -1.359   5.463  -4.388  0.00  0.00    +0.200 C 
ATOM     13  C   LIG    1       -2.675   6.144  -4.769  0.00  0.00    +0.030 C 
ATOM     14  C   LIG    1       -1.457   6.263  -5.689  0.00  0.00    +0.030 C 
ENDBRANCH   9  12
ENDBRANCH   5   8
BRANCH   1  15
ATOM     15  C   LIG    1       -0.013   1.086   0.008  0.00  0.00    +0.260 C 
BRANCH  15  21
ATOM     16  C   LIG    1       -1.359   5.045   2.597  0.00  0.00    +0.200 C 
ATOM     17  N   LIG    1       -1.306   3.577   2.561  0.00  0.00    -0.540 NA
ATOM     18  C   LIG    1       -0.655   3.044   3.764  0.00  0.00    +0.180 C 
ATOM     19  C   LIG    1       -0.748   1.517   3.762  0.00  0.00    +0.040 C 
ATOM     20  C   LIG    1       -0.064   0.971   2.505  0.00  0.00    +0.040 C 
ATOM     21  C   LIG    1       -0.729   1.579   1.267  0.00  0.00    -0.010 C 
ATOM     22  C   LIG    1       -0.637   3.105   1.342  0.00  0.00    +0.170 C 
ENDBRANCH  15  21
ENDBRANCH   1  15
TORSDOF 4
