REMARK  Name = ZINCpe000000YlhY.0
REMARK                            x       y       z     vdW  Elec       q    Type
REMARK                         _______ _______ _______ _____ _____    ______ ____
ROOT
ATOM      1  N   LIG    1        1.455   2.316  -2.270  0.00  0.00    -0.560 N 
ATOM      2  C   LIG    1        2.007   1.306  -1.349  0.00  0.00    +0.270 C 
ATOM      3  C   LIG    1        1.286   1.562  -0.002  0.00  0.00    +0.180 C 
ATOM      4  C   LIG    1        1.184   3.110   0.007  0.00  0.00    +0.080 C 
ATOM      5  C   LIG    1        0.953   3.450  -1.480  0.00  0.00    +0.350 C 
ENDROOT
BRANCH   1  11
ATOM      6  C   LIG    1        2.414  -0.197  -6.395  0.00  0.00    +0.320 C 
ATOM      7  N   LIG    1        1.893   0.970  -5.677  0.00  0.00    -0.480 N 
ATOM      8  C   LIG    1        1.343   2.012  -6.361  0.00  0.00    +0.160 A 
ATOM      9  C   LIG    1        0.860   3.091  -5.709  0.00  0.00    +0.190 A 
ATOM     10  N   LIG    1        0.899   3.182  -4.380  0.00  0.00    -0.500 NA
ATOM     11  C   LIG    1        1.417   2.214  -3.654  0.00  0.00    +0.380 A 
ATOM     12  C   LIG    1        1.958   1.028  -4.328  0.00  0.00    +0.490 A 
ATOM     13  O   LIG    1        2.449   0.115  -3.686  0.00  0.00    -0.530 OA
ENDBRANCH   1  11
BRANCH   5  14
ATOM     14  C   LIG    1        1.710   4.702  -1.843  0.00  0.00    +0.190 A 
ATOM     15  N   LIG    1        2.910   4.759  -2.353  0.00  0.00    -0.270 NA
ATOM     16  N   LIG    1        3.252   5.984  -2.540  0.00  0.00    -0.270 NA
ATOM     17  C   LIG    1        2.279   6.780  -2.155  0.00  0.00    +0.220 A 
ATOM     18  N   LIG    1        1.264   5.980  -1.705  0.00  0.00    -0.580 N 
ATOM     19  H   LIG    1        0.405   6.266  -1.357  0.00  0.00    +0.430 HD
BRANCH  17  20
ATOM     20  C   LIG    1        2.279   8.258  -2.207  0.00  0.00    -0.020 A 
ATOM     21  C   LIG    1        1.165   8.974  -1.767  0.00  0.00    +0.010 A 
ATOM     22  C   LIG    1        1.173  10.353  -1.813  0.00  0.00    +0.010 A 
ATOM     23  C   LIG    1        2.278  11.025  -2.304  0.00  0.00    +0.020 A 
ATOM     24  C   LIG    1        3.384  10.321  -2.746  0.00  0.00    +0.010 A 
ATOM     25  C   LIG    1        3.390   8.942  -2.701  0.00  0.00    +0.070 A 
ENDBRANCH  17  20
ENDBRANCH   5  14
BRANCH   3  26
ATOM     26  O   LIG    1       -0.011   0.963   0.007  0.00  0.00    -0.560 OA
ATOM     27  H   LIG    1        0.002  -0.004   0.002  0.00  0.00    +0.390 HD
ENDBRANCH   3  26
TORSDOF 4
