REMARK  Name = ZINCpe000000YlhY.1
REMARK                            x       y       z     vdW  Elec       q    Type
REMARK                         _______ _______ _______ _____ _____    ______ ____
ROOT
ATOM      1  N   LIG    1        1.509   2.200  -2.301  0.00  0.00    -0.570 N 
ATOM      2  C   LIG    1        2.038   1.238  -1.317  0.00  0.00    +0.270 C 
ATOM      3  C   LIG    1        1.286   1.562  -0.002  0.00  0.00    +0.180 C 
ATOM      4  C   LIG    1        1.184   3.108  -0.073  0.00  0.00    +0.080 C 
ATOM      5  C   LIG    1        0.989   3.372  -1.582  0.00  0.00    +0.360 C 
ENDROOT
BRANCH   1  11
ATOM      6  C   LIG    1        2.564  -0.520  -6.268  0.00  0.00    +0.320 C 
ATOM      7  N   LIG    1        2.025   0.680  -5.624  0.00  0.00    -0.480 N 
ATOM      8  C   LIG    1        1.489   1.686  -6.373  0.00  0.00    +0.160 A 
ATOM      9  C   LIG    1        0.990   2.795  -5.788  0.00  0.00    +0.190 A 
ATOM     10  N   LIG    1        1.000   2.955  -4.465  0.00  0.00    -0.500 NA
ATOM     11  C   LIG    1        1.501   2.026  -3.679  0.00  0.00    +0.370 A 
ATOM     12  C   LIG    1        2.058   0.808  -4.278  0.00  0.00    +0.490 A 
ATOM     13  O   LIG    1        2.535  -0.070  -3.579  0.00  0.00    -0.530 OA
ENDBRANCH   1  11
BRANCH   5  14
ATOM     14  C   LIG    1        1.751   4.605  -1.993  0.00  0.00    +0.230 A 
ATOM     15  N   LIG    1        3.051   4.689  -2.106  0.00  0.00    -0.300 NA
ATOM     16  N   LIG    1        3.344   6.002  -2.510  0.00  0.00    -0.480 N 
ATOM     17  H   LIG    1        4.222   6.377  -2.681  0.00  0.00    +0.440 HD
ATOM     18  C   LIG    1        2.156   6.641  -2.610  0.00  0.00    +0.330 A 
ATOM     19  N   LIG    1        1.208   5.782  -2.294  0.00  0.00    -0.510 NA
BRANCH  18  20
ATOM     20  C   LIG    1        1.956   8.053  -3.003  0.00  0.00    -0.030 A 
ATOM     21  C   LIG    1        0.668   8.586  -3.071  0.00  0.00    +0.080 A 
ATOM     22  C   LIG    1        0.488   9.905  -3.433  0.00  0.00    +0.010 A 
ATOM     23  C   LIG    1        1.581  10.696  -3.740  0.00  0.00    +0.030 A 
ATOM     24  C   LIG    1        2.860  10.173  -3.680  0.00  0.00    +0.010 A 
ATOM     25  C   LIG    1        3.053   8.857  -3.313  0.00  0.00    +0.020 A 
ENDBRANCH  18  20
ENDBRANCH   5  14
BRANCH   3  26
ATOM     26  O   LIG    1       -0.011   0.963   0.007  0.00  0.00    -0.550 OA
ATOM     27  H   LIG    1        0.002  -0.004   0.002  0.00  0.00    +0.380 HD
ENDBRANCH   3  26
TORSDOF 4
