REMARK  Name = ZINCpe000000YlhY.2
REMARK                            x       y       z     vdW  Elec       q    Type
REMARK                         _______ _______ _______ _____ _____    ______ ____
ROOT
ATOM      1  N   LIG    1        3.334   2.421  -0.584  0.00  0.00    -0.560 N 
ATOM      2  C   LIG    1        4.297   2.867   0.440  0.00  0.00    +0.270 C 
ATOM      3  C   LIG    1        4.440   1.661   1.401  0.00  0.00    +0.180 C 
ATOM      4  C   LIG    1        2.990   1.111   1.430  0.00  0.00    +0.080 C 
ATOM      5  C   LIG    1        2.500   1.354  -0.013  0.00  0.00    +0.350 C 
ENDROOT
BRANCH   1  11
ATOM      6  C   LIG    1        4.865   5.524  -4.088  0.00  0.00    +0.330 C 
ATOM      7  N   LIG    1        3.994   4.456  -3.590  0.00  0.00    -0.480 N 
ATOM      8  C   LIG    1        3.038   3.913  -4.396  0.00  0.00    +0.160 A 
ATOM      9  C   LIG    1        2.231   2.929  -3.946  0.00  0.00    +0.190 A 
ATOM     10  N   LIG    1        2.337   2.446  -2.709  0.00  0.00    -0.500 NA
ATOM     11  C   LIG    1        3.233   2.925  -1.874  0.00  0.00    +0.380 A 
ATOM     12  C   LIG    1        4.129   3.996  -2.326  0.00  0.00    +0.490 A 
ATOM     13  O   LIG    1        4.975   4.460  -1.580  0.00  0.00    -0.530 OA
ENDBRANCH   1  11
BRANCH   5  14
ATOM     14  C   LIG    1        1.056   1.785   0.002  0.00  0.00    +0.290 A 
ATOM     15  N   LIG    1        0.626   3.019   0.011  0.00  0.00    -0.510 NA
ATOM     16  C   LIG    1       -0.714   3.032   0.024  0.00  0.00    +0.270 A 
ATOM     17  N   LIG    1       -1.148   1.790   0.017  0.00  0.00    -0.300 NA
ATOM     18  N   LIG    1       -0.011   0.966   0.007  0.00  0.00    -0.470 N 
ATOM     19  H   LIG    1        0.002  -0.004   0.002  0.00  0.00    +0.440 HD
BRANCH  16  20
ATOM     20  C   LIG    1       -1.567   4.246   0.037  0.00  0.00    -0.010 A 
ATOM     21  C   LIG    1       -0.983   5.511   0.044  0.00  0.00    +0.050 A 
ATOM     22  C   LIG    1       -1.782   6.637   0.051  0.00  0.00    +0.000 A 
ATOM     23  C   LIG    1       -3.159   6.511   0.063  0.00  0.00    +0.030 A 
ATOM     24  C   LIG    1       -3.744   5.258   0.062  0.00  0.00    +0.010 A 
ATOM     25  C   LIG    1       -2.955   4.125   0.050  0.00  0.00    +0.050 A 
ENDBRANCH  16  20
ENDBRANCH   5  14
BRANCH   3  26
ATOM     26  O   LIG    1        5.346   0.690   0.873  0.00  0.00    -0.560 OA
ATOM     27  H   LIG    1        6.265   0.989   0.836  0.00  0.00    +0.390 HD
ENDBRANCH   3  26
TORSDOF 4
