REMARK  Name = ZINCtV000002qLqB.0
REMARK                            x       y       z     vdW  Elec       q    Type
REMARK                         _______ _______ _______ _____ _____    ______ ____
ROOT
ATOM      1  C   LIG    1        0.078  -4.496   1.669  0.00  0.00    +0.220 A 
ATOM      2  N   LIG    1        0.063  -4.215   0.389  0.00  0.00    -0.260 NA
ATOM      3  N   LIG    1        0.044  -2.939   0.230  0.00  0.00    -0.280 NA
ATOM      4  C   LIG    1        0.047  -2.353   1.406  0.00  0.00    +0.130 A 
ATOM      5  O   LIG    1        0.074  -3.322   2.340  0.00  0.00    -0.200 OA
ENDROOT
BRANCH   1   9
ATOM      6  C   LIG    1        0.143  -8.377   3.392  0.00  0.00    -0.040 A 
ATOM      7  C   LIG    1        0.130  -8.234   2.016  0.00  0.00    +0.020 A 
ATOM      8  C   LIG    1        0.109  -6.977   1.450  0.00  0.00    +0.080 A 
ATOM      9  C   LIG    1        0.101  -5.846   2.268  0.00  0.00    -0.040 A 
ATOM     10  C   LIG    1        0.120  -5.997   3.656  0.00  0.00    +0.050 A 
ATOM     11  C   LIG    1        0.135  -7.260   4.210  0.00  0.00    +0.020 A 
BRANCH   6  13
ATOM     12  C   LIG    1        1.421 -10.497   3.541  0.00  0.00    +0.040 C 
ATOM     13  C   LIG    1        0.166  -9.754   4.004  0.00  0.00    -0.030 C 
ATOM     14  C   LIG    1       -1.078 -10.528   3.562  0.00  0.00    +0.040 C 
ATOM     15  C   LIG    1        0.177  -9.634   5.529  0.00  0.00    +0.030 C 
ENDBRANCH   6  13
ENDBRANCH   1   9
BRANCH   4  16
ATOM     16  S   LIG    1        0.026  -0.617   1.705  0.00  0.00    +0.110 S 
BRANCH  16  17
ATOM     17  C   LIG    1        0.002  -0.004   0.002  0.00  0.00    +0.220 C 
BRANCH  17  18
ATOM     18  C   LIG    1       -0.018   1.503   0.010  0.00  0.00    +0.300 A 
ATOM     19  N   LIG    1        1.038   2.263   0.004  0.00  0.00    -0.440 NA
ATOM     20  C   LIG    1        0.662   3.567   0.015  0.00  0.00    +0.050 A 
ATOM     21  C   LIG    1        1.367   4.773   0.014  0.00  0.00    +0.080 A 
ATOM     22  C   LIG    1        0.688   5.959   0.027  0.00  0.00    +0.020 A 
ATOM     23  C   LIG    1       -0.699   5.980   0.040  0.00  0.00    +0.050 A 
ATOM     24  C   LIG    1       -1.416   4.802   0.042  0.00  0.00    +0.020 A 
ATOM     25  C   LIG    1       -0.743   3.588   0.028  0.00  0.00    +0.070 A 
ATOM     26  N   LIG    1       -1.144   2.267   0.019  0.00  0.00    -0.540 N 
BRANCH  26  27
ATOM     27  C   LIG    1       -2.525   1.778   0.022  0.00  0.00    +0.640 C 
ATOM     28  F   LIG    1       -3.343   2.696   0.690  0.00  0.00    -0.170 F 
ATOM     29  F   LIG    1       -2.581   0.542   0.676  0.00  0.00    -0.170 F 
ENDBRANCH  26  27
ENDBRANCH  17  18
ENDBRANCH  16  17
ENDBRANCH   4  16
TORSDOF 6
