REMARK  Name = ZINCpe00000c8lz1.0
REMARK                            x       y       z     vdW  Elec       q    Type
REMARK                         _______ _______ _______ _____ _____    ______ ____
ROOT
ATOM      1  C   LIG    1       -2.191   2.200   3.075  0.00  0.00    +0.000 C 
ATOM      2  C   LIG    1       -1.713   3.654   3.130  0.00  0.00    +0.050 C 
ATOM      3  C   LIG    1       -2.702   4.479   3.956  0.00  0.00    +0.200 C 
ATOM      4  N   LIG    1       -2.794   3.923   5.312  0.00  0.00    -0.470 N 
ATOM      5  C   LIG    1       -3.297   2.544   5.287  0.00  0.00    +0.230 C 
ATOM      6  C   LIG    1       -2.325   1.660   4.501  0.00  0.00    +0.060 C 
ENDROOT
BRANCH   1   8
ATOM      7  O   LIG    1       -0.638   0.437   2.857  0.00  0.00    -0.530 OA
ATOM      8  C   LIG    1       -1.190   1.369   2.313  0.00  0.00    +0.550 C 
ATOM      9  N   LIG    1       -0.909   1.663   1.028  0.00  0.00    -0.640 N 
ATOM     10  C   LIG    1       -0.013   1.086   0.008  0.00  0.00    +0.320 C 
ATOM     11  C   LIG    1       -0.968   1.699  -1.032  0.00  0.00    +0.100 C 
ATOM     12  C   LIG    1       -1.374   2.691   0.073  0.00  0.00    +0.270 C 
BRANCH  11  13
ATOM     13  O   LIG    1       -2.022   0.822  -1.433  0.00  0.00    -0.530 OA
ATOM     14  H   LIG    1       -2.624   1.203  -2.086  0.00  0.00    +0.390 HD
ENDBRANCH  11  13
BRANCH  11  15
ATOM     15  C   LIG    1       -0.252   2.354  -2.215  0.00  0.00    +0.180 C 
BRANCH  15  16
ATOM     16  O   LIG    1       -1.213   2.992  -3.059  0.00  0.00    -0.570 OA
ATOM     17  H   LIG    1       -0.829   3.429  -3.831  0.00  0.00    +0.390 HD
ENDBRANCH  15  16
ENDBRANCH  11  15
ENDBRANCH   1   8
BRANCH   4  18
ATOM     18  C   LIG    1       -3.584   4.726   6.127  0.00  0.00    +0.340 A 
ATOM     19  C   LIG    1       -3.269   6.072   6.281  0.00  0.00    -0.040 A 
ATOM     20  C   LIG    1       -4.064   6.860   7.095  0.00  0.00    +0.150 A 
ATOM     21  C   LIG    1       -5.150   6.272   7.729  0.00  0.00    -0.270 A 
ATOM     22  C   LIG    1       -5.404   4.930   7.531  0.00  0.00    +0.360 A 
ATOM     23  N   LIG    1       -4.632   4.204   6.745  0.00  0.00    -0.520 NA
BRANCH  21  24
ATOM     24  C   LIG    1       -6.043   7.092   8.625  0.00  0.00    +0.520 C 
ATOM     25  F   LIG    1       -5.298   8.121   9.211  0.00  0.00    -0.180 F 
ATOM     26  F   LIG    1       -6.577   6.274   9.626  0.00  0.00    -0.170 F 
ATOM     27  F   LIG    1       -7.083   7.642   7.869  0.00  0.00    -0.180 F 
ENDBRANCH  21  24
ENDBRANCH   4  18
TORSDOF 6
