REMARK  Name = ZINCqH0000007afD.0
REMARK                            x       y       z     vdW  Elec       q    Type
REMARK                         _______ _______ _______ _____ _____    ______ ____
ROOT
ATOM      1  N   LIG    1       -6.020  -0.522   0.057  0.00  0.00    -0.610 N 
ATOM      2  C   LIG    1       -4.786   0.018   0.048  0.00  0.00    +0.520 C 
ATOM      3  O   LIG    1       -4.651   1.224   0.053  0.00  0.00    -0.500 OA
ATOM      4  C   LIG    1       -6.183  -1.978   0.051  0.00  0.00    +0.290 C 
ENDROOT
BRANCH   1   5
ATOM      5  C   LIG    1       -7.200   0.347   0.073  0.00  0.00    +0.350 C 
BRANCH   5   9
ATOM      6  C   LIG    1       -8.384   1.216  -3.942  0.00  0.00    +0.100 A 
ATOM      7  C   LIG    1       -7.480   2.040  -3.290  0.00  0.00    -0.040 A 
ATOM      8  C   LIG    1       -7.103   1.760  -1.990  0.00  0.00    +0.080 A 
ATOM      9  C   LIG    1       -7.618   0.653  -1.343  0.00  0.00    -0.120 A 
ATOM     10  C   LIG    1       -8.520  -0.172  -1.989  0.00  0.00    +0.040 A 
ATOM     11  C   LIG    1       -8.905   0.106  -3.288  0.00  0.00    +0.060 A 
ATOM     12  F   LIG    1       -9.786  -0.700  -3.920  0.00  0.00    -0.130 F 
BRANCH   6  14
ATOM     13  C   LIG    1       -8.184   2.650  -5.828  0.00  0.00    +0.250 C 
ATOM     14  O   LIG    1       -8.761   1.493  -5.218  0.00  0.00    -0.310 OA
ENDBRANCH   6  14
ENDBRANCH   5   9
ENDBRANCH   1   5
BRANCH   2  15
ATOM     15  C   LIG    1       -3.572  -0.875   0.032  0.00  0.00    +0.230 C 
BRANCH  15  16
ATOM     16  O   LIG    1       -2.390  -0.073   0.025  0.00  0.00    -0.260 OA
BRANCH  16  17
ATOM     17  C   LIG    1       -1.202  -0.727   0.010  0.00  0.00    +0.190 A 
ATOM     18  C   LIG    1       -1.170  -2.114   0.001  0.00  0.00    -0.070 A 
ATOM     19  C   LIG    1        0.039  -2.779  -0.014  0.00  0.00    +0.100 A 
ATOM     20  C   LIG    1        1.231  -2.070  -0.022  0.00  0.00    -0.090 A 
ATOM     21  C   LIG    1        1.221  -0.692  -0.019  0.00  0.00    +0.120 A 
ATOM     22 CL   LIG    1        2.743  -2.923  -0.041  0.00  0.00    -0.060 Cl
ATOM     23  C   LIG    1        0.002  -0.004   0.002  0.00  0.00    -0.190 A 
BRANCH  23  24
ATOM     24  C   LIG    1       -0.018   1.464   0.010  0.00  0.00    +0.390 C 
ATOM     25  O   LIG    1       -1.076   2.056   0.018  0.00  0.00    -0.420 OA
ATOM     26  C   LIG    1        1.277   2.235   0.002  0.00  0.00    +0.070 C 
ENDBRANCH  23  24
ENDBRANCH  16  17
ENDBRANCH  15  16
ENDBRANCH   2  15
TORSDOF 7
