REMARK  Name = ZINCpk000000nBoZ.0
REMARK                            x       y       z     vdW  Elec       q    Type
REMARK                         _______ _______ _______ _____ _____    ______ ____
ROOT
ATOM      1  N   LIG    1       -1.105   1.874   0.017  0.00  0.00    -0.280 N 
ATOM      2  C   LIG    1       -0.013   1.076   0.008  0.00  0.00    +0.170 A 
ATOM      3  C   LIG    1        1.058   1.903   0.002  0.00  0.00    -0.040 A 
ATOM      4  N   LIG    1        0.575   3.151   0.013  0.00  0.00    -0.240 NA
ATOM      5  N   LIG    1       -0.710   3.099   0.024  0.00  0.00    -0.070 NA
ENDROOT
BRANCH   1   9
ATOM      6  N   LIG    1       -2.735  -0.910   0.068  0.00  0.00    -0.610 N 
ATOM      7  C   LIG    1       -2.662  -0.483   1.470  0.00  0.00    +0.270 C 
ATOM      8  C   LIG    1       -2.939   1.037   1.452  0.00  0.00    +0.080 C 
ATOM      9  C   LIG    1       -2.499   1.421   0.021  0.00  0.00    +0.260 C 
ATOM     10  C   LIG    1       -2.641   0.138  -0.768  0.00  0.00    +0.510 C 
ATOM     11  O   LIG    1       -2.665   0.066  -1.979  0.00  0.00    -0.490 OA
BRANCH   6  13
ATOM     12  C   LIG    1       -4.179  -2.440  -1.180  0.00  0.00    +0.030 C 
ATOM     13  C   LIG    1       -2.892  -2.301  -0.365  0.00  0.00    +0.250 C 
ATOM     14  C   LIG    1       -1.695  -2.704  -1.230  0.00  0.00    +0.030 C 
ENDBRANCH   6  13
ENDBRANCH   1   9
BRANCH   3  15
ATOM     15  C   LIG    1        2.510   1.499  -0.013  0.00  0.00    +0.390 C 
BRANCH  15  16
ATOM     16  N   LIG    1        3.000   1.491  -1.394  0.00  0.00    -0.720 N 
ATOM     17  H   LIG    1        2.403   1.726  -2.122  0.00  0.00    +0.400 HD
ATOM     18  C   LIG    1        4.280   1.158  -1.653  0.00  0.00    +0.570 C 
ATOM     19  O   LIG    1        5.028   0.864  -0.741  0.00  0.00    -0.530 OA
BRANCH  18  20
ATOM     20  C   LIG    1        4.774   1.150  -3.046  0.00  0.00    -0.190 A 
ATOM     21  C   LIG    1        6.102   0.805  -3.328  0.00  0.00    +0.160 A 
ATOM     22  C   LIG    1        6.515   0.813  -4.648  0.00  0.00    +0.000 A 
ATOM     23  C   LIG    1        5.611   1.157  -5.639  0.00  0.00    +0.200 A 
ATOM     24  N   LIG    1        4.364   1.478  -5.343  0.00  0.00    -0.480 NA
ATOM     25 CL   LIG    1        6.124   1.168  -7.298  0.00  0.00    -0.020 Cl
ATOM     26  C   LIG    1        3.924   1.480  -4.102  0.00  0.00    +0.330 A 
ENDBRANCH  18  20
ENDBRANCH  15  16
ENDBRANCH   3  15
TORSDOF 5
