REMARK  Name = ZINCpk00000y5E4n.0
REMARK                            x       y       z     vdW  Elec       q    Type
REMARK                         _______ _______ _______ _____ _____    ______ ____
ROOT
ATOM      1  N   LIG    1        3.858   3.081  -2.249  0.00  0.00    -0.690 N 
ATOM      2  H   LIG    1        4.095   2.307  -1.715  0.00  0.00    +0.410 HD
ATOM      3  C   LIG    1        3.563   2.933  -3.556  0.00  0.00    +0.510 C 
ATOM      4  O   LIG    1        3.266   3.901  -4.224  0.00  0.00    -0.510 OA
ENDROOT
BRANCH   3   5
ATOM      5  C   LIG    1        3.602   1.577  -4.182  0.00  0.00    +0.500 C 
ATOM      6  N   LIG    1        3.195   1.410  -5.456  0.00  0.00    -0.590 N 
ATOM      7  C   LIG    1        2.789   2.571  -6.252  0.00  0.00    +0.300 C 
ATOM      8  O   LIG    1        4.001   0.625  -3.543  0.00  0.00    -0.510 OA
BRANCH   6   9
ATOM      9  C   LIG    1        3.158   0.069  -6.044  0.00  0.00    +0.280 C 
BRANCH   9  10
ATOM     10  C   LIG    1        1.786  -0.560  -5.793  0.00  0.00    +0.280 C 
BRANCH  10  11
ATOM     11  N   LIG    1        1.749  -1.901  -6.381  0.00  0.00    -0.620 N 
ATOM     12  C   LIG    1        1.318  -2.192  -7.753  0.00  0.00    +0.250 C 
ATOM     13  C   LIG    1        1.853  -3.611  -8.060  0.00  0.00    +0.040 C 
ATOM     14  C   LIG    1        1.949  -4.222  -6.643  0.00  0.00    +0.050 C 
ATOM     15  C   LIG    1        2.101  -3.024  -5.731  0.00  0.00    +0.510 C 
ATOM     16  O   LIG    1        2.483  -3.071  -4.581  0.00  0.00    -0.520 OA
ENDBRANCH  10  11
ENDBRANCH   9  10
ENDBRANCH   6   9
ENDBRANCH   3   5
BRANCH   1  18
ATOM     17  C   LIG    1        5.156   5.118  -1.866  0.00  0.00    +0.030 C 
ATOM     18  C   LIG    1        3.819   4.411  -1.635  0.00  0.00    +0.250 C 
BRANCH  18  19
ATOM     19  C   LIG    1        3.569   4.272  -0.132  0.00  0.00    +0.100 C 
BRANCH  19  20
ATOM     20  C   LIG    1        2.199   3.687   0.097  0.00  0.00    -0.070 A 
ATOM     21  C   LIG    1        2.037   2.317   0.177  0.00  0.00    +0.020 A 
ATOM     22  C   LIG    1        0.780   1.780   0.388  0.00  0.00    +0.030 A 
ATOM     23  C   LIG    1       -0.316   2.613   0.512  0.00  0.00    +0.020 A 
ATOM     24  C   LIG    1       -0.153   3.985   0.437  0.00  0.00    -0.030 A 
ATOM     25 CL   LIG    1       -1.528   5.032   0.600  0.00  0.00    -0.070 Cl
ATOM     26  C   LIG    1        1.104   4.522   0.226  0.00  0.00    +0.020 A 
ENDBRANCH  19  20
ENDBRANCH  18  19
ENDBRANCH   1  18
TORSDOF 7
