REMARK  Name = ZINCtV00000L6k4O.0
REMARK                            x       y       z     vdW  Elec       q    Type
REMARK                         _______ _______ _______ _____ _____    ______ ____
ROOT
ATOM      1  C   LIG    1        3.689   3.484   0.163  0.00  0.00    +0.270 A 
ATOM      2  C   LIG    1        4.021   2.156   0.099  0.00  0.00    -0.290 A 
ATOM      3  C   LIG    1        5.381   1.780   0.038  0.00  0.00    +0.530 A 
ATOM      4  O   LIG    1        6.365   2.692   0.030  0.00  0.00    -0.260 OA
ATOM      5  C   LIG    1        6.107   4.017   0.090  0.00  0.00    +0.170 A 
ATOM      6  C   LIG    1        7.143   4.941   0.086  0.00  0.00    +0.020 A 
ATOM      7  C   LIG    1        6.864   6.290   0.149  0.00  0.00    +0.110 A 
ATOM      8  C   LIG    1        5.553   6.739   0.217  0.00  0.00    +0.000 A 
ATOM      9  C   LIG    1        4.510   5.840   0.223  0.00  0.00    +0.100 A 
ATOM     10  O   LIG    1        5.668   0.597  -0.013  0.00  0.00    -0.430 OA
ATOM     11  C   LIG    1        4.779   4.470   0.159  0.00  0.00    -0.170 A 
ENDROOT
BRANCH   1  12
ATOM     12  O   LIG    1        2.393   3.877   0.228  0.00  0.00    -0.270 OA
BRANCH  12  14
ATOM     13  O   LIG    1        2.634   4.835  -1.761  0.00  0.00    -0.470 OA
ATOM     14  C   LIG    1        1.902   4.544  -0.836  0.00  0.00    +0.520 C 
BRANCH  14  15
ATOM     15  C   LIG    1        0.475   4.922  -0.875  0.00  0.00    -0.130 A 
ATOM     16  C   LIG    1       -0.345   4.680   0.229  0.00  0.00    +0.110 A 
ATOM     17  C   LIG    1       -1.676   5.040   0.187  0.00  0.00    +0.030 A 
ATOM     18  C   LIG    1       -2.201   5.630  -0.951  0.00  0.00    +0.010 A 
ATOM     19  C   LIG    1       -1.394   5.868  -2.051  0.00  0.00    +0.030 A 
ATOM     20 CL   LIG    1       -3.879   6.073  -0.998  0.00  0.00    -0.050 Cl
ATOM     21  C   LIG    1       -0.060   5.518  -2.019  0.00  0.00    +0.120 A 
ENDBRANCH  14  15
ENDBRANCH  12  14
ENDBRANCH   1  12
BRANCH   2  22
ATOM     22  S   LIG    1        2.761   0.925   0.100  0.00  0.00    +0.090 S 
BRANCH  22  23
ATOM     23  C   LIG    1        2.892   0.222  -1.510  0.00  0.00    -0.100 A 
ATOM     24  C   LIG    1        2.139  -0.897  -1.845  0.00  0.00    +0.060 A 
ATOM     25  C   LIG    1        2.248  -1.449  -3.106  0.00  0.00    +0.050 A 
ATOM     26  C   LIG    1        3.099  -0.883  -4.040  0.00  0.00    -0.040 A 
ATOM     27  C   LIG    1        3.850   0.232  -3.709  0.00  0.00    +0.050 A 
ATOM     28 CL   LIG    1        3.229  -1.576  -5.626  0.00  0.00    -0.060 Cl
ATOM     29  C   LIG    1        3.749   0.785  -2.448  0.00  0.00    +0.020 A 
ENDBRANCH  22  23
ENDBRANCH   2  22
TORSDOF 5
