REMARK  Name = ZINCpe000000YCnK.0
REMARK                            x       y       z     vdW  Elec       q    Type
REMARK                         _______ _______ _______ _____ _____    ______ ____
ROOT
ATOM      1  C   LIG    1        2.329   5.729   0.224  0.00  0.00    +0.220 C 
ATOM      2  C   LIG    1        2.333   4.283   0.726  0.00  0.00    +0.300 C 
ATOM      3  N   LIG    1        3.620   3.652   0.470  0.00  0.00    -0.710 N 
ATOM      4  H   LIG    1        3.860   2.882   1.010  0.00  0.00    +0.410 HD
ATOM      5  C   LIG    1        4.493   4.058  -0.453  0.00  0.00    +0.510 C 
ATOM      6  C   LIG    1        4.286   5.286  -1.290  0.00  0.00    +0.340 C 
ATOM      7  O   LIG    1        5.499   3.402  -0.626  0.00  0.00    -0.540 OA
ATOM      8  N   LIG    1        2.898   5.745  -1.134  0.00  0.00    -0.600 N 
ATOM      9  C   LIG    1        2.173   6.159  -2.193  0.00  0.00    +0.570 C 
ATOM     10  O   LIG    1        1.058   6.614  -2.026  0.00  0.00    -0.480 OA
ENDROOT
BRANCH   9  11
ATOM     11  C   LIG    1        2.735   6.060  -3.557  0.00  0.00    -0.120 A 
ATOM     12  C   LIG    1        3.124   7.212  -4.238  0.00  0.00    +0.120 A 
ATOM     13  C   LIG    1        3.651   7.110  -5.521  0.00  0.00    -0.040 A 
ATOM     14  C   LIG    1        3.788   5.857  -6.120  0.00  0.00    +0.070 A 
ATOM     15  C   LIG    1        3.401   4.718  -5.442  0.00  0.00    +0.040 A 
ATOM     16  C   LIG    1        2.877   4.810  -4.167  0.00  0.00    -0.010 A 
ATOM     17 CL   LIG    1        2.387   3.373  -3.325  0.00  0.00    -0.040 Cl
BRANCH  13  18
ATOM     18  C   LIG    1        4.067   8.332  -6.252  0.00  0.00    +0.160 A 
ATOM     19  C   LIG    1        4.502   8.233  -7.572  0.00  0.00    -0.020 A 
ATOM     20  C   LIG    1        4.881   9.382  -8.243  0.00  0.00    +0.070 A 
ATOM     21  C   LIG    1        4.825  10.593  -7.567  0.00  0.00    -0.030 A 
ATOM     22  C   LIG    1        4.389  10.617  -6.255  0.00  0.00    +0.270 A 
ATOM     23  N   LIG    1        4.028   9.509  -5.641  0.00  0.00    -0.480 NA
ENDBRANCH  13  18
ENDBRANCH   9  11
BRANCH   1  27
ATOM     24  N   LIG    1        0.688   7.579   0.183  0.00  0.00    -0.840 N 
ATOM     25  H   LIG    1       -0.222   7.915   0.161  0.00  0.00    +0.410 HD
ATOM     26  H   LIG    1        1.433   8.199   0.200  0.00  0.00    +0.400 HD
ATOM     27  C   LIG    1        0.915   6.251   0.190  0.00  0.00    +0.550 C 
ATOM     28  O   LIG    1       -0.017   5.475   0.168  0.00  0.00    -0.530 OA
ENDBRANCH   1  27
TORSDOF 3
