REMARK  Name = ZINCpe000000Umd5.0
REMARK                            x       y       z     vdW  Elec       q    Type
REMARK                         _______ _______ _______ _____ _____    ______ ____
ROOT
ATOM      1  N   LIG    1        1.088   1.972   0.002  0.00  0.00    -0.570 N 
ATOM      2  C   LIG    1       -0.014   1.211   0.009  0.00  0.00    +0.710 C 
ATOM      3  N   LIG    1       -1.145   1.946   0.018  0.00  0.00    -0.710 N 
ATOM      4  H   LIG    1       -2.056   1.613   0.020  0.00  0.00    +0.440 HD
ATOM      5  C   LIG    1       -0.721   3.347   0.025  0.00  0.00    +0.170 C 
ATOM      6  C   LIG    1       -1.238   4.084   1.267  0.00  0.00    +0.080 C 
ATOM      7  C   LIG    1       -2.522   4.759   0.734  0.00  0.00    +0.100 C 
ATOM      8  C   LIG    1       -2.299   4.915  -0.756  0.00  0.00    -0.070 A 
ATOM      9  C   LIG    1       -2.954   5.708  -1.682  0.00  0.00    +0.020 A 
ATOM     10  C   LIG    1       -2.576   5.686  -3.010  0.00  0.00    +0.030 A 
ATOM     11  C   LIG    1       -1.539   4.868  -3.417  0.00  0.00    +0.010 A 
ATOM     12  C   LIG    1       -0.883   4.076  -2.496  0.00  0.00    +0.050 A 
ATOM     13  C   LIG    1       -1.259   4.096  -1.163  0.00  0.00    -0.110 A 
ATOM     14  O   LIG    1        0.002  -0.004   0.002  0.00  0.00    -0.530 OA
ATOM     15  C   LIG    1        0.784   3.288   0.011  0.00  0.00    +0.540 C 
ATOM     16  O   LIG    1        1.558   4.222   0.008  0.00  0.00    -0.450 OA
ENDROOT
BRANCH   1  17
ATOM     17  C   LIG    1        2.454   1.442  -0.012  0.00  0.00    +0.380 C 
BRANCH  17  20
ATOM     18  C   LIG    1        5.040   0.439  -0.593  0.00  0.00    +0.340 C 
ATOM     19  N   LIG    1        4.143   0.789  -1.697  0.00  0.00    -0.520 N 
ATOM     20  C   LIG    1        2.910   1.267  -1.438  0.00  0.00    +0.500 C 
ATOM     21  O   LIG    1        2.167   1.556  -2.352  0.00  0.00    -0.450 OA
BRANCH  19  22
ATOM     22  C   LIG    1        4.564   0.627  -3.013  0.00  0.00    +0.230 A 
ATOM     23  N   LIG    1        3.860   0.896  -4.071  0.00  0.00    -0.280 NA
ATOM     24  N   LIG    1        4.395   0.696  -5.197  0.00  0.00    -0.220 NA
ATOM     25  C   LIG    1        5.603   0.228  -5.190  0.00  0.00    +0.200 A 
ATOM     26  S   LIG    1        6.093   0.035  -3.507  0.00  0.00    +0.120 S 
ENDBRANCH  19  22
ENDBRANCH  17  20
ENDBRANCH   1  17
TORSDOF 3
