REMARK  Name = ZINCzw00000005Gc.0
REMARK                            x       y       z     vdW  Elec       q    Type
REMARK                         _______ _______ _______ _____ _____    ______ ____
ROOT
ATOM      1  C   LIG    1        5.811  -1.810   2.356  0.00  0.00    +0.020 A 
ATOM      2  C   LIG    1        4.861  -0.860   2.569  0.00  0.00    -0.040 A 
ATOM      3  N   LIG    1        5.462   0.167   3.229  0.00  0.00    -0.460 NA
ATOM      4  C   LIG    1        6.710  -0.141   3.419  0.00  0.00    +0.460 A 
ATOM      5  O   LIG    1        6.953  -1.348   2.890  0.00  0.00    -0.190 OA
ENDROOT
BRANCH   2   6
ATOM      6  C   LIG    1        3.447  -0.927   2.157  0.00  0.00    +0.600 C 
ATOM      7  N   LIG    1        2.587   0.038   2.539  0.00  0.00    -0.590 N 
ATOM      8  C   LIG    1        1.204   0.058   2.038  0.00  0.00    +0.300 C 
ATOM      9  C   LIG    1        0.907   1.455   1.483  0.00  0.00    +0.230 C 
ATOM     10  N   LIG    1        1.211   2.461   2.509  0.00  0.00    -0.460 N 
ATOM     11  C   LIG    1        2.639   2.455   2.855  0.00  0.00    +0.190 C 
ATOM     12  C   LIG    1        3.006   1.099   3.467  0.00  0.00    +0.310 C 
ATOM     13  O   LIG    1        3.057  -1.853   1.472  0.00  0.00    -0.530 OA
BRANCH  10  14
ATOM     14  C   LIG    1        0.805   3.722   2.103  0.00  0.00    +0.390 A 
ATOM     15  N   LIG    1        0.223   4.011   0.963  0.00  0.00    -0.510 NA
ATOM     16  C   LIG    1       -0.028   5.330   0.915  0.00  0.00    +0.160 A 
ATOM     17  C   LIG    1        0.408   5.885   2.058  0.00  0.00    +0.130 A 
ATOM     18  N   LIG    1        0.935   4.869   2.822  0.00  0.00    -0.570 N 
ATOM     19  H   LIG    1        1.327   4.955   3.706  0.00  0.00    +0.420 HD
ENDBRANCH  10  14
ENDBRANCH   2   6
BRANCH   1  25
ATOM     20  C   LIG    1        7.042  -2.597  -0.339  0.00  0.00    +0.520 C 
ATOM     21  N   LIG    1        6.729  -3.367   0.722  0.00  0.00    -0.590 N 
ATOM     22  C   LIG    1        7.444  -4.588   1.138  0.00  0.00    +0.260 C 
ATOM     23  C   LIG    1        6.401  -5.403   1.942  0.00  0.00    +0.060 C 
ATOM     24  C   LIG    1        5.629  -4.278   2.687  0.00  0.00    +0.070 C 
ATOM     25  C   LIG    1        5.618  -3.130   1.655  0.00  0.00    +0.360 C 
ATOM     26  O   LIG    1        6.381  -1.611  -0.588  0.00  0.00    -0.510 OA
BRANCH  20  32
ATOM     27  N   LIG    1        7.948  -2.523  -2.591  0.00  0.00    -0.370 N 
ATOM     28  C   LIG    1        9.049  -2.941  -3.467  0.00  0.00    +0.260 C 
ATOM     29  C   LIG    1       10.343  -2.251  -3.030  0.00  0.00    +0.060 C 
ATOM     30  C   LIG    1       10.661  -2.644  -1.584  0.00  0.00    +0.060 C 
ATOM     31  C   LIG    1        9.475  -2.272  -0.691  0.00  0.00    +0.080 C 
ATOM     32  C   LIG    1        8.213  -2.961  -1.215  0.00  0.00    +0.160 C 
ATOM     33  H   LIG    1        7.865  -1.518  -2.613  0.00  0.00    +0.430 HD
BRANCH  27  34
ATOM     34  C   LIG    1        6.694  -3.127  -3.062  0.00  0.00    +0.240 C 
BRANCH  34  35
ATOM     35  C   LIG    1        6.359  -2.587  -4.454  0.00  0.00    +0.040 C 
BRANCH  35  37
ATOM     36  C   LIG    1        4.719  -2.675  -6.337  0.00  0.00    +0.030 C 
ATOM     37  C   LIG    1        5.054  -3.215  -4.945  0.00  0.00    +0.020 C 
ENDBRANCH  35  37
ENDBRANCH  34  35
ENDBRANCH  27  34
ENDBRANCH  20  32
ENDBRANCH   1  25
TORSDOF 7
