REMARK  Name = ZINCzw00000005Gc.1
REMARK                            x       y       z     vdW  Elec       q    Type
REMARK                         _______ _______ _______ _____ _____    ______ ____
ROOT
ATOM      1  C   LIG    1        3.623   3.665   1.217  0.00  0.00    +0.030 A 
ATOM      2  C   LIG    1        4.456   4.451   0.483  0.00  0.00    -0.040 A 
ATOM      3  N   LIG    1        5.089   3.641  -0.408  0.00  0.00    -0.460 NA
ATOM      4  C   LIG    1        4.661   2.426  -0.236  0.00  0.00    +0.460 A 
ATOM      5  O   LIG    1        3.760   2.412   0.756  0.00  0.00    -0.190 OA
ENDROOT
BRANCH   2   6
ATOM      6  C   LIG    1        4.640   5.907   0.627  0.00  0.00    +0.600 C 
ATOM      7  N   LIG    1        5.412   6.579  -0.251  0.00  0.00    -0.590 N 
ATOM      8  C   LIG    1        6.155   5.867  -1.302  0.00  0.00    +0.310 C 
ATOM      9  C   LIG    1        5.841   6.535  -2.650  0.00  0.00    +0.190 C 
ATOM     10  N   LIG    1        6.125   7.974  -2.555  0.00  0.00    -0.460 N 
ATOM     11  C   LIG    1        5.254   8.624  -1.567  0.00  0.00    +0.230 C 
ATOM     12  C   LIG    1        5.538   8.042  -0.178  0.00  0.00    +0.310 C 
ATOM     13  O   LIG    1        4.096   6.501   1.538  0.00  0.00    -0.540 OA
BRANCH  10  14
ATOM     14  C   LIG    1        6.014   8.584  -3.793  0.00  0.00    +0.390 A 
ATOM     15  N   LIG    1        5.244   9.608  -4.078  0.00  0.00    -0.510 NA
ATOM     16  C   LIG    1        5.395   9.931  -5.373  0.00  0.00    +0.160 A 
ATOM     17  C   LIG    1        6.285   9.085  -5.918  0.00  0.00    +0.130 A 
ATOM     18  N   LIG    1        6.689   8.228  -4.919  0.00  0.00    -0.570 N 
ATOM     19  H   LIG    1        7.331   7.506  -5.003  0.00  0.00    +0.420 HD
ENDBRANCH  10  14
ENDBRANCH   2   6
BRANCH   1  25
ATOM     20  C   LIG    1        0.576   3.659   1.107  0.00  0.00    +0.520 C 
ATOM     21  N   LIG    1        1.386   3.507   2.173  0.00  0.00    -0.600 N 
ATOM     22  C   LIG    1        1.085   2.708   3.375  0.00  0.00    +0.260 C 
ATOM     23  C   LIG    1        2.474   2.344   3.964  0.00  0.00    +0.060 C 
ATOM     24  C   LIG    1        3.276   3.644   3.690  0.00  0.00    +0.070 C 
ATOM     25  C   LIG    1        2.715   4.117   2.332  0.00  0.00    +0.370 C 
ATOM     26  O   LIG    1        0.961   4.272   0.134  0.00  0.00    -0.490 OA
BRANCH  20  32
ATOM     27  N   LIG    1       -1.793   4.113   0.824  0.00  0.00    -0.370 N 
ATOM     28  C   LIG    1       -1.481   4.734  -0.469  0.00  0.00    +0.260 C 
ATOM     29  C   LIG    1       -1.599   3.691  -1.582  0.00  0.00    +0.060 C 
ATOM     30  C   LIG    1       -0.615   2.550  -1.311  0.00  0.00    +0.050 C 
ATOM     31  C   LIG    1       -0.900   1.957   0.072  0.00  0.00    +0.080 C 
ATOM     32  C   LIG    1       -0.810   3.066   1.124  0.00  0.00    +0.160 C 
ATOM     33  H   LIG    1       -2.715   3.705   0.786  0.00  0.00    +0.430 HD
BRANCH  27  34
ATOM     34  C   LIG    1       -1.755   5.135   1.879  0.00  0.00    +0.240 C 
BRANCH  34  35
ATOM     35  C   LIG    1       -2.869   6.156   1.640  0.00  0.00    +0.030 C 
BRANCH  35  37
ATOM     36  C   LIG    1       -3.943   8.242   2.500  0.00  0.00    +0.030 C 
ATOM     37  C   LIG    1       -2.829   7.221   2.738  0.00  0.00    +0.020 C 
ENDBRANCH  35  37
ENDBRANCH  34  35
ENDBRANCH  27  34
ENDBRANCH  20  32
ENDBRANCH   1  25
TORSDOF 7
