REMARK  Name = ZINCqH0000008beH.0
REMARK                            x       y       z     vdW  Elec       q    Type
REMARK                         _______ _______ _______ _____ _____    ______ ____
ROOT
ATOM      1  C   LIG    1        1.761   2.814  -2.804  0.00  0.00    +0.530 C 
ATOM      2  N   LIG    1        2.382   2.732  -3.998  0.00  0.00    -0.550 N 
ATOM      3  C   LIG    1        1.820   2.103  -5.198  0.00  0.00    +0.300 C 
ATOM      4  C   LIG    1        2.899   2.268  -6.271  0.00  0.00    -0.020 C 
ATOM      5  C   LIG    1        4.026   2.998  -5.592  0.00  0.00    -0.160 A 
ATOM      6  C   LIG    1        5.257   3.422  -6.061  0.00  0.00    +0.150 A 
ATOM      7  C   LIG    1        6.126   4.099  -5.221  0.00  0.00    -0.040 A 
ATOM      8  C   LIG    1        5.766   4.339  -3.909  0.00  0.00    +0.090 A 
ATOM      9  C   LIG    1        4.543   3.915  -3.436  0.00  0.00    -0.030 A 
ATOM     10  F   LIG    1        5.606   3.187  -7.344  0.00  0.00    -0.130 F 
ATOM     11  C   LIG    1        2.365   3.070  -7.466  0.00  0.00    +0.040 C 
ATOM     12  C   LIG    1        3.061   2.425  -8.692  0.00  0.00    +0.020 C 
ATOM     13  C   LIG    1        3.086   0.920  -8.322  0.00  0.00    +0.020 C 
ATOM     14  C   LIG    1        3.361   0.908  -6.802  0.00  0.00    +0.030 C 
ATOM     15  C   LIG    1        3.656   3.240  -4.276  0.00  0.00    +0.180 A 
ATOM     16  O   LIG    1        0.651   2.346  -2.665  0.00  0.00    -0.510 OA
ENDROOT
BRANCH   1  17
ATOM     17  C   LIG    1        2.446   3.488  -1.643  0.00  0.00    +0.070 C 
BRANCH  17  19
ATOM     18  C   LIG    1        2.172   4.236   0.725  0.00  0.00    +0.050 C 
ATOM     19  C   LIG    1        1.532   3.445  -0.417  0.00  0.00    +0.250 C 
BRANCH  19  20
ATOM     20  N   LIG    1        1.340   2.054   0.000  0.00  0.00    -0.590 N 
ATOM     21  C   LIG    1       -0.019   1.525   0.010  0.00  0.00    +0.260 C 
ATOM     22  C   LIG    1        0.002  -0.004   0.002  0.00  0.00    +0.020 C 
ATOM     23  C   LIG    1        0.938  -0.488   1.116  0.00  0.00    +0.030 C 
ATOM     24  C   LIG    1        2.372  -0.096   0.748  0.00  0.00    +0.060 C 
ATOM     25  C   LIG    1        2.418   1.351   0.347  0.00  0.00    +0.520 C 
ATOM     26  O   LIG    1        3.495   1.909   0.338  0.00  0.00    -0.560 OA
ENDBRANCH  19  20
ENDBRANCH  17  19
ENDBRANCH   1  17
TORSDOF 3
