REMARK  Name = ZINCpe000000U3KH.0
REMARK                            x       y       z     vdW  Elec       q    Type
REMARK                         _______ _______ _______ _____ _____    ______ ____
ROOT
ATOM      1  C   LIG    1       -0.190   4.813   3.251  0.00  0.00    +0.310 C 
ENDROOT
BRANCH   1   2
ATOM      2  C   LIG    1       -1.250   5.576   4.003  0.00  0.00    -0.120 A 
ATOM      3  C   LIG    1       -2.292   4.899   4.606  0.00  0.00    +0.050 A 
ATOM      4  C   LIG    1       -3.263   5.597   5.301  0.00  0.00    -0.020 A 
ATOM      5  C   LIG    1       -3.199   6.976   5.384  0.00  0.00    +0.050 A 
ATOM      6  C   LIG    1       -2.162   7.658   4.778  0.00  0.00    -0.070 A 
ATOM      7  C   LIG    1       -1.184   6.959   4.085  0.00  0.00    +0.140 A 
BRANCH   7   8
ATOM      8  O   LIG    1       -0.163   7.628   3.487  0.00  0.00    -0.280 OA
BRANCH   8   9
ATOM      9  C   LIG    1       -0.159   9.052   3.613  0.00  0.00    +0.230 C 
BRANCH   9  10
ATOM     10  C   LIG    1        1.038   9.616   2.893  0.00  0.00    +0.510 C 
ATOM     11  N   LIG    1        1.249  10.947   2.877  0.00  0.00    -0.730 N 
ATOM     12  H   LIG    1        0.631  11.542   3.329  0.00  0.00    +0.400 HD
ATOM     13  C   LIG    1        2.413  11.496   2.176  0.00  0.00    +0.290 C 
ATOM     14  O   LIG    1        1.812   8.873   2.327  0.00  0.00    -0.510 OA
ENDBRANCH   9  10
ENDBRANCH   8   9
ENDBRANCH   7   8
ENDBRANCH   1   2
BRANCH   1  15
ATOM     15  N   LIG    1       -0.740   3.535   2.793  0.00  0.00    -0.720 N 
ATOM     16  H   LIG    1       -1.487   3.132   3.263  0.00  0.00    +0.400 HD
ATOM     17  C   LIG    1       -0.209   2.918   1.719  0.00  0.00    +0.520 C 
ATOM     18  O   LIG    1        0.725   3.422   1.131  0.00  0.00    -0.520 OA
BRANCH  17  19
ATOM     19  C   LIG    1       -0.775   1.603   1.248  0.00  0.00    +0.000 C 
ATOM     20  C   LIG    1       -2.205   1.785   0.683  0.00  0.00    +0.080 C 
ATOM     21  C   LIG    1       -1.996   1.984  -0.801  0.00  0.00    +0.510 C 
ATOM     22  N   LIG    1       -0.759   1.590  -1.151  0.00  0.00    -0.620 N 
ATOM     23  C   LIG    1       -0.225   1.655  -2.514  0.00  0.00    +0.300 C 
ATOM     24  O   LIG    1       -2.823   2.435  -1.565  0.00  0.00    -0.530 OA
ATOM     25  C   LIG    1       -0.013   1.086   0.008  0.00  0.00    +0.300 C 
ENDBRANCH  17  19
ENDBRANCH   1  15
BRANCH   1  27
ATOM     26  C   LIG    1        2.128   3.891   3.376  0.00  0.00    +0.020 C 
ATOM     27  C   LIG    1        1.003   4.554   4.173  0.00  0.00    +0.010 C 
ENDBRANCH   1  27
TORSDOF 7
