REMARK  Name = ZINCtV00001bB3mo.0
REMARK                            x       y       z     vdW  Elec       q    Type
REMARK                         _______ _______ _______ _____ _____    ______ ____
ROOT
ATOM      1  C   LIG    1        3.420   3.284   0.280  0.00  0.00    +0.200 A 
ATOM      2  C   LIG    1        3.590   1.941   0.181  0.00  0.00    -0.070 A 
ATOM      3  C   LIG    1        2.452   1.098   0.074  0.00  0.00    +0.290 A 
ATOM      4  C   LIG    1        1.123   1.749   0.077  0.00  0.00    -0.180 A 
ATOM      5  C   LIG    1       -0.048   1.004  -0.024  0.00  0.00    +0.080 A 
ATOM      6  C   LIG    1       -1.267   1.648  -0.024  0.00  0.00    -0.100 A 
ATOM      7  C   LIG    1       -1.327   3.028   0.088  0.00  0.00    +0.080 A 
ATOM      8  C   LIG    1       -0.172   3.777   0.188  0.00  0.00    +0.010 A 
ATOM      9  C   LIG    1       -2.539   0.849  -0.140  0.00  0.00    +0.090 C 
ATOM     10  C   LIG    1        1.064   3.147   0.184  0.00  0.00    +0.140 A 
ATOM     11  N   LIG    1        2.575  -0.216  -0.025  0.00  0.00    -0.520 NA
ATOM     12  O   LIG    1        2.206   3.862   0.281  0.00  0.00    -0.230 OA
ENDROOT
BRANCH  11  13
ATOM     13  C   LIG    1        1.545  -0.963  -0.518  0.00  0.00    +0.140 A 
ATOM     14  C   LIG    1        0.963  -1.963   0.267  0.00  0.00    +0.000 A 
ATOM     15  C   LIG    1       -0.081  -2.710  -0.237  0.00  0.00    +0.070 A 
ATOM     16  C   LIG    1       -0.546  -2.478  -1.521  0.00  0.00    -0.120 A 
ATOM     17  C   LIG    1        0.029  -1.493  -2.306  0.00  0.00    +0.070 A 
ATOM     18 BR   LIG    1       -1.973  -3.513  -2.205  0.00  0.00    -0.050 Br
ATOM     19  C   LIG    1        1.070  -0.735  -1.814  0.00  0.00    -0.020 A 
ENDBRANCH  11  13
BRANCH   1  23
ATOM     20  C   LIG    1        6.864   5.754   0.594  0.00  0.00    +0.130 A 
ATOM     21  C   LIG    1        7.005   4.377   0.492  0.00  0.00    -0.030 A 
ATOM     22  C   LIG    1        5.890   3.573   0.390  0.00  0.00    +0.070 A 
ATOM     23  C   LIG    1        4.614   4.143   0.389  0.00  0.00    -0.070 A 
ATOM     24  C   LIG    1        4.473   5.530   0.487  0.00  0.00    +0.010 A 
ATOM     25  C   LIG    1        5.594   6.330   0.595  0.00  0.00    +0.100 A 
BRANCH  20  27
ATOM     26  C   LIG    1        9.235   5.887   0.689  0.00  0.00    +0.240 C 
ATOM     27  O   LIG    1        7.965   6.543   0.695  0.00  0.00    -0.300 OA
ENDBRANCH  20  27
BRANCH  25  28
ATOM     28  O   LIG    1        5.460   7.679   0.695  0.00  0.00    -0.300 OA
ATOM     29  C   LIG    1        4.129   8.201   0.689  0.00  0.00    +0.240 C 
ENDBRANCH  25  28
ENDBRANCH   1  23
TORSDOF 4
