REMARK  Name = ZINCvU0000000J25.0
REMARK                            x       y       z     vdW  Elec       q    Type
REMARK                         _______ _______ _______ _____ _____    ______ ____
ROOT
ATOM      1  C   LIG    1       -7.384   4.076  -1.737  0.00  0.00    +0.210 A 
ATOM      2  N   LIG    1       -7.196   5.324  -1.321  0.00  0.00    -0.290 NA
ATOM      3  N   LIG    1       -8.135   6.202  -1.377  0.00  0.00    -0.160 NA
ATOM      4  C   LIG    1       -9.331   5.880  -1.857  0.00  0.00    +0.060 A 
ATOM      5  C   LIG    1       -9.554   4.562  -2.304  0.00  0.00    +0.230 A 
ATOM      6  N   LIG    1       -8.552   3.689  -2.233  0.00  0.00    -0.450 NA
ENDROOT
BRANCH   5   7
ATOM      7  C   LIG    1      -10.873   4.159  -2.847  0.00  0.00    -0.080 A 
ATOM      8  C   LIG    1      -12.043   4.699  -2.315  0.00  0.00    +0.060 A 
ATOM      9  C   LIG    1      -13.268   4.324  -2.829  0.00  0.00    +0.000 A 
ATOM     10  C   LIG    1      -13.336   3.406  -3.862  0.00  0.00    +0.040 A 
ATOM     11  C   LIG    1      -12.179   2.863  -4.390  0.00  0.00    +0.000 A 
ATOM     12  C   LIG    1      -10.948   3.234  -3.888  0.00  0.00    +0.070 A 
ENDBRANCH   5   7
BRANCH   4  13
ATOM     13  C   LIG    1      -10.414   6.889  -1.921  0.00  0.00    -0.060 A 
ATOM     14  C   LIG    1      -11.322   6.875  -2.978  0.00  0.00    +0.050 A 
ATOM     15  C   LIG    1      -12.331   7.816  -3.030  0.00  0.00    +0.010 A 
ATOM     16  C   LIG    1      -12.436   8.777  -2.041  0.00  0.00    +0.030 A 
ATOM     17  C   LIG    1      -11.534   8.799  -0.992  0.00  0.00    +0.000 A 
ATOM     18  C   LIG    1      -10.524   7.861  -0.926  0.00  0.00    +0.060 A 
ENDBRANCH   4  13
BRANCH   1  19
ATOM     19  S   LIG    1       -6.058   2.920  -1.636  0.00  0.00    +0.130 S 
BRANCH  19  20
ATOM     20  C   LIG    1       -4.774   3.975  -0.919  0.00  0.00    +0.100 C 
BRANCH  20  23
ATOM     21  N   LIG    1       -2.413   3.758  -0.215  0.00  0.00    -0.670 N 
ATOM     22  H   LIG    1       -2.456   4.672   0.108  0.00  0.00    +0.410 HD
ATOM     23  C   LIG    1       -3.510   3.175  -0.737  0.00  0.00    +0.540 C 
ATOM     24  O   LIG    1       -3.481   2.006  -1.060  0.00  0.00    -0.500 OA
BRANCH  21  32
ATOM     25  C   LIG    1       -1.162   2.967  -2.645  0.00  0.00    +0.090 C 
ATOM     26  C   LIG    1       -0.567   2.640  -1.300  0.00  0.00    -0.070 A 
ATOM     27  C   LIG    1        0.616   1.933  -1.220  0.00  0.00    +0.010 A 
ATOM     28  C   LIG    1        1.165   1.637   0.014  0.00  0.00    +0.020 A 
ATOM     29  C   LIG    1        0.529   2.043   1.172  0.00  0.00    +0.010 A 
ATOM     30  C   LIG    1       -0.658   2.746   1.100  0.00  0.00    -0.080 A 
ATOM     31  C   LIG    1       -1.350   3.189   2.363  0.00  0.00    +0.080 C 
ATOM     32  C   LIG    1       -1.212   3.045  -0.138  0.00  0.00    +0.130 A 
ENDBRANCH  21  32
ENDBRANCH  20  23
ENDBRANCH  19  20
ENDBRANCH   1  19
TORSDOF 6
