REMARK  Name = ZINCpk00000ebAsf.0
REMARK                            x       y       z     vdW  Elec       q    Type
REMARK                         _______ _______ _______ _____ _____    ______ ____
ROOT
ATOM      1  O   LIG    1       -1.204   2.840   0.023  0.00  0.00    -0.490 OA
ATOM      2  C   LIG    1       -1.187   1.624   0.017  0.00  0.00    +0.580 C 
ATOM      3  N   LIG    1       -0.011   0.966   0.007  0.00  0.00    -0.720 N 
ATOM      4  H   LIG    1        0.002  -0.004   0.002  0.00  0.00    +0.400 HD
ENDROOT
BRANCH   2   5
ATOM      5  C   LIG    1       -2.452   0.871   0.018  0.00  0.00    +0.060 A 
ATOM      6  C   LIG    1       -3.641   1.531   0.028  0.00  0.00    +0.150 A 
ATOM      7  C   LIG    1       -4.844   0.778   0.029  0.00  0.00    +0.230 A 
ATOM      8  N   LIG    1       -6.115   1.127   0.037  0.00  0.00    -0.440 NA
ATOM      9  C   LIG    1       -6.874   0.029   0.034  0.00  0.00    +0.210 A 
ATOM     10  C   LIG    1       -6.066  -1.055   0.024  0.00  0.00    +0.200 A 
ATOM     11  N   LIG    1       -4.777  -0.595   0.021  0.00  0.00    -0.440 N 
ATOM     12  C   LIG    1       -3.586  -1.219   0.011  0.00  0.00    +0.710 A 
ATOM     13  O   LIG    1       -3.547  -2.434   0.004  0.00  0.00    -0.520 OA
ATOM     14  N   LIG    1       -2.437  -0.519   0.005  0.00  0.00    -0.630 N 
ATOM     15  H   LIG    1       -1.589  -0.989  -0.005  0.00  0.00    +0.430 HD
ENDBRANCH   2   5
BRANCH   3  16
ATOM     16  C   LIG    1        1.248   1.716  -0.001  0.00  0.00    +0.280 C 
BRANCH  16  17
ATOM     17  C   LIG    1        2.424   0.737  -0.017  0.00  0.00    +0.310 C 
BRANCH  17  18
ATOM     18  N   LIG    1        3.682   1.487  -0.025  0.00  0.00    -0.490 N 
ATOM     19  C   LIG    1        4.413   1.824  -1.122  0.00  0.00    +0.490 A 
ATOM     20  N   LIG    1        5.474   2.488  -0.766  0.00  0.00    -0.490 NA
ATOM     21  C   LIG    1        5.496   2.623   0.585  0.00  0.00    +0.060 A 
ATOM     22  C   LIG    1        6.382   3.232   1.478  0.00  0.00    +0.090 A 
ATOM     23  C   LIG    1        6.121   3.199   2.829  0.00  0.00    -0.040 A 
ATOM     24  C   LIG    1        4.984   2.565   3.312  0.00  0.00    +0.050 A 
ATOM     25  C   LIG    1        4.100   1.960   2.445  0.00  0.00    +0.030 A 
ATOM     26 CL   LIG    1        7.221   3.957   3.938  0.00  0.00    -0.060 Cl
ATOM     27  C   LIG    1        4.344   1.988   1.079  0.00  0.00    +0.050 A 
ENDBRANCH  17  18
ENDBRANCH  16  17
ENDBRANCH   3  16
TORSDOF 4
