REMARK  Name = ZINCtV00000L6kFp.0
REMARK                            x       y       z     vdW  Elec       q    Type
REMARK                         _______ _______ _______ _____ _____    ______ ____
ROOT
ATOM      1  C   LIG    1        1.331  -4.886  -0.151  0.00  0.00    +0.550 C 
ENDROOT
BRANCH   1   2
ATOM      2  C   LIG    1        1.327  -6.105   0.775  0.00  0.00    +0.110 C 
ATOM      3 CL   LIG    1        1.110  -5.562   2.481  0.00  0.00    -0.060 Cl
ATOM      4 CL   LIG    1        2.893  -6.984   0.619  0.00  0.00    -0.060 Cl
ATOM      5 CL   LIG    1       -0.028  -7.203   0.316  0.00  0.00    -0.080 Cl
ENDBRANCH   1   2
BRANCH   1   6
ATOM      6  N   LIG    1        1.508  -5.327  -1.537  0.00  0.00    -0.720 N 
ATOM      7  H   LIG    1        1.000  -6.082  -1.874  0.00  0.00    +0.410 HD
ATOM      8  C   LIG    1        2.375  -4.684  -2.343  0.00  0.00    +0.660 C 
ATOM      9  O   LIG    1        3.010  -3.738  -1.921  0.00  0.00    -0.560 OA
BRANCH   8  10
ATOM     10  O   LIG    1        2.537  -5.088  -3.617  0.00  0.00    -0.350 OA
BRANCH  10  11
ATOM     11  C   LIG    1        3.488  -4.349  -4.428  0.00  0.00    +0.200 C 
ATOM     12  C   LIG    1        2.769  -3.195  -5.131  0.00  0.00    +0.020 C 
ATOM     13  C   LIG    1        1.662  -3.754  -6.026  0.00  0.00    -0.020 C 
ATOM     14  C   LIG    1        2.274  -4.687  -7.073  0.00  0.00    +0.000 C 
ATOM     15  C   LIG    1        2.992  -5.840  -6.370  0.00  0.00    +0.030 C 
ATOM     16  C   LIG    1        0.944  -2.600  -6.729  0.00  0.00    +0.000 C 
ATOM     17  C   LIG    1        4.100  -5.282  -5.474  0.00  0.00    +0.010 C 
BRANCH  17  18
ATOM     18  C   LIG    1        4.818  -6.436  -4.772  0.00  0.00    -0.020 C 
ATOM     19  C   LIG    1        5.926  -5.877  -3.876  0.00  0.00    +0.020 C 
ATOM     20  C   LIG    1        5.430  -7.369  -5.818  0.00  0.00    +0.010 C 
ENDBRANCH  17  18
ENDBRANCH  10  11
ENDBRANCH   8  10
ENDBRANCH   1   6
BRANCH   1  21
ATOM     21  N   LIG    1        0.059  -4.172  -0.024  0.00  0.00    -0.740 N 
ATOM     22  H   LIG    1       -0.776  -4.666  -0.010  0.00  0.00    +0.400 HD
BRANCH  21  26
ATOM     23  C   LIG    1        0.024  -0.015   0.280  0.00  0.00    +0.090 A 
ATOM     24  C   LIG    1       -1.157  -0.730   0.420  0.00  0.00    -0.040 A 
ATOM     25  C   LIG    1       -1.147  -2.107   0.313  0.00  0.00    -0.020 A 
ATOM     26  C   LIG    1        0.047  -2.776   0.078  0.00  0.00    +0.170 A 
ATOM     27  C   LIG    1        1.229  -2.060  -0.056  0.00  0.00    +0.000 A 
ATOM     28  C   LIG    1        1.216  -0.683   0.045  0.00  0.00    +0.020 A 
BRANCH  23  29
ATOM     29  O   LIG    1        0.013   1.341   0.380  0.00  0.00    -0.320 OA
BRANCH  29  31
ATOM     30  C   LIG    1       -1.065   3.480   0.705  0.00  0.00    +0.070 C 
ATOM     31  C   LIG    1       -1.251   1.964   0.624  0.00  0.00    +0.180 C 
ENDBRANCH  29  31
ENDBRANCH  23  29
ENDBRANCH  21  26
ENDBRANCH   1  21
TORSDOF 9
