REMARK  Name = ZINCpk00000FaawB.0
REMARK                            x       y       z     vdW  Elec       q    Type
REMARK                         _______ _______ _______ _____ _____    ______ ____
ROOT
ATOM      1  C   LIG    1        2.233   3.862  -0.116  0.00  0.00    -0.040 A 
ATOM      2  C   LIG    1        3.448   3.196  -0.026  0.00  0.00    -0.050 A 
ATOM      3  C   LIG    1        3.459   1.819   0.070  0.00  0.00    +0.300 A 
ATOM      4  N   LIG    1        2.332   1.133   0.083  0.00  0.00    -0.470 NA
ATOM      5  C   LIG    1        1.154   1.731  -0.005  0.00  0.00    +0.360 A 
ATOM      6  C   LIG    1        1.069   3.115  -0.104  0.00  0.00    -0.050 A 
ENDROOT
BRANCH   5   7
ATOM      7  N   LIG    1       -0.011   0.966   0.007  0.00  0.00    -0.660 N 
ATOM      8  H   LIG    1       -0.877   1.402   0.026  0.00  0.00    +0.420 HD
ATOM      9  C   LIG    1        0.066  -0.380  -0.001  0.00  0.00    +0.520 C 
ATOM     10  O   LIG    1        1.147  -0.926   0.069  0.00  0.00    -0.460 OA
BRANCH   9  11
ATOM     11  C   LIG    1       -1.191  -1.206  -0.097  0.00  0.00    -0.030 C 
ATOM     12  C   LIG    1       -1.865  -1.028  -1.482  0.00  0.00    +0.230 C 
ATOM     13  O   LIG    1       -2.625  -2.245  -1.645  0.00  0.00    -0.370 OA
ATOM     14  C   LIG    1       -1.811  -3.318  -1.143  0.00  0.00    +0.140 C 
ATOM     15  C   LIG    1       -2.697  -4.385  -0.497  0.00  0.00    +0.040 C 
ATOM     16  C   LIG    1       -0.860  -2.718  -0.090  0.00  0.00    +0.050 C 
ENDBRANCH   9  11
ENDBRANCH   5   7
BRANCH   1  17
ATOM     17  C   LIG    1        2.184   5.364  -0.222  0.00  0.00    +0.330 C 
BRANCH  17  19
ATOM     18  C   LIG    1        2.067   7.285   1.272  0.00  0.00    +0.530 C 
ATOM     19  N   LIG    1        2.119   5.947   1.120  0.00  0.00    -0.730 N 
ATOM     20  H   LIG    1        2.114   5.370   1.900  0.00  0.00    +0.400 HD
ATOM     21  O   LIG    1        2.074   8.007   0.297  0.00  0.00    -0.530 OA
BRANCH  18  25
ATOM     22  C   LIG    1        0.241  10.976   3.820  0.00  0.00    +0.050 C 
ATOM     23  C   LIG    1        1.067   9.691   3.915  0.00  0.00    +0.150 C 
ATOM     24  C   LIG    1        1.804   9.424   2.578  0.00  0.00    +0.050 C 
ATOM     25  C   LIG    1        2.000   7.885   2.653  0.00  0.00    -0.030 C 
ATOM     26  C   LIG    1        0.724   7.427   3.390  0.00  0.00    +0.210 C 
ATOM     27  O   LIG    1        0.206   8.557   4.102  0.00  0.00    -0.370 OA
ENDBRANCH  18  25
ENDBRANCH  17  19
ENDBRANCH   1  17
TORSDOF 5
