REMARK  Name = ZINCrH000004jUtt.0
REMARK                            x       y       z     vdW  Elec       q    Type
REMARK                         _______ _______ _______ _____ _____    ______ ____
ROOT
ATOM      1  C   LIG    1        1.819   2.742   3.139  0.00  0.00    +0.330 C 
ATOM      2  N   LIG    1        1.416   1.487   2.500  0.00  0.00    -0.580 N 
ATOM      3  C   LIG    1        0.431   0.742   3.040  0.00  0.00    +0.570 C 
ATOM      4  O   LIG    1        0.071  -0.279   2.489  0.00  0.00    -0.530 OA
ENDROOT
BRANCH   3   5
ATOM      5  C   LIG    1       -0.212   1.168   4.306  0.00  0.00    +0.140 A 
ATOM      6  N   LIG    1        0.078   2.352   4.809  0.00  0.00    -0.420 NA
ATOM      7  C   LIG    1       -0.476   2.777   5.944  0.00  0.00    +0.150 A 
ATOM      8  C   LIG    1       -0.162   4.042   6.476  0.00  0.00    -0.030 A 
ATOM      9  C   LIG    1       -0.742   4.449   7.637  0.00  0.00    +0.150 A 
ATOM     10  C   LIG    1       -1.647   3.633   8.314  0.00  0.00    +0.040 A 
ATOM     11  C   LIG    1       -1.977   2.403   7.831  0.00  0.00    +0.110 A 
ATOM     12  C   LIG    1       -1.399   1.948   6.636  0.00  0.00    -0.100 A 
ATOM     13  C   LIG    1       -1.715   0.683   6.106  0.00  0.00    +0.120 A 
ATOM     14  C   LIG    1       -1.119   0.305   4.938  0.00  0.00    +0.040 A 
BRANCH   8  15
ATOM     15  N   LIG    1        0.797   4.925   5.775  0.00  0.00    +0.030 N 
ATOM     16  O   LIG    1        1.382   4.524   4.785  0.00  0.00    -0.120 OA
ATOM     17  O   LIG    1        1.001   6.052   6.189  0.00  0.00    -0.180 OA
ENDBRANCH   8  15
ENDBRANCH   3   5
BRANCH   2  18
ATOM     18  C   LIG    1        2.084   1.042   1.274  0.00  0.00    +0.270 C 
BRANCH  18  19
ATOM     19  C   LIG    1        1.343   1.602   0.058  0.00  0.00    +0.240 C 
BRANCH  19  20
ATOM     20  C   LIG    1        2.030   1.145  -1.203  0.00  0.00    -0.100 A 
ATOM     21  C   LIG    1        1.727  -0.090  -1.746  0.00  0.00    +0.030 A 
ATOM     22  C   LIG    1        2.352  -0.508  -2.905  0.00  0.00    +0.050 A 
ATOM     23  C   LIG    1        3.290   0.305  -3.516  0.00  0.00    -0.090 A 
ATOM     24  C   LIG    1        3.597   1.538  -2.970  0.00  0.00    +0.050 A 
ATOM     25 BR   LIG    1        4.152  -0.270  -5.098  0.00  0.00    -0.050 Br
ATOM     26  C   LIG    1        2.967   1.957  -1.813  0.00  0.00    +0.040 A 
ENDBRANCH  19  20
BRANCH  19  27
ATOM     27  O   LIG    1       -0.006   1.131   0.064  0.00  0.00    -0.540 OA
ATOM     28  H   LIG    1       -0.086   0.168   0.029  0.00  0.00    +0.380 HD
ENDBRANCH  19  27
ENDBRANCH  18  19
ENDBRANCH   2  18
TORSDOF 6
