REMARK  Name = ZINCfA000000b6R7.0
REMARK                            x       y       z     vdW  Elec       q    Type
REMARK                         _______ _______ _______ _____ _____    ______ ____
ROOT
ATOM      1  N   LIG    1       -0.700   1.560   1.217  0.00  0.00    -0.510 N 
ATOM      2  H   LIG    1       -1.647   1.210   1.224  0.00  0.00    +0.430 HD
ATOM      3  H   LIG    1       -0.714   2.568   1.222  0.00  0.00    +0.430 HD
ENDROOT
BRANCH   1   4
ATOM      4  C   LIG    1       -0.013   1.086   0.008  0.00  0.00    +0.370 C 
BRANCH   4   9
ATOM      5 BR   LIG    1       -1.132   4.555  -3.983  0.00  0.00    +0.010 Br
ATOM      6  C   LIG    1       -1.295   2.986  -2.940  0.00  0.00    -0.130 A 
ATOM      7  C   LIG    1       -2.189   2.033  -3.212  0.00  0.00    +0.050 A 
ATOM      8  S   LIG    1       -2.041   0.733  -2.037  0.00  0.00    +0.200 S 
ATOM      9  C   LIG    1       -0.742   1.585  -1.213  0.00  0.00    -0.290 A 
ATOM     10  C   LIG    1       -0.496   2.738  -1.837  0.00  0.00    +0.110 A 
ENDBRANCH   4   9
ENDBRANCH   1   4
BRANCH   1  11
ATOM     11  C   LIG    1        0.010   1.073   2.407  0.00  0.00    +0.270 C 
BRANCH  11  12
ATOM     12  C   LIG    1       -0.706   1.566   3.666  0.00  0.00    -0.020 C 
ATOM     13  C   LIG    1       -0.609   3.093   3.745  0.00  0.00    -0.010 C 
ATOM     14  C   LIG    1       -1.259   3.571   5.046  0.00  0.00    +0.230 C 
ATOM     15  O   LIG    1       -0.615   2.945   6.157  0.00  0.00    -0.370 OA
ATOM     16  C   LIG    1       -0.713   1.519   6.161  0.00  0.00    +0.230 C 
ATOM     17  C   LIG    1       -0.041   0.959   4.905  0.00  0.00    +0.030 C 
ENDBRANCH  11  12
ENDBRANCH   1  11
TORSDOF 4
