REMARK  Name = ZINCpe00000gM2f0.0
REMARK                            x       y       z     vdW  Elec       q    Type
REMARK                         _______ _______ _______ _____ _____    ______ ____
ROOT
ATOM      1  C   LIG    1        9.133   0.179  -0.718  0.00  0.00    +0.170 C 
ATOM      2  N   LIG    1        9.038   0.233   0.751  0.00  0.00    -0.720 N 
ATOM      3  H   LIG    1        9.678  -0.123   1.387  0.00  0.00    +0.440 HD
ATOM      4  C   LIG    1        7.893   0.879   1.038  0.00  0.00    +0.700 C 
ATOM      5  N   LIG    1        7.224   1.246  -0.060  0.00  0.00    -0.580 N 
ATOM      6  O   LIG    1        7.508   1.100   2.170  0.00  0.00    -0.530 OA
ATOM      7  C   LIG    1        7.874   0.883  -1.183  0.00  0.00    +0.540 C 
ATOM      8  O   LIG    1        7.524   1.077  -2.328  0.00  0.00    -0.450 OA
ENDROOT
BRANCH   1   9
ATOM      9  C   LIG    1       10.359   0.914  -1.197  0.00  0.00    -0.120 A 
ATOM     10  C   LIG    1       10.935   0.580  -2.409  0.00  0.00    +0.080 A 
ATOM     11  C   LIG    1       12.056   1.257  -2.851  0.00  0.00    -0.010 A 
ATOM     12  C   LIG    1       12.608   2.262  -2.076  0.00  0.00    +0.110 A 
ATOM     13  C   LIG    1       12.033   2.592  -0.860  0.00  0.00    -0.010 A 
ATOM     14  F   LIG    1       13.707   2.921  -2.505  0.00  0.00    -0.130 F 
ATOM     15  C   LIG    1       10.909   1.918  -0.422  0.00  0.00    +0.060 A 
ENDBRANCH   1   9
BRANCH   1  17
ATOM     16  C   LIG    1        7.926  -2.007  -0.664  0.00  0.00    +0.020 C 
ATOM     17  C   LIG    1        9.152  -1.270  -1.207  0.00  0.00    +0.060 C 
ENDBRANCH   1  17
BRANCH   5  18
ATOM     18  C   LIG    1        5.945   1.962  -0.044  0.00  0.00    +0.350 C 
BRANCH  18  19
ATOM     19  C   LIG    1        4.796   0.952  -0.039  0.00  0.00    +0.060 C 
BRANCH  19  20
ATOM     20  C   LIG    1        3.481   1.687  -0.022  0.00  0.00    +0.530 C 
ATOM     21  N   LIG    1        2.323   0.998  -0.015  0.00  0.00    -0.690 N 
ATOM     22  H   LIG    1        2.336   0.028  -0.020  0.00  0.00    +0.410 HD
ATOM     23  C   LIG    1        1.147   1.655   0.000  0.00  0.00    +0.690 C 
ATOM     24  N   LIG    1       -0.011   0.966   0.007  0.00  0.00    -0.740 N 
ATOM     25  H   LIG    1        0.002  -0.004   0.002  0.00  0.00    +0.400 HD
ATOM     26  C   LIG    1       -1.290   1.681   0.017  0.00  0.00    +0.300 C 
ATOM     27  O   LIG    1        1.130   2.871   0.007  0.00  0.00    -0.530 OA
ATOM     28  O   LIG    1        3.465   2.900  -0.015  0.00  0.00    -0.460 OA
ENDBRANCH  19  20
ENDBRANCH  18  19
ENDBRANCH   5  18
TORSDOF 5
