REMARK  Name = ZINCkj00000h9R6n.0
REMARK                            x       y       z     vdW  Elec       q    Type
REMARK                         _______ _______ _______ _____ _____    ______ ____
ROOT
ATOM      1  C   LIG    1        1.885   2.510   3.214  0.00  0.00    +0.110 A 
ATOM      2  C   LIG    1        1.556   3.757   2.874  0.00  0.00    -0.040 A 
ATOM      3  S   LIG    1        0.347   3.675   1.596  0.00  0.00    +0.210 S 
ATOM      4  C   LIG    1        0.400   1.967   1.641  0.00  0.00    +0.200 A 
ATOM      5  N   LIG    1        1.246   1.571   2.540  0.00  0.00    -0.450 NA
ENDROOT
BRANCH   1   9
ATOM      6  C   LIG    1        5.768   3.077   5.810  0.00  0.00    +0.680 C 
ATOM      7  N   LIG    1        4.661   2.934   5.054  0.00  0.00    -0.640 N 
ATOM      8  C   LIG    1        4.356   2.241   3.788  0.00  0.00    +0.340 C 
ATOM      9  C   LIG    1        2.900   2.197   4.284  0.00  0.00    +0.070 C 
ATOM     10  C   LIG    1        3.265   3.407   5.163  0.00  0.00    +0.310 C 
ATOM     11  O   LIG    1        6.811   2.558   5.464  0.00  0.00    -0.560 OA
BRANCH   6  12
ATOM     12  O   LIG    1        5.718   3.795   6.948  0.00  0.00    -0.360 OA
BRANCH  12  14
ATOM     13  C   LIG    1        8.023   4.574   6.852  0.00  0.00    +0.050 C 
ATOM     14  C   LIG    1        6.948   3.906   7.712  0.00  0.00    +0.140 C 
ATOM     15  C   LIG    1        7.420   2.511   8.126  0.00  0.00    +0.040 C 
ATOM     16  C   LIG    1        6.697   4.752   8.962  0.00  0.00    +0.080 C 
ENDBRANCH  12  14
ENDBRANCH   6  12
ENDBRANCH   1   9
BRANCH   4  17
ATOM     17  N   LIG    1       -0.358   1.125   0.836  0.00  0.00    -0.580 N 
ATOM     18  H   LIG    1       -0.273   0.163   0.925  0.00  0.00    +0.450 HD
BRANCH  17  19
ATOM     19  C   LIG    1       -1.221   1.655  -0.088  0.00  0.00    +0.770 C 
BRANCH  19  20
ATOM     20  N   LIG    1       -2.044   0.856  -0.765  0.00  0.00    -0.750 NA
ATOM     21  H   LIG    1       -2.032  -0.101  -0.604  0.00  0.00    +0.440 HD
ATOM     22  H   LIG    1       -2.654   1.231  -1.419  0.00  0.00    +0.450 HD
ENDBRANCH  19  20
BRANCH  19  23
ATOM     23  N   LIG    1       -1.236   2.968  -0.309  0.00  0.00    -0.830 NA
ATOM     24  H   LIG    1       -2.076   3.452  -0.297  0.00  0.00    +0.450 HD
ATOM     25  H   LIG    1       -0.407   3.440  -0.483  0.00  0.00    +0.440 HD
ENDBRANCH  19  23
ENDBRANCH  17  19
ENDBRANCH   4  17
TORSDOF 7
