REMARK  Name = ZINCpk00000JnE1k.0
REMARK                            x       y       z     vdW  Elec       q    Type
REMARK                         _______ _______ _______ _____ _____    ______ ____
ROOT
ATOM      1  N   LIG    1       -2.138   5.903   8.161  0.00  0.00    -0.670 N 
ATOM      2  H   LIG    1       -1.433   6.532   8.382  0.00  0.00    +0.410 HD
ATOM      3  C   LIG    1       -2.170   5.327   6.943  0.00  0.00    +0.730 C 
ATOM      4  N   LIG    1       -1.291   5.708   5.994  0.00  0.00    -0.610 N 
ATOM      5  C   LIG    1       -0.248   6.737   6.152  0.00  0.00    +0.240 C 
ATOM      6  C   LIG    1        0.042   7.232   4.714  0.00  0.00    +0.040 C 
ATOM      7  C   LIG    1       -0.082   5.917   3.900  0.00  0.00    +0.060 C 
ATOM      8  C   LIG    1       -1.215   5.165   4.630  0.00  0.00    +0.240 C 
ATOM      9  O   LIG    1       -2.990   4.463   6.700  0.00  0.00    -0.560 OA
ENDROOT
BRANCH   8  10
ATOM     10  C   LIG    1       -0.903   3.692   4.681  0.00  0.00    +0.510 C 
ATOM     11  N   LIG    1       -1.149   2.913   3.608  0.00  0.00    -0.610 N 
ATOM     12  C   LIG    1       -0.851   1.473   3.637  0.00  0.00    +0.300 C 
ATOM     13  C   LIG    1       -0.013   1.124   2.403  0.00  0.00    +0.170 C 
ATOM     14  N   LIG    1       -0.707   1.591   1.195  0.00  0.00    -0.540 NA
ATOM     15  C   LIG    1       -0.848   3.054   1.193  0.00  0.00    +0.170 C 
ATOM     16  C   LIG    1       -0.023   1.126  -0.018  0.00  0.00    +0.190 C 
ATOM     17  C   LIG    1       -1.720   3.481   2.378  0.00  0.00    +0.280 C 
ATOM     18  O   LIG    1       -0.431   3.207   5.687  0.00  0.00    -0.520 OA
ENDBRANCH   8  10
BRANCH   1  24
ATOM     19  C   LIG    1       -2.853   5.734  10.468  0.00  0.00    +0.090 A 
ATOM     20  C   LIG    1       -3.833   5.433  11.400  0.00  0.00    -0.060 A 
ATOM     21  C   LIG    1       -5.071   4.983  10.981  0.00  0.00    +0.030 A 
ATOM     22  C   LIG    1       -5.338   4.838   9.632  0.00  0.00    +0.000 A 
ATOM     23  C   LIG    1       -4.367   5.142   8.696  0.00  0.00    +0.050 A 
ATOM     24  C   LIG    1       -3.123   5.594   9.109  0.00  0.00    +0.140 A 
BRANCH  19  26
ATOM     25  C   LIG    1       -1.427   6.291  12.288  0.00  0.00    +0.250 C 
ATOM     26  O   LIG    1       -1.633   6.171  10.879  0.00  0.00    -0.320 OA
ENDBRANCH  19  26
ENDBRANCH   1  24
TORSDOF 3
