REMARK  Name = ZINCrg00000BfGy9.0
REMARK                            x       y       z     vdW  Elec       q    Type
REMARK                         _______ _______ _______ _____ _____    ______ ____
ROOT
ATOM      1  C   LIG    1        1.433  -0.107  -0.915  0.00  0.00    +0.220 C 
ATOM      2  C   LIG    1        0.114   0.225  -0.185  0.00  0.00    +0.080 C 
ATOM      3  C   LIG    1        0.203   1.761   0.012  0.00  0.00    +0.170 C 
ATOM      4  C   LIG    1        1.719   1.955   0.265  0.00  0.00    +0.240 C 
ATOM      5  N   LIG    1        2.377   0.982  -0.626  0.00  0.00    -0.600 N 
ATOM      6  C   LIG    1        3.636   1.076  -1.097  0.00  0.00    +0.590 C 
ATOM      7  O   LIG    1        4.037   0.278  -1.923  0.00  0.00    -0.540 OA
ENDROOT
BRANCH   6   8
ATOM      8  C   LIG    1        4.528   2.146  -0.612  0.00  0.00    -0.120 A 
ATOM      9  C   LIG    1        4.156   2.929   0.483  0.00  0.00    +0.080 A 
ATOM     10  C   LIG    1        4.993   3.929   0.932  0.00  0.00    +0.030 A 
ATOM     11  C   LIG    1        6.205   4.165   0.307  0.00  0.00    +0.110 A 
ATOM     12  C   LIG    1        6.591   3.397  -0.780  0.00  0.00    +0.030 A 
ATOM     13  O   LIG    1        7.692   3.402  -1.571  0.00  0.00    -0.230 OA
ATOM     14  C   LIG    1        7.578   2.428  -2.488  0.00  0.00    +0.640 A 
ATOM     15  O   LIG    1        8.401   2.170  -3.345  0.00  0.00    -0.470 OA
ATOM     16  N   LIG    1        6.403   1.790  -2.319  0.00  0.00    -0.630 N 
ATOM     17  H   LIG    1        6.070   1.053  -2.853  0.00  0.00    +0.450 HD
ATOM     18  C   LIG    1        5.757   2.380  -1.242  0.00  0.00    +0.140 A 
ENDBRANCH   6   8
BRANCH   3  19
ATOM     19  O   LIG    1       -0.563   2.178   1.145  0.00  0.00    -0.550 OA
ATOM     20  H   LIG    1       -0.537   3.130   1.308  0.00  0.00    +0.390 HD
ENDBRANCH   3  19
BRANCH   1  21
ATOM     21  C   LIG    1        1.994  -1.433  -0.398  0.00  0.00    +0.260 C 
BRANCH  21  24
ATOM     22  O   LIG    1        3.618  -3.518   0.134  0.00  0.00    -0.550 OA
ATOM     23  C   LIG    1        3.872  -2.908  -0.883  0.00  0.00    +0.510 C 
ATOM     24  N   LIG    1        3.119  -1.848  -1.240  0.00  0.00    -0.730 N 
ATOM     25  H   LIG    1        3.322  -1.361  -2.053  0.00  0.00    +0.410 HD
BRANCH  23  26
ATOM     26  C   LIG    1        5.029  -3.335  -1.749  0.00  0.00    +0.050 C 
BRANCH  26  27
ATOM     27  C   LIG    1        5.712  -4.553  -1.123  0.00  0.00    +0.070 C 
BRANCH  27  28
ATOM     28  C   LIG    1        6.887  -4.987  -2.002  0.00  0.00    -0.060 C 
ATOM     29  C   LIG    1        6.810  -6.370  -2.652  0.00  0.00    +0.000 C 
ATOM     30  C   LIG    1        7.772  -6.123  -1.487  0.00  0.00    +0.000 C 
ENDBRANCH  27  28
ENDBRANCH  26  27
ENDBRANCH  23  26
ENDBRANCH  21  24
ENDBRANCH   1  21
TORSDOF 7
