REMARK  Name = ZINCrH000004lTnE.0
REMARK                            x       y       z     vdW  Elec       q    Type
REMARK                         _______ _______ _______ _____ _____    ______ ____
ROOT
ATOM      1  C   LIG    1        2.539  -2.868  -0.040  0.00  0.00    +0.550 C 
ATOM      2  N   LIG    1        2.540  -4.216  -0.045  0.00  0.00    -0.660 N 
ATOM      3  H   LIG    1        1.705  -4.702   0.035  0.00  0.00    +0.420 HD
ATOM      4  O   LIG    1        3.591  -2.258  -0.046  0.00  0.00    -0.420 OA
ENDROOT
BRANCH   1   8
ATOM      5  C   LIG    1       -1.192  -0.755   0.001  0.00  0.00    +0.170 A 
ATOM      6  C   LIG    1       -1.149  -2.135  -0.005  0.00  0.00    -0.080 A 
ATOM      7  C   LIG    1        0.054  -2.821  -0.018  0.00  0.00    +0.110 A 
ATOM      8  C   LIG    1        1.264  -2.134  -0.025  0.00  0.00    -0.100 A 
ATOM      9  C   LIG    1        1.249  -0.672  -0.019  0.00  0.00    +0.180 A 
ATOM     10  N   LIG    1        2.382   0.030  -0.026  0.00  0.00    -0.440 NA
ATOM     11  C   LIG    1        2.370   1.343  -0.021  0.00  0.00    +0.320 A 
ATOM     12  C   LIG    1        1.179   2.063  -0.007  0.00  0.00    -0.020 A 
ATOM     13  C   LIG    1       -0.018   1.401   0.000  0.00  0.00    +0.110 A 
ATOM     14 CL   LIG    1       -2.636  -3.030   0.004  0.00  0.00    -0.040 Cl
ATOM     15  C   LIG    1        0.002  -0.004  -0.006  0.00  0.00    -0.120 A 
BRANCH   5  17
ATOM     16  C   LIG    1       -2.972   0.193  -1.253  0.00  0.00    +0.250 C 
ATOM     17  O   LIG    1       -2.389  -0.118   0.014  0.00  0.00    -0.320 OA
ENDBRANCH   5  17
ENDBRANCH   1   8
BRANCH   2  18
ATOM     18  C   LIG    1        3.742  -4.910  -0.166  0.00  0.00    +0.390 A 
ATOM     19  C   LIG    1        3.728  -6.294  -0.278  0.00  0.00    -0.070 A 
ATOM     20  C   LIG    1        4.934  -6.974  -0.402  0.00  0.00    +0.240 A 
ATOM     21  C   LIG    1        6.116  -6.232  -0.399  0.00  0.00    -0.090 A 
ATOM     22  C   LIG    1        6.049  -4.860  -0.280  0.00  0.00    +0.340 A 
ATOM     23  N   LIG    1        4.887  -4.244  -0.168  0.00  0.00    -0.480 NA
BRANCH  20  24
ATOM     24  N   LIG    1        4.963  -8.368  -0.521  0.00  0.00    -0.330 N 
ATOM     25  C   LIG    1        6.077  -9.145  -0.553  0.00  0.00    +0.240 A 
ATOM     26  C   LIG    1        5.674 -10.431  -0.673  0.00  0.00    -0.090 A 
ATOM     27  C   LIG    1        4.276 -10.443  -0.727  0.00  0.00    +0.250 A 
ATOM     28  N   LIG    1        3.850  -9.210  -0.636  0.00  0.00    -0.290 NA
ENDBRANCH  20  24
ENDBRANCH   2  18
TORSDOF 4
