REMARK  Name = ZINCpk00001AZj23.0
REMARK                            x       y       z     vdW  Elec       q    Type
REMARK                         _______ _______ _______ _____ _____    ______ ____
ROOT
ATOM      1  N   LIG    1        1.044   2.198   0.396  0.00  0.00    -0.570 N 
ATOM      2  C   LIG    1        0.641   3.480   0.440  0.00  0.00    +0.570 C 
ATOM      3  C   LIG    1       -0.836   3.513   0.356  0.00  0.00    -0.110 A 
ATOM      4  C   LIG    1       -1.780   4.528   0.355  0.00  0.00    +0.100 A 
ATOM      5  C   LIG    1       -3.125   4.218   0.246  0.00  0.00    +0.100 A 
ATOM      6  C   LIG    1       -3.536   2.890   0.149  0.00  0.00    -0.140 A 
ATOM      7  C   LIG    1       -2.591   1.860   0.154  0.00  0.00    +0.170 A 
ATOM      8  C   LIG    1       -1.246   2.167   0.255  0.00  0.00    -0.150 A 
ATOM      9  O   LIG    1        1.367   4.449   0.534  0.00  0.00    -0.450 OA
ATOM     10  C   LIG    1       -0.006   1.363   0.291  0.00  0.00    +0.580 C 
ATOM     11  O   LIG    1        0.056   0.152   0.231  0.00  0.00    -0.450 OA
ENDROOT
BRANCH   6  12
ATOM     12  C   LIG    1       -4.979   2.569   0.041  0.00  0.00    +0.560 C 
ATOM     13  O   LIG    1       -5.340   1.407  -0.044  0.00  0.00    -0.480 OA
BRANCH  12  14
ATOM     14  N   LIG    1       -5.883   3.550   0.036  0.00  0.00    -0.590 NA
ATOM     15  C   LIG    1       -6.136   4.217  -1.090  0.00  0.00    +0.370 A 
ATOM     16  S   LIG    1       -7.122   5.617  -1.268  0.00  0.00    +0.180 S 
ATOM     17  C   LIG    1       -6.863   5.762  -3.015  0.00  0.00    -0.050 A 
ATOM     18  C   LIG    1       -6.066   4.751  -3.340  0.00  0.00    +0.260 A 
ATOM     19  N   LIG    1       -5.676   3.929  -2.331  0.00  0.00    -0.530 N 
ATOM     20  C   LIG    1       -4.798   2.782  -2.574  0.00  0.00    +0.310 C 
ENDBRANCH  12  14
ENDBRANCH   6  12
BRANCH   1  21
ATOM     21  C   LIG    1        2.443   1.766   0.455  0.00  0.00    +0.310 C 
BRANCH  21  22
ATOM     22  C   LIG    1        3.014   1.692  -0.962  0.00  0.00    +0.020 C 
BRANCH  22  23
ATOM     23  C   LIG    1        4.475   1.241  -0.900  0.00  0.00    +0.190 C 
BRANCH  23  25
ATOM     24  C   LIG    1        6.375   0.758  -2.279  0.00  0.00    +0.200 C 
ATOM     25  O   LIG    1        5.008   1.171  -2.224  0.00  0.00    -0.390 OA
ENDBRANCH  23  25
ENDBRANCH  22  23
ENDBRANCH  21  22
ENDBRANCH   1  21
TORSDOF 6
