REMARK  Name = ZINCqH0000005QGa.0
REMARK                            x       y       z     vdW  Elec       q    Type
REMARK                         _______ _______ _______ _____ _____    ______ ____
ROOT
ATOM      1  N   LIG    1        3.545   3.389  -0.013  0.00  0.00    -0.730 N 
ATOM      2  H   LIG    1        3.600   2.420  -0.018  0.00  0.00    +0.400 HD
ATOM      3  C   LIG    1        2.341   3.995   0.001  0.00  0.00    +0.560 C 
ATOM      4  O   LIG    1        2.272   5.209   0.008  0.00  0.00    -0.500 OA
ENDROOT
BRANCH   3   5
ATOM      5  C   LIG    1        1.109   3.187   0.008  0.00  0.00    -0.190 A 
ATOM      6  C   LIG    1        1.173   1.789   0.001  0.00  0.00    +0.120 A 
ATOM      7  C   LIG    1       -0.013   1.076   0.008  0.00  0.00    -0.050 A 
ATOM      8  C   LIG    1       -1.217   1.756   0.017  0.00  0.00    +0.320 A 
ATOM      9  N   LIG    1       -1.258   3.074   0.030  0.00  0.00    -0.490 NA
ATOM     10  C   LIG    1       -0.154   3.806   0.023  0.00  0.00    +0.160 A 
BRANCH  10  11
ATOM     11  S   LIG    1       -0.268   5.564   0.034  0.00  0.00    +0.050 S 
BRANCH  11  12
ATOM     12  C   LIG    1       -2.067   5.763   0.051  0.00  0.00    -0.020 C 
ATOM     13  C   LIG    1       -2.664   5.284  -1.288  0.00  0.00    +0.040 C 
ATOM     14  C   LIG    1       -3.820   6.277  -1.565  0.00  0.00    +0.020 C 
ATOM     15  C   LIG    1       -3.238   7.626  -1.072  0.00  0.00    +0.020 C 
ATOM     16  C   LIG    1       -2.431   7.251   0.188  0.00  0.00    +0.040 C 
ENDBRANCH  11  12
ENDBRANCH  10  11
ENDBRANCH   3   5
BRANCH   1  17
ATOM     17  C   LIG    1        4.770   4.192  -0.020  0.00  0.00    +0.410 C 
BRANCH  17  21
ATOM     18  C   LIG    1        7.686   1.972  -0.660  0.00  0.00    -0.240 A 
ATOM     19  C   LIG    1        7.625   2.022   0.703  0.00  0.00    +0.110 A 
ATOM     20  O   LIG    1        6.601   2.807   1.051  0.00  0.00    -0.160 OA
ATOM     21  C   LIG    1        5.969   3.279  -0.035  0.00  0.00    -0.040 A 
ATOM     22  C   LIG    1        8.557   1.315   1.653  0.00  0.00    +0.210 C 
ATOM     23  C   LIG    1        6.578   2.814  -1.136  0.00  0.00    +0.040 A 
BRANCH  18  24
ATOM     24  C   LIG    1        8.658   1.231  -1.481  0.00  0.00    +0.540 C 
ATOM     25  O   LIG    1        9.527   0.572  -0.947  0.00  0.00    -0.510 OA
BRANCH  24  27
ATOM     26  C   LIG    1        9.574   0.530  -3.571  0.00  0.00    +0.280 C 
ATOM     27  O   LIG    1        8.583   1.285  -2.826  0.00  0.00    -0.350 OA
ENDBRANCH  24  27
ENDBRANCH  18  24
ENDBRANCH  17  21
ENDBRANCH   1  17
TORSDOF 7
