REMARK  Name = ZINCrD000000AhG8.0
REMARK                            x       y       z     vdW  Elec       q    Type
REMARK                         _______ _______ _______ _____ _____    ______ ____
ROOT
ATOM      1  O   LIG    1       -2.850   4.466  -3.312  0.00  0.00    -0.530 OA
ATOM      2  C   LIG    1       -1.798   5.065  -3.378  0.00  0.00    +0.520 C 
ATOM      3  N   LIG    1       -0.782   4.736  -2.555  0.00  0.00    -0.730 N 
ATOM      4  H   LIG    1        0.060   5.215  -2.608  0.00  0.00    +0.400 HD
ENDROOT
BRANCH   3   5
ATOM      5  C   LIG    1       -0.949   3.654  -1.581  0.00  0.00    +0.230 C 
ATOM      6  C   LIG    1        0.420   3.065  -1.234  0.00  0.00    +0.020 C 
ATOM      7  C   LIG    1        0.239   1.912  -0.242  0.00  0.00    +0.280 C 
ATOM      8  N   LIG    1       -0.518   2.398   0.919  0.00  0.00    -0.610 N 
ATOM      9  C   LIG    1       -1.809   3.066   0.689  0.00  0.00    +0.280 C 
ATOM     10  C   LIG    1       -0.037   2.238   2.168  0.00  0.00    +0.560 C 
ATOM     11  O   LIG    1        0.998   1.625   2.347  0.00  0.00    -0.530 OA
ATOM     12  C   LIG    1       -1.605   4.206  -0.314  0.00  0.00    +0.010 C 
BRANCH  10  13
ATOM     13  C   LIG    1       -0.768   2.807   3.321  0.00  0.00    -0.130 A 
ATOM     14  C   LIG    1       -2.133   2.563   3.474  0.00  0.00    +0.040 A 
ATOM     15  C   LIG    1       -2.808   3.093   4.554  0.00  0.00    +0.010 A 
ATOM     16  C   LIG    1       -2.137   3.873   5.479  0.00  0.00    +0.030 A 
ATOM     17  C   LIG    1       -0.784   4.123   5.329  0.00  0.00    +0.010 A 
ATOM     18  C   LIG    1       -0.096   3.594   4.257  0.00  0.00    +0.060 A 
ENDBRANCH  10  13
ENDBRANCH   3   5
BRANCH   2  19
ATOM     19  C   LIG    1       -1.626   6.178  -4.379  0.00  0.00    +0.060 C 
BRANCH  19  20
ATOM     20  C   LIG    1       -2.918   6.347  -5.181  0.00  0.00    +0.110 C 
BRANCH  20  21
ATOM     21  C   LIG    1       -2.746   7.460  -6.183  0.00  0.00    -0.090 A 
ATOM     22  C   LIG    1       -3.167   8.739  -5.873  0.00  0.00    +0.030 A 
ATOM     23  C   LIG    1       -3.003   9.762  -6.791  0.00  0.00    +0.090 A 
ATOM     24  C   LIG    1       -2.430   9.502  -8.024  0.00  0.00    +0.020 A 
ATOM     25  C   LIG    1       -2.014   8.221  -8.335  0.00  0.00    +0.030 A 
ATOM     26  F   LIG    1       -3.409  11.014  -6.486  0.00  0.00    -0.130 F 
ATOM     27  C   LIG    1       -2.171   7.199  -7.415  0.00  0.00    +0.090 A 
ATOM     28  F   LIG    1       -1.765   5.947  -7.720  0.00  0.00    -0.130 F 
ENDBRANCH  20  21
ENDBRANCH  19  20
ENDBRANCH   2  19
TORSDOF 5
