REMARK  Name = ZINCpe000027pH0i.0
REMARK                            x       y       z     vdW  Elec       q    Type
REMARK                         _______ _______ _______ _____ _____    ______ ____
ROOT
ATOM      1  N   LIG    1       -4.997   4.601  -5.437  0.00  0.00    -0.600 N 
ATOM      2  C   LIG    1       -4.307   3.917  -4.338  0.00  0.00    +0.350 C 
ATOM      3  C   LIG    1       -2.886   3.708  -4.796  0.00  0.00    -0.090 A 
ATOM      4  C   LIG    1       -1.777   3.128  -4.210  0.00  0.00    +0.140 A 
ATOM      5  C   LIG    1       -0.570   3.089  -4.901  0.00  0.00    +0.130 A 
ATOM      6  C   LIG    1       -0.482   3.621  -6.174  0.00  0.00    +0.020 A 
ATOM      7  C   LIG    1       -1.586   4.200  -6.766  0.00  0.00    +0.110 A 
ATOM      8  C   LIG    1       -2.801   4.249  -6.080  0.00  0.00    -0.150 A 
ATOM      9  C   LIG    1       -4.125   4.791  -6.442  0.00  0.00    +0.570 C 
ATOM     10  O   LIG    1       -4.389   5.333  -7.498  0.00  0.00    -0.510 OA
ENDROOT
BRANCH   1  15
ATOM     11  O   LIG    1       -9.544   6.608  -7.461  0.00  0.00    -0.500 OA
ATOM     12  C   LIG    1       -8.609   6.130  -6.855  0.00  0.00    +0.520 C 
ATOM     13  C   LIG    1       -7.975   6.915  -5.737  0.00  0.00    +0.100 C 
ATOM     14  C   LIG    1       -6.497   6.527  -5.625  0.00  0.00    +0.060 C 
ATOM     15  C   LIG    1       -6.404   5.009  -5.439  0.00  0.00    +0.290 C 
ATOM     16  C   LIG    1       -7.124   4.327  -6.573  0.00  0.00    +0.520 C 
ATOM     17  O   LIG    1       -6.760   3.228  -6.933  0.00  0.00    -0.480 OA
ATOM     18  N   LIG    1       -8.160   4.912  -7.192  0.00  0.00    -0.670 N 
ATOM     19  H   LIG    1       -8.601   4.436  -7.913  0.00  0.00    +0.420 HD
ENDBRANCH   1  15
BRANCH   4  20
ATOM     20  N   LIG    1       -1.866   2.586  -2.923  0.00  0.00    -0.630 N 
ATOM     21  H   LIG    1       -2.603   1.998  -2.694  0.00  0.00    +0.410 HD
BRANCH  20  22
ATOM     22  C   LIG    1       -0.929   2.882  -2.001  0.00  0.00    +0.590 C 
ATOM     23  S   LIG    1        0.430   3.829  -2.434  0.00  0.00    -0.620 S 
BRANCH  22  24
ATOM     24  N   LIG    1       -1.060   2.431  -0.737  0.00  0.00    -0.610 N 
ATOM     25  C   LIG    1       -0.287   2.533   0.509  0.00  0.00    +0.320 C 
ATOM     26  C   LIG    1       -1.603   2.356   1.279  0.00  0.00    +0.050 C 
ATOM     27  C   LIG    1       -2.042   1.623   0.002  0.00  0.00    +0.260 C 
ENDBRANCH  22  24
ENDBRANCH  20  22
ENDBRANCH   4  20
TORSDOF 4
