REMARK  Name = ZINCrD000000B9pM.0
REMARK                            x       y       z     vdW  Elec       q    Type
REMARK                         _______ _______ _______ _____ _____    ______ ____
ROOT
ATOM      1  C   LIG    1        3.672   2.182  -0.023  0.00  0.00    +0.110 C 
ENDROOT
BRANCH   1   2
ATOM      2  C   LIG    1        3.729   3.055  -1.250  0.00  0.00    -0.170 A 
ATOM      3  C   LIG    1        2.861   4.025  -1.581  0.00  0.00    +0.240 A 
ATOM      4  N   LIG    1        3.236   4.603  -2.763  0.00  0.00    -0.590 N 
ATOM      5  H   LIG    1        2.766   5.329  -3.202  0.00  0.00    +0.420 HD
ATOM      6  C   LIG    1        4.379   3.999  -3.237  0.00  0.00    +0.100 A 
ATOM      7  C   LIG    1        5.163   4.189  -4.370  0.00  0.00    -0.010 A 
ATOM      8  C   LIG    1        6.277   3.404  -4.571  0.00  0.00    +0.030 A 
ATOM      9  C   LIG    1        6.627   2.422  -3.654  0.00  0.00    -0.020 A 
ATOM     10  C   LIG    1        5.871   2.219  -2.534  0.00  0.00    +0.050 A 
ATOM     11  C   LIG    1        4.737   3.003  -2.311  0.00  0.00    -0.100 A 
ENDBRANCH   1   2
BRANCH   1  12
ATOM     12  C   LIG    1        2.377   1.411  -0.015  0.00  0.00    -0.080 A 
ATOM     13  C   LIG    1        1.171   2.086   0.002  0.00  0.00    +0.010 A 
ATOM     14  C   LIG    1       -0.017   1.378   0.010  0.00  0.00    +0.010 A 
ATOM     15  C   LIG    1        0.002  -0.004   0.002  0.00  0.00    +0.000 A 
ATOM     16  C   LIG    1        1.208  -0.679  -0.013  0.00  0.00    +0.010 A 
ATOM     17  C   LIG    1        2.396   0.029  -0.021  0.00  0.00    +0.000 A 
ENDBRANCH   1  12
BRANCH   1  18
ATOM     18  C   LIG    1        3.753   3.057   1.230  0.00  0.00    +0.290 C 
BRANCH  18  21
ATOM     19  O   LIG    1        3.910   3.968   3.763  0.00  0.00    -0.520 OA
ATOM     20  C   LIG    1        3.895   2.758   3.644  0.00  0.00    +0.570 C 
ATOM     21  N   LIG    1        3.818   2.203   2.418  0.00  0.00    -0.720 N 
ATOM     22  H   LIG    1        3.806   1.237   2.323  0.00  0.00    +0.400 HD
BRANCH  20  23
ATOM     23  C   LIG    1        3.960   1.896   4.843  0.00  0.00    -0.140 C 
ATOM     24  C   LIG    1        3.938   0.502   4.720  0.00  0.00    +0.110 C 
ATOM     25  C   LIG    1        4.005  -0.260   5.873  0.00  0.00    +0.050 C 
ATOM     26  C   LIG    1        4.084   0.373   7.100  0.00  0.00    +0.280 C 
ATOM     27  N   LIG    1        4.099   1.691   7.187  0.00  0.00    -0.120 NA
ATOM     28  O   LIG    1        4.179   2.295   8.465  0.00  0.00    -0.540 OA
ATOM     29  C   LIG    1        4.040   2.459   6.118  0.00  0.00    +0.330 C 
ENDBRANCH  20  23
ENDBRANCH  18  21
ENDBRANCH   1  18
TORSDOF 5
