REMARK  Name = ZINCpk000000nU5s.0
REMARK                            x       y       z     vdW  Elec       q    Type
REMARK                         _______ _______ _______ _____ _____    ______ ____
ROOT
ATOM      1  N   LIG    1        0.783  -0.488   1.143  0.00  0.00    -0.560 N 
ATOM      2  C   LIG    1        0.165  -0.722   2.312  0.00  0.00    +0.700 A 
ATOM      3  N   LIG    1        0.813  -1.167   3.402  0.00  0.00    -0.640 N 
ATOM      4  H   LIG    1        0.321  -1.321   4.224  0.00  0.00    +0.440 HD
ATOM      5  C   LIG    1        2.179  -1.407   3.364  0.00  0.00    +0.190 A 
ATOM      6  C   LIG    1        2.871  -1.862   4.471  0.00  0.00    -0.030 A 
ATOM      7  C   LIG    1        4.238  -2.094   4.400  0.00  0.00    -0.000 A 
ATOM      8  C   LIG    1        4.919  -1.873   3.218  0.00  0.00    -0.110 A 
ATOM      9  C   LIG    1        6.400  -2.116   3.080  0.00  0.00    +0.080 C 
ATOM     10  C   LIG    1        7.063  -2.190   4.453  0.00  0.00    +0.020 C 
ATOM     11  C   LIG    1        6.284  -3.192   5.312  0.00  0.00    +0.020 C 
ATOM     12  C   LIG    1        4.240  -1.414   2.100  0.00  0.00    +0.130 A 
ATOM     13  C   LIG    1        4.924  -2.583   5.649  0.00  0.00    +0.080 C 
ATOM     14  C   LIG    1        2.873  -1.178   2.163  0.00  0.00    -0.200 A 
ATOM     15  O   LIG    1       -1.032  -0.524   2.387  0.00  0.00    -0.540 OA
ATOM     16  C   LIG    1        2.110  -0.696   0.998  0.00  0.00    +0.560 A 
ATOM     17  O   LIG    1        2.661  -0.485  -0.065  0.00  0.00    -0.480 OA
ENDROOT
BRANCH   1  18
ATOM     18  C   LIG    1        0.002  -0.004   0.002  0.00  0.00    +0.330 C 
BRANCH  18  27
ATOM     19  C   LIG    1       -1.623   1.019  -1.884  0.00  0.00    +0.050 C 
ATOM     20  C   LIG    1       -0.675   2.059  -1.283  0.00  0.00    -0.060 C 
ATOM     21  C   LIG    1        0.556   2.278  -2.193  0.00  0.00    +0.070 C 
ATOM     22  C   LIG    1        1.702   2.477  -1.226  0.00  0.00    +0.530 C 
ATOM     23  N   LIG    1        1.351   2.052   0.000  0.00  0.00    -0.720 N 
ATOM     24  H   LIG    1        1.929   2.089   0.778  0.00  0.00    +0.400 HD
ATOM     25  O   LIG    1        2.780   2.950  -1.515  0.00  0.00    -0.530 OA
ATOM     26  C   LIG    1       -1.406   3.377  -1.022  0.00  0.00    +0.060 C 
ATOM     27  C   LIG    1       -0.019   1.526   0.010  0.00  0.00    +0.230 C 
ENDBRANCH  18  27
ENDBRANCH   1  18
TORSDOF 2
