REMARK  Name = ZINCpe000000YTOz.0
REMARK                            x       y       z     vdW  Elec       q    Type
REMARK                         _______ _______ _______ _____ _____    ______ ____
ROOT
ATOM      1  N   LIG    1        2.408   7.948   0.710  0.00  0.00    -0.520 NA
ATOM      2  C   LIG    1        3.639   7.157   0.842  0.00  0.00    +0.170 C 
ATOM      3  C   LIG    1        3.646   6.048  -0.216  0.00  0.00    +0.300 C 
ATOM      4  N   LIG    1        2.397   5.280  -0.096  0.00  0.00    -0.610 N 
ATOM      5  C   LIG    1        1.125   6.018  -0.088  0.00  0.00    +0.290 C 
ATOM      6  C   LIG    1        2.419   3.936  -0.001  0.00  0.00    +0.560 C 
ATOM      7  O   LIG    1        3.480   3.350   0.095  0.00  0.00    -0.530 OA
ATOM      8  C   LIG    1        1.218   7.128   0.971  0.00  0.00    +0.190 C 
ENDROOT
BRANCH   6   9
ATOM      9  C   LIG    1        1.153   3.175  -0.013  0.00  0.00    -0.150 A 
ATOM     10  C   LIG    1        1.036   1.998   0.729  0.00  0.00    +0.110 A 
ATOM     11  C   LIG    1       -0.147   1.291   0.713  0.00  0.00    -0.020 A 
ATOM     12  C   LIG    1       -1.219   1.744  -0.042  0.00  0.00    +0.120 A 
ATOM     13  C   LIG    1       -1.110   2.915  -0.776  0.00  0.00    -0.020 A 
ATOM     14  F   LIG    1       -2.374   1.044  -0.058  0.00  0.00    -0.130 F 
ATOM     15  C   LIG    1        0.069   3.630  -0.768  0.00  0.00    +0.090 A 
ENDBRANCH   6   9
BRANCH   1  16
ATOM     16  C   LIG    1        2.441   9.124   1.590  0.00  0.00    +0.220 C 
BRANCH  16  18
ATOM     17  O   LIG    1        0.516   9.734   0.369  0.00  0.00    -0.520 OA
ATOM     18  C   LIG    1        1.289  10.035   1.254  0.00  0.00    +0.510 C 
ATOM     19  N   LIG    1        1.116  11.184   1.938  0.00  0.00    -0.730 N 
ATOM     20  H   LIG    1        1.734  11.424   2.646  0.00  0.00    +0.400 HD
BRANCH  19  21
ATOM     21  C   LIG    1       -0.004  12.069   1.611  0.00  0.00    +0.270 C 
BRANCH  21  22
ATOM     22  C   LIG    1        0.030  13.294   2.528  0.00  0.00    +0.150 C 
ATOM     23  C   LIG    1       -1.168  14.228   2.223  0.00  0.00    +0.020 C 
ATOM     24  C   LIG    1       -1.318  14.966   3.582  0.00  0.00    +0.010 C 
ATOM     25  C   LIG    1       -0.923  13.873   4.597  0.00  0.00    +0.190 C 
ATOM     26  O   LIG    1       -0.141  12.896   3.898  0.00  0.00    -0.380 OA
ENDBRANCH  21  22
ENDBRANCH  19  21
ENDBRANCH  16  18
ENDBRANCH   1  16
TORSDOF 5
