REMARK  Name = ZINCrD00000l2osM.0
REMARK                            x       y       z     vdW  Elec       q    Type
REMARK                         _______ _______ _______ _____ _____    ______ ____
ROOT
ATOM      1  O   LIG    1       -0.715   1.567  -1.168  0.00  0.00    -0.320 OA
ENDROOT
BRANCH   1   2
ATOM      2  C   LIG    1       -0.209   1.218  -2.368  0.00  0.00    +0.550 C 
ATOM      3  O   LIG    1        0.791   0.531  -2.429  0.00  0.00    -0.490 OA
BRANCH   2   4
ATOM      4  C   LIG    1       -0.869   1.669  -3.604  0.00  0.00    +0.030 A 
ATOM      5  C   LIG    1       -0.401   1.353  -4.833  0.00  0.00    -0.010 A 
ATOM      6  S   LIG    1       -1.423   2.047  -6.016  0.00  0.00    +0.210 S 
ATOM      7  C   LIG    1       -2.436   2.745  -4.758  0.00  0.00    +0.100 A 
ATOM      8  N   LIG    1       -1.962   2.421  -3.594  0.00  0.00    -0.420 NA
BRANCH   7   9
ATOM      9  C   LIG    1       -3.639   3.572  -4.991  0.00  0.00    -0.040 A 
ATOM     10  C   LIG    1       -4.368   4.067  -3.909  0.00  0.00    +0.090 A 
ATOM     11  C   LIG    1       -5.487   4.841  -4.130  0.00  0.00    -0.010 A 
ATOM     12  C   LIG    1       -5.895   5.120  -5.428  0.00  0.00    +0.130 A 
ATOM     13  C   LIG    1       -5.175   4.625  -6.507  0.00  0.00    +0.000 A 
ATOM     14  C   LIG    1       -4.053   3.854  -6.294  0.00  0.00    +0.050 A 
BRANCH  12  15
ATOM     15  O   LIG    1       -7.001   5.879  -5.642  0.00  0.00    -0.500 OA
ATOM     16  H   LIG    1       -7.821   5.371  -5.703  0.00  0.00    +0.400 HD
ENDBRANCH  12  15
ENDBRANCH   7   9
ENDBRANCH   2   4
ENDBRANCH   1   2
BRANCH   1  17
ATOM     17  C   LIG    1       -0.013   1.086   0.008  0.00  0.00    +0.340 C 
BRANCH  17  20
ATOM     18  C   LIG    1       -0.935   3.218   2.857  0.00  0.00    +0.480 A 
ATOM     19  N   LIG    1       -0.351   2.732   1.770  0.00  0.00    -0.580 NA
ATOM     20  C   LIG    1       -0.718   1.572   1.248  0.00  0.00    +0.370 A 
ATOM     21  N   LIG    1       -1.664   0.824   1.764  0.00  0.00    -0.530 NA
ATOM     22  C   LIG    1       -2.317   1.218   2.868  0.00  0.00    +0.190 A 
ATOM     23  C   LIG    1       -3.332   0.444   3.446  0.00  0.00    +0.030 A 
ATOM     24  C   LIG    1       -3.963   0.893   4.568  0.00  0.00    +0.070 A 
ATOM     25  C   LIG    1       -3.615   2.108   5.150  0.00  0.00    +0.000 A 
ATOM     26  C   LIG    1       -2.632   2.886   4.612  0.00  0.00    +0.060 A 
ATOM     27  C   LIG    1       -1.965   2.455   3.461  0.00  0.00    -0.190 A 
BRANCH  18  28
ATOM     28  N   LIG    1       -0.548   4.430   3.387  0.00  0.00    -0.820 N 
ATOM     29  H   LIG    1        0.158   4.941   2.962  0.00  0.00    +0.410 HD
ATOM     30  H   LIG    1       -0.982   4.771   4.184  0.00  0.00    +0.410 HD
ENDBRANCH  18  28
ENDBRANCH  17  20
ENDBRANCH   1  17
TORSDOF 7
