REMARK  Name = ZINCqH0000036MxK.0
REMARK                            x       y       z     vdW  Elec       q    Type
REMARK                         _______ _______ _______ _____ _____    ______ ____
ROOT
ATOM      1  C   LIG    1       -0.016   1.343   0.012  0.00  0.00    +0.540 C 
ATOM      2  N   LIG    1        0.002  -0.004   0.002  0.00  0.00    -0.660 N 
ATOM      3  H   LIG    1        0.845  -0.477  -0.083  0.00  0.00    +0.420 HD
ATOM      4  O   LIG    1       -1.074   1.936   0.016  0.00  0.00    -0.500 OA
ENDROOT
BRANCH   2   5
ATOM      5  C   LIG    1       -1.193  -0.720   0.115  0.00  0.00    +0.160 A 
ATOM      6  C   LIG    1       -2.293  -0.145   0.734  0.00  0.00    +0.020 A 
ATOM      7  C   LIG    1       -3.476  -0.852   0.839  0.00  0.00    +0.040 A 
ATOM      8  C   LIG    1       -3.567  -2.139   0.340  0.00  0.00    +0.000 A 
ATOM      9  C   LIG    1       -2.478  -2.726  -0.273  0.00  0.00    +0.040 A 
ATOM     10  C   LIG    1       -1.283  -2.022  -0.390  0.00  0.00    -0.080 A 
BRANCH  10  11
ATOM     11  C   LIG    1       -0.110  -2.648  -1.049  0.00  0.00    -0.050 A 
ATOM     12  C   LIG    1        0.574  -1.967  -2.054  0.00  0.00    +0.000 A 
ATOM     13  C   LIG    1        1.668  -2.552  -2.659  0.00  0.00    +0.010 A 
ATOM     14  C   LIG    1        2.078  -3.817  -2.278  0.00  0.00    +0.000 A 
ATOM     15  C   LIG    1        1.399  -4.500  -1.284  0.00  0.00    +0.010 A 
ATOM     16  C   LIG    1        0.307  -3.922  -0.669  0.00  0.00    +0.030 A 
ENDBRANCH  10  11
ENDBRANCH   2   5
BRANCH   1  18
ATOM     17  C   LIG    1        1.775   2.278  -1.427  0.00  0.00    +0.100 C 
ATOM     18  C   LIG    1        1.279   2.115   0.011  0.00  0.00    +0.010 C 
BRANCH  18  19
ATOM     19  S   LIG    1        1.009   3.747   0.746  0.00  0.00    +0.110 S 
BRANCH  19  20
ATOM     20  C   LIG    1        2.663   4.354   0.758  0.00  0.00    +0.200 A 
ATOM     21  N   LIG    1        3.733   3.716   0.334  0.00  0.00    -0.330 NA
ATOM     22  N   LIG    1        4.780   4.445   0.482  0.00  0.00    -0.030 NA
ATOM     23  N   LIG    1        4.465   5.578   1.011  0.00  0.00    -0.080 NA
ATOM     24  N   LIG    1        3.074   5.562   1.211  0.00  0.00    -0.330 N 
BRANCH  24  25
ATOM     25  C   LIG    1        2.245   6.625   1.785  0.00  0.00    +0.210 C 
ATOM     26  C   LIG    1        2.910   7.979   2.039  0.00  0.00    +0.090 C 
ATOM     27  C   LIG    1        2.556   7.068   3.216  0.00  0.00    +0.070 C 
ENDBRANCH  24  25
ENDBRANCH  19  20
ENDBRANCH  18  19
ENDBRANCH   1  18
TORSDOF 6
