REMARK  Name = ZINCrD000000BHkE.0
REMARK                            x       y       z     vdW  Elec       q    Type
REMARK                         _______ _______ _______ _____ _____    ______ ____
ROOT
ATOM      1  N   LIG    1        0.126   0.110  -0.721  0.00  0.00    -0.720 N 
ATOM      2  H   LIG    1       -0.673  -0.359  -1.007  0.00  0.00    +0.400 HD
ATOM      3  C   LIG    1        0.064   1.419  -0.406  0.00  0.00    +0.560 C 
ATOM      4  O   LIG    1        1.066   2.006  -0.048  0.00  0.00    -0.520 OA
ENDROOT
BRANCH   1  14
ATOM      5  O   LIG    1        2.138  -2.144   4.568  0.00  0.00    -0.550 OA
ATOM      6  C   LIG    1        1.970  -1.801   3.409  0.00  0.00    +0.520 A 
ATOM      7  C   LIG    1        1.460  -0.523   3.119  0.00  0.00    -0.090 A 
ATOM      8  C   LIG    1        1.285  -0.163   1.818  0.00  0.00    +0.130 A 
ATOM      9  C   LIG    1        1.612  -1.068   0.788  0.00  0.00    -0.200 A 
ATOM     10  C   LIG    1        2.093  -2.287   1.099  0.00  0.00    +0.180 A 
ATOM     11  C   LIG    1        2.453  -3.312   0.053  0.00  0.00    +0.090 C 
ATOM     12  C   LIG    1        2.621  -2.653  -1.314  0.00  0.00    +0.060 C 
ATOM     13  C   LIG    1        1.380  -1.795  -1.588  0.00  0.00    +0.030 C 
ATOM     14  C   LIG    1        1.402  -0.606  -0.630  0.00  0.00    +0.310 C 
ATOM     15  N   LIG    1        2.272  -2.641   2.406  0.00  0.00    -0.610 N 
ATOM     16  H   LIG    1        2.624  -3.520   2.615  0.00  0.00    +0.410 HD
ENDBRANCH   1  14
BRANCH   3  17
ATOM     17  C   LIG    1       -1.222   2.142  -0.503  0.00  0.00    -0.100 A 
ATOM     18  C   LIG    1       -2.371   1.473  -0.925  0.00  0.00    +0.020 A 
ATOM     19  C   LIG    1       -3.571   2.150  -1.010  0.00  0.00    +0.060 A 
ATOM     20  C   LIG    1       -3.636   3.493  -0.687  0.00  0.00    -0.040 A 
ATOM     21  C   LIG    1       -2.497   4.168  -0.271  0.00  0.00    +0.120 A 
ATOM     22  C   LIG    1       -1.289   3.497  -0.178  0.00  0.00    +0.070 A 
BRANCH  21  23
ATOM     23  O   LIG    1       -2.567   5.488   0.044  0.00  0.00    -0.250 OA
BRANCH  23  24
ATOM     24  C   LIG    1       -3.773   6.103  -0.051  0.00  0.00    +0.130 A 
ATOM     25  C   LIG    1       -4.170   6.716  -1.237  0.00  0.00    -0.030 A 
ATOM     26  C   LIG    1       -5.407   7.325  -1.296  0.00  0.00    +0.290 A 
ATOM     27  N   LIG    1       -6.203   7.342  -0.243  0.00  0.00    -0.480 NA
ATOM     28  C   LIG    1       -5.859   6.777   0.899  0.00  0.00    +0.290 A 
ATOM     29  C   LIG    1       -4.642   6.143   1.036  0.00  0.00    -0.030 A 
ENDBRANCH  23  24
ENDBRANCH  21  23
ENDBRANCH   3  17
TORSDOF 4
