REMARK  Name = ZINCpe00000yuUb2.1
REMARK                            x       y       z     vdW  Elec       q    Type
REMARK                         _______ _______ _______ _____ _____    ______ ____
ROOT
ATOM      1  N   LIG    1       -2.120   1.125  -2.890  0.00  0.00    -0.730 N 
ATOM      2  H   LIG    1       -1.488   1.765  -3.253  0.00  0.00    +0.400 HD
ATOM      3  C   LIG    1       -2.942   0.448  -3.716  0.00  0.00    +0.590 C 
ATOM      4  O   LIG    1       -3.735  -0.356  -3.260  0.00  0.00    -0.540 OA
ENDROOT
BRANCH   3   5
ATOM      5  C   LIG    1       -2.883   0.680  -5.165  0.00  0.00    -0.220 A 
ATOM      6  C   LIG    1       -2.054   1.542  -5.820  0.00  0.00    +0.290 A 
ATOM      7  N   LIG    1       -2.289   1.481  -7.153  0.00  0.00    -0.570 N 
ATOM      8  H   LIG    1       -1.821   2.004  -7.822  0.00  0.00    +0.430 HD
ATOM      9  C   LIG    1       -3.288   0.572  -7.426  0.00  0.00    +0.110 A 
ATOM     10  C   LIG    1       -3.889   0.147  -8.608  0.00  0.00    +0.020 A 
ATOM     11  C   LIG    1       -4.879  -0.791  -8.578  0.00  0.00    +0.090 A 
ATOM     12  C   LIG    1       -5.305  -1.341  -7.361  0.00  0.00    -0.050 A 
ATOM     13  C   LIG    1       -4.715  -0.928  -6.168  0.00  0.00    +0.130 A 
ATOM     14  C   LIG    1       -3.703   0.022  -6.200  0.00  0.00    -0.070 A 
BRANCH  12  15
ATOM     15  C   LIG    1       -6.345  -2.324  -7.344  0.00  0.00    +0.260 C 
ATOM     16  N   LIG    1       -7.171  -3.105  -7.330  0.00  0.00    -0.420 NA
ENDBRANCH  12  15
ENDBRANCH   3   5
BRANCH   1  17
ATOM     17  C   LIG    1       -2.180   0.893  -1.445  0.00  0.00    +0.300 C 
BRANCH  17  20
ATOM     18  C   LIG    1       -1.136   1.773   0.788  0.00  0.00    +0.240 C 
ATOM     19  C   LIG    1       -0.013   1.086   0.008  0.00  0.00    +0.030 C 
ATOM     20  C   LIG    1       -1.150   1.781  -0.743  0.00  0.00    -0.060 C 
BRANCH  18  22
ATOM     21  C   LIG    1       -2.503   1.209   2.724  0.00  0.00    +0.520 C 
ATOM     22  N   LIG    1       -2.108   0.915   1.469  0.00  0.00    -0.710 N 
ATOM     23  H   LIG    1       -2.469   0.137   1.017  0.00  0.00    +0.400 HD
ATOM     24  O   LIG    1       -2.052   2.183   3.289  0.00  0.00    -0.520 OA
BRANCH  21  25
ATOM     25  C   LIG    1       -3.504   0.327   3.425  0.00  0.00    +0.210 C 
BRANCH  25  27
ATOM     26  C   LIG    1       -4.904   0.169   5.394  0.00  0.00    +0.190 C 
ATOM     27  N   LIG    1       -3.766   0.857   4.770  0.00  0.00    -0.530 NA
ATOM     28  C   LIG    1       -2.567   0.765   5.615  0.00  0.00    +0.200 C 
ENDBRANCH  25  27
ENDBRANCH  21  25
ENDBRANCH  18  22
ENDBRANCH  17  20
ENDBRANCH   1  17
TORSDOF 7
