REMARK  Name = ZINCqH0000050KRJ.0
REMARK                            x       y       z     vdW  Elec       q    Type
REMARK                         _______ _______ _______ _____ _____    ______ ____
ROOT
ATOM      1  N   LIG    1        3.611   3.560  -0.115  0.00  0.00    -0.610 N 
ATOM      2  C   LIG    1        3.647   2.219   0.020  0.00  0.00    +0.560 C 
ATOM      3  O   LIG    1        4.717   1.644   0.089  0.00  0.00    -0.510 OA
ATOM      4  C   LIG    1        2.325   4.263  -0.099  0.00  0.00    +0.290 C 
ENDROOT
BRANCH   2   5
ATOM      5  C   LIG    1        2.392   1.450   0.085  0.00  0.00    -0.080 A 
ATOM      6  C   LIG    1        2.213   0.310  -0.723  0.00  0.00    -0.060 A 
ATOM      7  C   LIG    1        3.041  -0.374  -1.711  0.00  0.00    -0.040 A 
ATOM      8  C   LIG    1        2.331  -1.424  -2.161  0.00  0.00    +0.230 A 
ATOM      9  N   LIG    1        1.115  -1.464  -1.540  0.00  0.00    -0.490 N 
ATOM     10  C   LIG    1        0.079  -2.472  -1.780  0.00  0.00    +0.310 C 
ATOM     11  C   LIG    1        1.010  -0.416  -0.651  0.00  0.00    +0.090 A 
ATOM     12  C   LIG    1        0.009   0.001   0.218  0.00  0.00    +0.010 A 
ATOM     13  C   LIG    1        0.193   1.120   1.006  0.00  0.00    +0.020 A 
ATOM     14  C   LIG    1        1.370   1.843   0.947  0.00  0.00    +0.020 A 
ENDBRANCH   2   5
BRANCH   1  15
ATOM     15  C   LIG    1        4.856   4.314  -0.277  0.00  0.00    +0.410 C 
BRANCH  15  19
ATOM     16  C   LIG    1        4.428   6.814  -4.455  0.00  0.00    +0.150 C 
ATOM     17  C   LIG    1        4.971   5.626  -3.703  0.00  0.00    +0.220 A 
ATOM     18  N   LIG    1        4.719   5.466  -2.419  0.00  0.00    -0.520 NA
ATOM     19  C   LIG    1        5.187   4.428  -1.743  0.00  0.00    +0.310 A 
ATOM     20  N   LIG    1        5.931   3.498  -2.292  0.00  0.00    -0.480 NA
ATOM     21  C   LIG    1        6.241   3.563  -3.593  0.00  0.00    +0.160 A 
ATOM     22  C   LIG    1        7.028   2.587  -4.220  0.00  0.00    +0.040 A 
ATOM     23  C   LIG    1        7.318   2.706  -5.545  0.00  0.00    +0.060 A 
ATOM     24  C   LIG    1        6.845   3.783  -6.291  0.00  0.00    +0.010 A 
ATOM     25  C   LIG    1        6.077   4.750  -5.716  0.00  0.00    +0.060 A 
ATOM     26  C   LIG    1        5.759   4.660  -4.354  0.00  0.00    -0.160 A 
ENDBRANCH  15  19
ENDBRANCH   1  15
TORSDOF 3
