REMARK  Name = ZINCrD0000075z9v.0
REMARK                            x       y       z     vdW  Elec       q    Type
REMARK                         _______ _______ _______ _____ _____    ______ ____
ROOT
ATOM      1  O   LIG    1        0.859  -1.727   3.646  0.00  0.00    -0.580 OA
ATOM      2  C   LIG    1        0.179  -0.720   3.603  0.00  0.00    +0.710 C 
ATOM      3  N   LIG    1        0.056  -0.038   2.447  0.00  0.00    -0.740 N 
ATOM      4  H   LIG    1       -0.486   0.765   2.413  0.00  0.00    +0.400 HD
ATOM      5  N   LIG    1       -0.452  -0.285   4.712  0.00  0.00    -0.750 N 
ATOM      6  H   LIG    1       -0.994   0.518   4.678  0.00  0.00    +0.400 HD
ENDROOT
BRANCH   3   7
ATOM      7  C   LIG    1        0.742  -0.511   1.242  0.00  0.00    +0.270 C 
ATOM      8  C   LIG    1        2.178   0.019   1.231  0.00  0.00    +0.030 C 
ATOM      9  C   LIG    1        2.157   1.548   1.239  0.00  0.00    +0.010 C 
ATOM     10  C   LIG    1        1.417   2.055  -0.000  0.00  0.00    +0.020 C 
ATOM     11  C   LIG    1       -0.019   1.526   0.010  0.00  0.00    +0.030 C 
ATOM     12  C   LIG    1        0.002  -0.004   0.002  0.00  0.00    -0.010 C 
BRANCH  12  13
ATOM     13  C   LIG    1       -1.433  -0.534   0.013  0.00  0.00    +0.460 C 
ATOM     14  F   LIG    1       -2.088  -0.083   1.164  0.00  0.00    -0.180 F 
ATOM     15  F   LIG    1       -1.414  -1.933   0.005  0.00  0.00    -0.180 F 
ATOM     16  F   LIG    1       -2.110  -0.070  -1.121  0.00  0.00    -0.180 F 
ENDBRANCH  12  13
ENDBRANCH   3   7
BRANCH   5  17
ATOM     17  C   LIG    1       -0.318  -1.026   5.969  0.00  0.00    +0.280 C 
BRANCH  17  18
ATOM     18  C   LIG    1       -1.127  -0.326   7.062  0.00  0.00    +0.020 C 
BRANCH  18  19
ATOM     19  C   LIG    1       -0.987  -1.099   8.375  0.00  0.00    +0.280 C 
BRANCH  19  20
ATOM     20  N   LIG    1       -1.762  -0.429   9.422  0.00  0.00    -0.730 N 
ATOM     21  H   LIG    1       -2.257   0.380   9.216  0.00  0.00    +0.400 HD
ATOM     22  C   LIG    1       -1.787  -0.935  10.671  0.00  0.00    +0.560 C 
ATOM     23  O   LIG    1       -1.167  -1.949  10.928  0.00  0.00    -0.520 OA
BRANCH  22  24
ATOM     24  C   LIG    1       -2.568  -0.259  11.726  0.00  0.00    -0.180 A 
ATOM     25  C   LIG    1       -3.277   0.908  11.435  0.00  0.00    +0.070 A 
ATOM     26  C   LIG    1       -4.009   1.531  12.424  0.00  0.00    +0.000 A 
ATOM     27  C   LIG    1       -4.034   1.010  13.706  0.00  0.00    +0.080 A 
ATOM     28  C   LIG    1       -3.331  -0.142  14.005  0.00  0.00    -0.020 A 
ATOM     29  C   LIG    1       -2.597  -0.782  13.023  0.00  0.00    +0.160 A 
ATOM     30  F   LIG    1       -1.910  -1.908  13.315  0.00  0.00    -0.110 F 
ENDBRANCH  22  24
ENDBRANCH  19  20
ENDBRANCH  18  19
ENDBRANCH  17  18
ENDBRANCH   5  17
TORSDOF 7
