REMARK  Name = ZINCpe000000YyYT.0
REMARK                            x       y       z     vdW  Elec       q    Type
REMARK                         _______ _______ _______ _____ _____    ______ ____
ROOT
ATOM      1  C   LIG    1        1.155   6.855  -3.061  0.00  0.00    +0.080 C 
ATOM      2  N   LIG    1        0.807   5.640  -2.769  0.00  0.00    -0.200 NA
ATOM      3  N   LIG    1       -0.409   5.369  -2.135  0.00  0.00    -0.450 N 
ATOM      4  C   LIG    1       -1.407   6.275  -2.157  0.00  0.00    +0.500 C 
ATOM      5  C   LIG    1       -1.203   7.595  -2.856  0.00  0.00    +0.090 C 
ATOM      6  O   LIG    1       -2.463   6.030  -1.614  0.00  0.00    -0.510 OA
ATOM      7  C   LIG    1        0.261   8.018  -2.723  0.00  0.00    +0.100 C 
ENDROOT
BRANCH   1  13
ATOM      8  C   LIG    1        5.868   6.517  -1.544  0.00  0.00    -0.010 C 
ATOM      9  C   LIG    1        5.795   7.501  -2.714  0.00  0.00    +0.050 C 
ATOM     10  C   LIG    1        4.880   6.929  -3.801  0.00  0.00    +0.290 C 
ATOM     11  N   LIG    1        3.578   6.608  -3.202  0.00  0.00    -0.590 N 
ATOM     12  C   LIG    1        3.541   5.746  -2.012  0.00  0.00    +0.290 C 
ATOM     13  C   LIG    1        2.439   7.099  -3.730  0.00  0.00    +0.590 C 
ATOM     14  O   LIG    1        2.475   7.744  -4.761  0.00  0.00    -0.510 OA
ATOM     15  C   LIG    1        4.471   6.327  -0.948  0.00  0.00    +0.030 C 
BRANCH   8  19
ATOM     16  N   LIG    1        7.013   6.359   0.642  0.00  0.00    -0.860 N 
ATOM     17  H   LIG    1        7.610   6.710   1.323  0.00  0.00    +0.400 HD
ATOM     18  H   LIG    1        6.575   5.505   0.775  0.00  0.00    +0.400 HD
ATOM     19  C   LIG    1        6.794   7.061  -0.487  0.00  0.00    +0.520 C 
ATOM     20  O   LIG    1        7.342   8.130  -0.653  0.00  0.00    -0.540 OA
ENDBRANCH   8  19
ENDBRANCH   1  13
BRANCH   3  21
ATOM     21  C   LIG    1       -0.602   4.091  -1.446  0.00  0.00    +0.390 C 
BRANCH  21  22
ATOM     22  C   LIG    1       -1.168   3.081  -2.410  0.00  0.00    -0.120 A 
ATOM     23  C   LIG    1       -0.318   2.286  -3.157  0.00  0.00    +0.030 A 
ATOM     24  C   LIG    1       -0.837   1.359  -4.041  0.00  0.00    -0.010 A 
ATOM     25  C   LIG    1       -2.206   1.226  -4.179  0.00  0.00    +0.010 A 
ATOM     26  C   LIG    1       -3.056   2.025  -3.437  0.00  0.00    -0.010 A 
ATOM     27  C   LIG    1       -2.537   2.949  -2.549  0.00  0.00    +0.030 A 
ENDBRANCH  21  22
ENDBRANCH   3  21
TORSDOF 4
