REMARK  Name = ZINCrH000004jMIW.0
REMARK                            x       y       z     vdW  Elec       q    Type
REMARK                         _______ _______ _______ _____ _____    ______ ____
ROOT
ATOM      1  C   LIG    1        0.481  -2.467  -0.017  0.00  0.00    -0.160 A 
ATOM      2  C   LIG    1       -0.816  -2.150  -0.003  0.00  0.00    +0.010 A 
ATOM      3  C   LIG    1       -1.088  -0.797   0.008  0.00  0.00    +0.030 A 
ATOM      4  C   LIG    1        0.002  -0.004   0.002  0.00  0.00    -0.170 A 
ATOM      5  S   LIG    1        1.452  -1.000  -0.025  0.00  0.00    +0.160 S 
ENDROOT
BRANCH   4   6
ATOM      6  C   LIG    1       -0.018   1.474   0.010  0.00  0.00    +0.020 A 
ATOM      7  C   LIG    1       -1.234   2.159   0.020  0.00  0.00    +0.030 A 
ATOM      8  C   LIG    1       -1.246   3.538   0.034  0.00  0.00    +0.080 A 
ATOM      9  C   LIG    1       -0.056   4.243   0.026  0.00  0.00    -0.190 A 
ATOM     10  C   LIG    1        1.154   3.571   0.010  0.00  0.00    +0.080 A 
ATOM     11  C   LIG    1        1.179   2.191   0.003  0.00  0.00    +0.010 A 
BRANCH   9  12
ATOM     12  C   LIG    1       -0.076   5.750   0.035  0.00  0.00    +0.510 C 
ATOM     13  F   LIG    1        1.066   6.228   0.687  0.00  0.00    -0.180 F 
ATOM     14  F   LIG    1       -1.218   6.197   0.709  0.00  0.00    -0.180 F 
ATOM     15  F   LIG    1       -0.095   6.224  -1.281  0.00  0.00    -0.180 F 
ENDBRANCH   9  12
ENDBRANCH   4   6
BRANCH   1  16
ATOM     16  C   LIG    1        1.031  -3.870  -0.030  0.00  0.00    +0.270 C 
BRANCH  16  18
ATOM     17  C   LIG    1       -0.105  -4.446  -2.089  0.00  0.00    +0.210 C 
ATOM     18  N   LIG    1        1.196  -4.318  -1.420  0.00  0.00    -0.520 NA
BRANCH  18  19
ATOM     19  C   LIG    1        1.946  -5.580  -1.480  0.00  0.00    +0.220 C 
BRANCH  19  20
ATOM     20  C   LIG    1        2.308  -5.881  -2.912  0.00  0.00    +0.520 C 
ATOM     21  N   LIG    1        3.002  -6.997  -3.211  0.00  0.00    -0.620 N 
ATOM     22  C   LIG    1        3.424  -7.932  -2.157  0.00  0.00    +0.240 C 
ATOM     23  C   LIG    1        2.993  -9.348  -2.572  0.00  0.00    +0.220 C 
ATOM     24  O   LIG    1        3.477  -9.618  -3.890  0.00  0.00    -0.380 OA
ATOM     25  C   LIG    1        2.943  -8.755  -4.897  0.00  0.00    +0.220 C 
ATOM     26  C   LIG    1        3.367  -7.312  -4.602  0.00  0.00    +0.260 C 
ATOM     27  O   LIG    1        1.974  -5.119  -3.795  0.00  0.00    -0.510 OA
ENDBRANCH  19  20
ENDBRANCH  18  19
ENDBRANCH  16  18
ENDBRANCH   1  16
TORSDOF 6
