REMARK  Name = ZINCpk00000Ke21M.0
REMARK                            x       y       z     vdW  Elec       q    Type
REMARK                         _______ _______ _______ _____ _____    ______ ____
ROOT
ATOM      1  C   LIG    1       -0.027  -1.558  -0.573  0.00  0.00    +0.120 C 
ATOM      2  C   LIG    1        1.511  -1.465  -0.397  0.00  0.00    +0.050 C 
ATOM      3  C   LIG    1        2.014  -2.273  -1.622  0.00  0.00    +0.190 C 
ATOM      4  N   LIG    1        1.045  -3.380  -1.770  0.00  0.00    -0.500 NA
ATOM      5  C   LIG    1       -0.230  -2.974  -1.151  0.00  0.00    +0.200 C 
ENDROOT
BRANCH   1   6
ATOM      6  N   LIG    1       -0.707  -1.423   0.722  0.00  0.00    -0.530 NA
ATOM      7  C   LIG    1       -0.462  -0.099   1.310  0.00  0.00    +0.190 C 
BRANCH   6   8
ATOM      8  C   LIG    1       -2.147  -1.682   0.590  0.00  0.00    +0.330 C 
BRANCH   8  13
ATOM      9  C   LIG    1       -3.848  -3.517   4.965  0.00  0.00    +0.190 C 
ATOM     10  C   LIG    1       -3.499  -2.574   3.843  0.00  0.00    -0.040 A 
ATOM     11  C   LIG    1       -3.728  -1.250   3.812  0.00  0.00    +0.130 A 
ATOM     12  N   LIG    1       -3.262  -0.783   2.640  0.00  0.00    -0.480 NA
ATOM     13  C   LIG    1       -2.768  -1.778   1.960  0.00  0.00    +0.200 A 
ATOM     14  O   LIG    1       -2.898  -2.899   2.682  0.00  0.00    -0.190 OA
ENDBRANCH   8  13
ENDBRANCH   6   8
ENDBRANCH   1   6
BRANCH   4  15
ATOM     15  C   LIG    1        0.856  -3.729  -3.184  0.00  0.00    +0.210 C 
BRANCH  15  16
ATOM     16  C   LIG    1        2.113  -4.367  -3.716  0.00  0.00    +0.510 C 
ATOM     17  N   LIG    1        2.172  -4.772  -5.001  0.00  0.00    -0.650 N 
ATOM     18  H   LIG    1        1.438  -4.579  -5.604  0.00  0.00    +0.400 HD
ATOM     19  O   LIG    1        3.072  -4.518  -2.989  0.00  0.00    -0.500 OA
BRANCH  17  20
ATOM     20  C   LIG    1        3.299  -5.475  -5.466  0.00  0.00    -0.010 A 
ATOM     21  C   LIG    1        3.282  -6.602  -6.223  0.00  0.00    +0.070 A 
ATOM     22  N   LIG    1        4.572  -6.959  -6.455  0.00  0.00    -0.470 N 
ATOM     23  H   LIG    1        4.868  -7.726  -6.969  0.00  0.00    +0.440 HD
ATOM     24  N   LIG    1        5.399  -6.022  -5.823  0.00  0.00    -0.290 NA
ATOM     25  C   LIG    1        2.055  -7.326  -6.714  0.00  0.00    +0.150 C 
ATOM     26  C   LIG    1        4.640  -5.131  -5.237  0.00  0.00    +0.100 A 
ATOM     27  C   LIG    1        5.123  -3.943  -4.446  0.00  0.00    +0.160 C 
ENDBRANCH  17  20
ENDBRANCH  15  16
ENDBRANCH   4  15
TORSDOF 6
