REMARK  Name = ZINCrg000000tcZC.0
REMARK                            x       y       z     vdW  Elec       q    Type
REMARK                         _______ _______ _______ _____ _____    ______ ____
ROOT
ATOM      1  O   LIG    1        0.433   0.191  -2.595  0.00  0.00    -0.510 OA
ATOM      2  C   LIG    1       -0.429   1.030  -2.439  0.00  0.00    +0.510 C 
ATOM      3  N   LIG    1       -0.879   1.310  -1.200  0.00  0.00    -0.730 N 
ATOM      4  H   LIG    1       -1.569   1.981  -1.075  0.00  0.00    +0.400 HD
ENDROOT
BRANCH   3   5
ATOM      5  C   LIG    1       -0.327   0.603  -0.042  0.00  0.00    +0.330 C 
BRANCH   5   6
ATOM      6  C   LIG    1       -0.995   1.098   1.215  0.00  0.00    -0.070 A 
ATOM      7  C   LIG    1       -0.355   2.021   2.020  0.00  0.00    +0.030 A 
ATOM      8  C   LIG    1       -0.969   2.478   3.171  0.00  0.00    +0.020 A 
ATOM      9  C   LIG    1       -2.220   2.006   3.521  0.00  0.00    +0.020 A 
ATOM     10  C   LIG    1       -2.858   1.079   2.718  0.00  0.00    +0.020 A 
ATOM     11  C   LIG    1       -2.246   0.625   1.565  0.00  0.00    -0.100 A 
BRANCH  11  12
ATOM     12  C   LIG    1       -2.942  -0.386   0.691  0.00  0.00    +0.360 C 
BRANCH  12  13
ATOM     13  N   LIG    1       -2.488  -1.733   1.044  0.00  0.00    -0.370 N 
ATOM     14  C   LIG    1       -3.276  -2.768   1.402  0.00  0.00    +0.220 A 
ATOM     15  C   LIG    1       -2.475  -3.832   1.645  0.00  0.00    -0.120 A 
ATOM     16  C   LIG    1       -1.152  -3.430   1.437  0.00  0.00    +0.230 A 
ATOM     17  N   LIG    1       -1.158  -2.172   1.077  0.00  0.00    -0.290 NA
ENDBRANCH  12  13
ENDBRANCH  11  12
ENDBRANCH   5   6
ENDBRANCH   3   5
BRANCH   2  18
ATOM     18  C   LIG    1       -0.997   1.758  -3.630  0.00  0.00    +0.220 C 
BRANCH  18  19
ATOM     19  N   LIG    1       -0.245   1.386  -4.836  0.00  0.00    -0.510 NA
ATOM     20  C   LIG    1        1.141   1.874  -4.764  0.00  0.00    +0.150 C 
ATOM     21  C   LIG    1        1.910   1.405  -6.001  0.00  0.00    +0.230 C 
ATOM     22  O   LIG    1        1.243   1.877  -7.177  0.00  0.00    -0.370 OA
ATOM     23  C   LIG    1       -0.112   1.463  -7.274  0.00  0.00    +0.090 C 
ATOM     24  C   LIG    1       -0.195  -0.070  -7.457  0.00  0.00    +0.010 C 
ATOM     25  C   LIG    1       -0.025  -0.190  -8.994  0.00  0.00    +0.200 C 
ATOM     26  O   LIG    1       -0.704   0.954  -9.538  0.00  0.00    -0.380 OA
ATOM     27  C   LIG    1       -0.760   2.001  -8.559  0.00  0.00    +0.240 C 
ATOM     28  C   LIG    1       -0.909   1.889  -6.048  0.00  0.00    +0.180 C 
ENDBRANCH  18  19
ENDBRANCH   2  18
TORSDOF 6
