REMARK  Name = ZINCrg00000fSFGT.0
REMARK                            x       y       z     vdW  Elec       q    Type
REMARK                         _______ _______ _______ _____ _____    ______ ____
ROOT
ATOM      1  O   LIG    1        7.192   5.710   2.503  0.00  0.00    -0.510 OA
ATOM      2  C   LIG    1        6.317   6.032   3.283  0.00  0.00    +0.550 C 
ATOM      3  N   LIG    1        5.023   5.818   2.970  0.00  0.00    -0.720 N 
ATOM      4  H   LIG    1        4.325   6.075   3.592  0.00  0.00    +0.400 HD
ENDROOT
BRANCH   2   5
ATOM      5  C   LIG    1        6.671   6.656   4.575  0.00  0.00    -0.120 A 
ATOM      6  C   LIG    1        5.668   7.032   5.470  0.00  0.00    +0.040 A 
ATOM      7  C   LIG    1        6.006   7.610   6.677  0.00  0.00    +0.030 A 
ATOM      8  C   LIG    1        7.335   7.827   6.995  0.00  0.00    -0.100 A 
ATOM      9  C   LIG    1        8.334   7.462   6.109  0.00  0.00    +0.050 A 
ATOM     10  C   LIG    1        8.010   6.878   4.902  0.00  0.00    +0.080 A 
BRANCH   8  11
ATOM     11  C   LIG    1        7.697   8.464   8.312  0.00  0.00    +0.390 C 
BRANCH  11  12
ATOM     12  N   LIG    1        7.749   9.920   8.152  0.00  0.00    -0.290 N 
ATOM     13  C   LIG    1        7.055  10.823   8.881  0.00  0.00    +0.140 A 
ATOM     14  C   LIG    1        7.403  12.041   8.404  0.00  0.00    +0.140 A 
ATOM     15  N   LIG    1        8.276  11.825   7.414  0.00  0.00    -0.270 NA
ATOM     16  N   LIG    1        8.460  10.558   7.290  0.00  0.00    -0.080 NA
ENDBRANCH  11  12
ENDBRANCH   8  11
ENDBRANCH   2   5
BRANCH   3  17
ATOM     17  C   LIG    1        4.672   5.199   1.689  0.00  0.00    +0.260 C 
ATOM     18  C   LIG    1        3.247   5.609   1.279  0.00  0.00    +0.050 C 
ATOM     19  C   LIG    1        2.424   4.308   1.184  0.00  0.00    -0.020 C 
ATOM     20  C   LIG    1        3.484   3.205   0.938  0.00  0.00    +0.020 C 
ATOM     21  C   LIG    1        4.665   3.663   1.829  0.00  0.00    +0.150 C 
BRANCH  21  22
ATOM     22  O   LIG    1        5.894   3.112   1.352  0.00  0.00    -0.550 OA
ATOM     23  H   LIG    1        5.944   2.148   1.416  0.00  0.00    +0.380 HD
ENDBRANCH  21  22
BRANCH  19  24
ATOM     24  C   LIG    1        1.444   4.379   0.011  0.00  0.00    +0.330 C 
BRANCH  24  25
ATOM     25  N   LIG    1        0.593   3.186   0.013  0.00  0.00    -0.370 N 
ATOM     26  C   LIG    1       -0.756   3.173   0.025  0.00  0.00    +0.220 A 
ATOM     27  C   LIG    1       -1.157   1.881   0.017  0.00  0.00    -0.120 A 
ATOM     28  C   LIG    1       -0.013   1.076   0.008  0.00  0.00    +0.220 A 
ATOM     29  N   LIG    1        1.037   1.857   0.002  0.00  0.00    -0.290 NA
ENDBRANCH  24  25
ENDBRANCH  19  24
ENDBRANCH   3  17
TORSDOF 7
