REMARK  Name = ZINCpk00000j8hzN.0
REMARK                            x       y       z     vdW  Elec       q    Type
REMARK                         _______ _______ _______ _____ _____    ______ ____
ROOT
ATOM      1  C   LIG    1       -1.185   6.672   3.209  0.00  0.00    +0.170 C 
ATOM      2  C   LIG    1       -2.562   6.077   3.512  0.00  0.00    +0.030 C 
ATOM      3  C   LIG    1       -3.124   6.716   4.783  0.00  0.00    +0.010 C 
ATOM      4  C   LIG    1       -3.255   8.227   4.580  0.00  0.00    +0.000 C 
ATOM      5  C   LIG    1       -1.878   8.822   4.277  0.00  0.00    +0.010 C 
ATOM      6  C   LIG    1       -1.315   8.183   3.006  0.00  0.00    +0.030 C 
ENDROOT
BRANCH   1   8
ATOM      7  C   LIG    1        0.982   6.878   4.304  0.00  0.00    +0.530 C 
ATOM      8  N   LIG    1       -0.281   6.407   4.330  0.00  0.00    -0.720 N 
ATOM      9  H   LIG    1       -0.590   5.892   5.092  0.00  0.00    +0.400 HD
ATOM     10  O   LIG    1        1.396   7.449   3.317  0.00  0.00    -0.520 OA
BRANCH   7  15
ATOM     11  C   LIG    1        3.516   8.595   9.009  0.00  0.00    +0.100 C 
ATOM     12  C   LIG    1        4.025   8.114   7.674  0.00  0.00    +0.530 C 
ATOM     13  N   LIG    1        3.153   7.782   6.701  0.00  0.00    -0.650 N 
ATOM     14  C   LIG    1        3.288   7.289   5.316  0.00  0.00    +0.320 C 
ATOM     15  C   LIG    1        1.879   6.697   5.502  0.00  0.00    -0.020 C 
ATOM     16  C   LIG    1        1.681   7.766   6.592  0.00  0.00    +0.300 C 
ATOM     17  O   LIG    1        5.218   8.026   7.476  0.00  0.00    -0.540 OA
ENDBRANCH   7  15
ENDBRANCH   1   8
BRANCH   1  18
ATOM     18  C   LIG    1       -0.622   6.033   1.938  0.00  0.00    +0.280 C 
BRANCH  18  19
ATOM     19  N   LIG    1       -0.458   4.593   2.147  0.00  0.00    -0.730 N 
ATOM     20  H   LIG    1       -0.627   4.207   3.021  0.00  0.00    +0.400 HD
ATOM     21  C   LIG    1       -0.071   3.803   1.125  0.00  0.00    +0.520 C 
ATOM     22  O   LIG    1        0.141   4.285   0.033  0.00  0.00    -0.530 OA
BRANCH  21  23
ATOM     23  C   LIG    1        0.098   2.321   1.340  0.00  0.00    +0.010 C 
ATOM     24  C   LIG    1       -1.233   1.716   1.791  0.00  0.00    +0.050 C 
BRANCH  23  25
ATOM     25  C   LIG    1        0.540   1.663   0.032  0.00  0.00    -0.020 C 
ATOM     26  C   LIG    1        1.962   1.102  -0.032  0.00  0.00    +0.010 C 
ATOM     27  C   LIG    1        0.766   0.150   0.043  0.00  0.00    +0.010 C 
ENDBRANCH  23  25
ENDBRANCH  21  23
ENDBRANCH  18  19
ENDBRANCH   1  18
TORSDOF 6
