REMARK  Name = ZINCvU0000000Eax.0
REMARK                            x       y       z     vdW  Elec       q    Type
REMARK                         _______ _______ _______ _____ _____    ______ ____
ROOT
ATOM      1  N   LIG    1        1.019   2.491  -0.234  0.00  0.00    -0.450 N 
ATOM      2  C   LIG    1       -0.121   1.801  -0.438  0.00  0.00    +0.460 A 
ATOM      3  N   LIG    1       -1.147   2.574  -0.027  0.00  0.00    -0.400 N 
ATOM      4  N   LIG    1       -0.605   3.775   0.452  0.00  0.00    -0.270 NA
ATOM      5  S   LIG    1       -0.244   0.229  -1.106  0.00  0.00    -0.530 S 
ATOM      6  C   LIG    1        0.690   3.714   0.320  0.00  0.00    +0.330 A 
ENDROOT
BRANCH   1  12
ATOM      7  C   LIG    1        4.869   2.405  -3.292  0.00  0.00    +0.100 C 
ATOM      8  C   LIG    1        4.203   1.988  -2.006  0.00  0.00    -0.070 A 
ATOM      9  C   LIG    1        4.870   1.165  -1.117  0.00  0.00    +0.040 A 
ATOM     10  C   LIG    1        4.262   0.780   0.064  0.00  0.00    +0.040 A 
ATOM     11  C   LIG    1        2.986   1.218   0.359  0.00  0.00    +0.040 A 
ATOM     12  C   LIG    1        2.313   2.045  -0.531  0.00  0.00    +0.120 A 
ATOM     13  C   LIG    1        2.924   2.425  -1.718  0.00  0.00    +0.040 A 
ENDBRANCH   1  12
BRANCH   6  14
ATOM     14  C   LIG    1        1.648   4.777   0.699  0.00  0.00    -0.050 A 
ATOM     15  C   LIG    1        3.021   4.536   0.641  0.00  0.00    +0.050 A 
ATOM     16  C   LIG    1        3.909   5.533   0.989  0.00  0.00    +0.010 A 
ATOM     17  C   LIG    1        3.440   6.765   1.408  0.00  0.00    +0.040 A 
ATOM     18  C   LIG    1        2.080   7.008   1.475  0.00  0.00    +0.020 A 
ATOM     19  C   LIG    1        1.182   6.022   1.123  0.00  0.00    +0.070 A 
ENDBRANCH   6  14
BRANCH   3  20
ATOM     20  C   LIG    1       -2.568   2.221  -0.070  0.00  0.00    +0.540 C 
BRANCH  20  21
ATOM     21  N   LIG    1       -3.033   1.894   1.284  0.00  0.00    -0.500 NA
ATOM     22  C   LIG    1       -3.420   3.116   2.022  0.00  0.00    +0.180 C 
ATOM     23  C   LIG    1       -3.056   2.886   3.500  0.00  0.00    +0.020 C 
ATOM     24  C   LIG    1       -2.414   1.481   3.544  0.00  0.00    +0.050 C 
ATOM     25  C   LIG    1       -1.948   1.267   2.082  0.00  0.00    +0.230 C 
BRANCH  25  26
ATOM     26  C   LIG    1       -1.839  -0.203   1.768  0.00  0.00    -0.030 A 
ATOM     27  C   LIG    1       -0.698  -0.921   1.634  0.00  0.00    -0.030 A 
ATOM     28  C   LIG    1       -1.150  -2.230   1.346  0.00  0.00    +0.020 A 
ATOM     29  N   LIG    1       -2.450  -2.175   1.335  0.00  0.00    -0.370 NA
ATOM     30  C   LIG    1       -0.295  -3.446   1.099  0.00  0.00    +0.160 C 
ATOM     31  O   LIG    1       -2.851  -1.060   1.573  0.00  0.00    +0.120 OA
ENDBRANCH  25  26
ENDBRANCH  20  21
ENDBRANCH   3  20
TORSDOF 5
