REMARK  Name = ZINCqH0000007k0m.0
REMARK                            x       y       z     vdW  Elec       q    Type
REMARK                         _______ _______ _______ _____ _____    ______ ____
ROOT
ATOM      1  N   LIG    1       -0.744   1.994  -0.861  0.00  0.00    -0.730 N 
ATOM      2  H   LIG    1       -0.352   2.743  -1.337  0.00  0.00    +0.410 HD
ENDROOT
BRANCH   1   6
ATOM      3  C   LIG    1       -4.353   0.352  -2.158  0.00  0.00    +0.060 A 
ATOM      4  C   LIG    1       -3.712  -0.171  -1.047  0.00  0.00    +0.010 A 
ATOM      5  C   LIG    1       -2.514   0.370  -0.620  0.00  0.00    -0.060 A 
ATOM      6  C   LIG    1       -1.955   1.445  -1.297  0.00  0.00    +0.220 A 
ATOM      7  C   LIG    1       -2.595   1.972  -2.412  0.00  0.00    -0.090 A 
ATOM      8  C   LIG    1       -3.792   1.427  -2.843  0.00  0.00    +0.130 A 
BRANCH   3  10
ATOM      9  C   LIG    1       -6.047  -1.285  -1.831  0.00  0.00    +0.230 C 
ATOM     10  O   LIG    1       -5.530  -0.184  -2.580  0.00  0.00    -0.310 OA
ENDBRANCH   3  10
BRANCH   8  11
ATOM     11  O   LIG    1       -4.421   1.941  -3.934  0.00  0.00    -0.310 OA
BRANCH  11  12
ATOM     12  C   LIG    1       -3.788   3.043  -4.587  0.00  0.00    +0.590 C 
ATOM     13  F   LIG    1       -2.520   2.657  -5.031  0.00  0.00    -0.200 F 
ATOM     14  F   LIG    1       -3.663   4.108  -3.688  0.00  0.00    -0.200 F 
ENDBRANCH  11  12
ENDBRANCH   8  11
ENDBRANCH   1   6
BRANCH   1  15
ATOM     15  C   LIG    1       -0.070   1.439   0.315  0.00  0.00    +0.240 C 
ATOM     16  C   LIG    1       -0.646   2.074   1.582  0.00  0.00    +0.060 C 
BRANCH  15  17
ATOM     17  C   LIG    1        1.406   1.732   0.233  0.00  0.00    +0.510 C 
ATOM     18  N   LIG    1        2.248   1.214   1.148  0.00  0.00    -0.610 N 
ATOM     19  C   LIG    1        1.746   0.283   2.162  0.00  0.00    +0.290 C 
ATOM     20  O   LIG    1        1.836   2.434  -0.658  0.00  0.00    -0.530 OA
BRANCH  18  21
ATOM     21  C   LIG    1        3.667   1.580   1.130  0.00  0.00    +0.340 C 
BRANCH  21  22
ATOM     22  C   LIG    1        3.882   2.798   1.991  0.00  0.00    -0.110 A 
ATOM     23  C   LIG    1        3.792   4.061   1.436  0.00  0.00    +0.030 A 
ATOM     24  C   LIG    1        3.984   5.179   2.227  0.00  0.00    +0.000 A 
ATOM     25  C   LIG    1        4.277   5.033   3.570  0.00  0.00    +0.010 A 
ATOM     26  C   LIG    1        4.373   3.769   4.123  0.00  0.00    +0.000 A 
ATOM     27  C   LIG    1        4.175   2.652   3.333  0.00  0.00    +0.010 A 
ENDBRANCH  21  22
ENDBRANCH  18  21
ENDBRANCH  15  17
ENDBRANCH   1  15
TORSDOF 8
