REMARK  Name = ZINCrH000004qFMf.0
REMARK                            x       y       z     vdW  Elec       q    Type
REMARK                         _______ _______ _______ _____ _____    ______ ____
ROOT
ATOM      1  C   LIG    1       -4.274   3.153   3.905  0.00  0.00    +0.520 C 
ATOM      2  N   LIG    1       -3.875   2.703   2.699  0.00  0.00    -0.620 N 
ATOM      3  H   LIG    1       -4.532   2.515   2.010  0.00  0.00    +0.430 HD
ATOM      4  O   LIG    1       -3.453   3.387   4.767  0.00  0.00    -0.480 OA
ENDROOT
BRANCH   2   5
ATOM      5  C   LIG    1       -2.523   2.507   2.442  0.00  0.00    +0.240 A 
ATOM      6  N   LIG    1       -2.034   2.084   1.319  0.00  0.00    -0.490 NA
ATOM      7  C   LIG    1       -0.723   1.951   1.250  0.00  0.00    +0.100 A 
ATOM      8  C   LIG    1       -0.072   2.286   2.365  0.00  0.00    -0.130 A 
ATOM      9  S   LIG    1       -1.262   2.795   3.561  0.00  0.00    +0.250 S 
BRANCH   7  10
ATOM     10  C   LIG    1       -0.018   1.465   0.010  0.00  0.00    +0.280 C 
BRANCH  10  11
ATOM     11  N   LIG    1        0.002  -0.004   0.002  0.00  0.00    -0.530 NA
ATOM     12  C   LIG    1        0.833  -0.526   1.097  0.00  0.00    +0.150 C 
ATOM     13  C   LIG    1        0.778  -2.056   1.087  0.00  0.00    +0.200 C 
ATOM     14  O   LIG    1        1.203  -2.535  -0.191  0.00  0.00    -0.380 OA
ATOM     15  C   LIG    1        0.415  -2.048  -1.280  0.00  0.00    +0.160 C 
ATOM     16  C   LIG    1        0.972  -2.590  -2.598  0.00  0.00    +0.050 C 
ATOM     17  C   LIG    1       -0.656  -2.517   1.356  0.00  0.00    +0.020 C 
ATOM     18  C   LIG    1        0.466  -0.517  -1.295  0.00  0.00    +0.160 C 
ENDBRANCH  10  11
ENDBRANCH   7  10
ENDBRANCH   2   5
BRANCH   1  19
ATOM     19  C   LIG    1       -5.740   3.365   4.184  0.00  0.00    +0.270 C 
BRANCH  19  20
ATOM     20  O   LIG    1       -5.906   3.842   5.521  0.00  0.00    -0.280 OA
BRANCH  20  28
ATOM     21  C   LIG    1       -6.258   4.786   8.160  0.00  0.00    +0.110 C 
ATOM     22  C   LIG    1       -7.413   4.551   7.221  0.00  0.00    -0.090 A 
ATOM     23  C   LIG    1       -8.705   4.798   7.639  0.00  0.00    +0.070 A 
ATOM     24  C   LIG    1       -9.766   4.583   6.777  0.00  0.00    -0.060 A 
ATOM     25  C   LIG    1       -9.534   4.119   5.494  0.00  0.00    +0.060 A 
ATOM     26  C   LIG    1       -8.242   3.876   5.070  0.00  0.00    -0.050 A 
ATOM     27 CL   LIG    1      -11.390   4.895   7.305  0.00  0.00    -0.070 Cl
ATOM     28  C   LIG    1       -7.178   4.086   5.934  0.00  0.00    +0.130 A 
ENDBRANCH  20  28
ENDBRANCH  19  20
ENDBRANCH   1  19
TORSDOF 6
