REMARK  Name = ZINCrD00000F5Ll3.0
REMARK                            x       y       z     vdW  Elec       q    Type
REMARK                         _______ _______ _______ _____ _____    ______ ____
ROOT
ATOM      1  C   LIG    1       -1.221   2.165   0.079  0.00  0.00    +0.590 C 
ATOM      2  N   LIG    1       -2.399   1.511   0.066  0.00  0.00    -0.550 N 
ATOM      3  C   LIG    1       -3.715   2.145   0.192  0.00  0.00    +0.280 C 
ATOM      4  C   LIG    1       -4.722   0.991   0.117  0.00  0.00    -0.020 C 
ATOM      5  C   LIG    1       -3.881  -0.251  -0.040  0.00  0.00    -0.120 A 
ATOM      6  C   LIG    1       -4.233  -1.581  -0.153  0.00  0.00    +0.060 A 
ATOM      7  C   LIG    1       -3.257  -2.550  -0.291  0.00  0.00    -0.010 A 
ATOM      8  C   LIG    1       -1.924  -2.185  -0.315  0.00  0.00    +0.040 A 
ATOM      9  C   LIG    1       -1.566  -0.858  -0.203  0.00  0.00    +0.010 A 
ATOM     10  C   LIG    1       -5.541   0.924   1.404  0.00  0.00    +0.020 C 
ATOM     11  C   LIG    1       -6.417   2.175   1.510  0.00  0.00    +0.210 C 
ATOM     12  O   LIG    1       -7.243   2.275   0.348  0.00  0.00    -0.380 OA
ATOM     13  C   LIG    1       -6.518   2.408  -0.876  0.00  0.00    +0.210 C 
ATOM     14  C   LIG    1       -5.646   1.166  -1.087  0.00  0.00    +0.020 C 
ATOM     15  C   LIG    1       -2.546   0.126  -0.062  0.00  0.00    +0.150 A 
ATOM     16  O   LIG    1       -0.177   1.540   0.065  0.00  0.00    -0.500 OA
ENDROOT
BRANCH   1  17
ATOM     17  C   LIG    1       -1.197   3.635   0.110  0.00  0.00    -0.140 C 
ATOM     18  C   LIG    1        0.001   4.307  -0.001  0.00  0.00    +0.260 C 
BRANCH  18  19
ATOM     19  C   LIG    1        0.014   5.767  -0.121  0.00  0.00    -0.120 A 
ATOM     20  C   LIG    1       -1.069   6.434  -0.713  0.00  0.00    +0.060 A 
ATOM     21  C   LIG    1       -1.053   7.795  -0.818  0.00  0.00    -0.010 A 
ATOM     22  C   LIG    1        0.038   8.520  -0.349  0.00  0.00    +0.140 A 
ATOM     23  C   LIG    1        1.117   7.864   0.234  0.00  0.00    -0.010 A 
ATOM     24  C   LIG    1        1.111   6.503   0.350  0.00  0.00    +0.080 A 
BRANCH  22  25
ATOM     25  O   LIG    1        0.049   9.872  -0.460  0.00  0.00    -0.500 OA
ATOM     26  H   LIG    1        0.439  10.195  -1.284  0.00  0.00    +0.400 HD
ENDBRANCH  22  25
ENDBRANCH  18  19
BRANCH  17  28
ATOM     27  N   LIG    1       -3.386   4.950   0.382  0.00  0.00    -0.400 NA
ATOM     28  C   LIG    1       -2.417   4.369   0.262  0.00  0.00    +0.250 C 
ENDBRANCH  17  28
ENDBRANCH   1  17
TORSDOF 4
