REMARK  Name = ZINCpk00000y2kEC.0
REMARK                            x       y       z     vdW  Elec       q    Type
REMARK                         _______ _______ _______ _____ _____    ______ ____
ROOT
ATOM      1  C   LIG    1       -2.629   1.774  -0.246  0.00  0.00    +0.520 C 
ATOM      2  N   LIG    1       -3.848   1.398  -0.682  0.00  0.00    -0.630 N 
ATOM      3  H   LIG    1       -4.416   0.850  -0.119  0.00  0.00    +0.410 HD
ATOM      4  O   LIG    1       -1.918   2.460  -0.949  0.00  0.00    -0.500 OA
ENDROOT
BRANCH   1  12
ATOM      5  C   LIG    1       -3.009   3.614   5.044  0.00  0.00    +0.200 C 
ATOM      6  C   LIG    1       -1.988   2.585   4.633  0.00  0.00    +0.190 A 
ATOM      7  N   LIG    1       -1.128   1.985   5.417  0.00  0.00    -0.290 NA
ATOM      8  N   LIG    1       -0.406   1.168   4.728  0.00  0.00    -0.280 NA
ATOM      9  C   LIG    1       -0.771   1.212   3.485  0.00  0.00    +0.170 A 
ATOM     10  C   LIG    1       -0.228   0.448   2.303  0.00  0.00    +0.340 C 
ATOM     11  N   LIG    1       -0.699   1.113   1.075  0.00  0.00    -0.520 NA
ATOM     12  C   LIG    1       -2.151   1.343   1.117  0.00  0.00    +0.140 C 
ATOM     13  C   LIG    1       -2.473   2.439   2.142  0.00  0.00    +0.340 C 
ATOM     14  C   LIG    1       -0.322   0.344  -0.118  0.00  0.00    +0.210 C 
ATOM     15  N   LIG    1       -1.786   2.111   3.391  0.00  0.00    -0.470 N 
ENDBRANCH   1  12
BRANCH   2  16
ATOM     16  C   LIG    1       -4.294   1.801  -1.953  0.00  0.00    -0.000 A 
ATOM     17  C   LIG    1       -3.608   2.568  -2.835  0.00  0.00    +0.270 A 
ATOM     18  N   LIG    1       -4.383   2.725  -3.940  0.00  0.00    -0.470 N 
ATOM     19  H   LIG    1       -4.146   3.227  -4.736  0.00  0.00    +0.450 HD
ATOM     20  N   LIG    1       -5.586   2.040  -3.728  0.00  0.00    -0.260 NA
ATOM     21  C   LIG    1       -5.540   1.483  -2.537  0.00  0.00    +0.110 A 
BRANCH  21  22
ATOM     22  C   LIG    1       -6.610   0.664  -1.915  0.00  0.00    -0.020 A 
ATOM     23  C   LIG    1       -6.279  -0.416  -1.100  0.00  0.00    +0.010 A 
ATOM     24  C   LIG    1       -7.279  -1.170  -0.519  0.00  0.00    +0.020 A 
ATOM     25  C   LIG    1       -8.607  -0.863  -0.755  0.00  0.00    +0.020 A 
ATOM     26  C   LIG    1       -8.941   0.205  -1.569  0.00  0.00    +0.020 A 
ATOM     27  C   LIG    1       -7.949   0.970  -2.150  0.00  0.00    +0.040 A 
ENDBRANCH  21  22
ENDBRANCH   2  16
TORSDOF 3
