REMARK  Name = ZINCpe000000ZtXb.0
REMARK                            x       y       z     vdW  Elec       q    Type
REMARK                         _______ _______ _______ _____ _____    ______ ____
ROOT
ATOM      1  O   LIG    1       -0.829  -0.447  -2.082  0.00  0.00    -0.520 OA
ATOM      2  C   LIG    1       -1.095   0.734  -2.164  0.00  0.00    +0.520 C 
ATOM      3  N   LIG    1       -0.732   1.577  -1.178  0.00  0.00    -0.610 N 
ATOM      4  C   LIG    1       -0.013   1.086   0.008  0.00  0.00    +0.300 C 
ATOM      5  C   LIG    1       -0.738   1.584   1.263  0.00  0.00    +0.190 C 
ATOM      6  N   LIG    1       -0.895   3.043   1.186  0.00  0.00    -0.520 NA
ATOM      7  C   LIG    1       -1.732   3.434   0.044  0.00  0.00    +0.170 C 
ATOM      8  C   LIG    1       -1.043   3.012  -1.258  0.00  0.00    +0.280 C 
ENDROOT
BRANCH   2   9
ATOM      9  C   LIG    1       -1.831   1.258  -3.371  0.00  0.00    +0.150 C 
ATOM     10  C   LIG    1       -0.923   2.221  -4.160  0.00  0.00    +0.020 C 
ATOM     11  C   LIG    1       -0.835   1.589  -5.571  0.00  0.00    +0.020 C 
ATOM     12  C   LIG    1       -2.090   0.680  -5.598  0.00  0.00    +0.210 C 
ATOM     13  O   LIG    1       -2.167   0.171  -4.249  0.00  0.00    -0.350 OA
ENDBRANCH   2   9
BRANCH   6  14
ATOM     14  C   LIG    1       -1.434   3.580   2.443  0.00  0.00    +0.210 C 
BRANCH  14  15
ATOM     15  C   LIG    1       -0.432   3.373   3.549  0.00  0.00    +0.530 C 
ATOM     16  N   LIG    1       -0.713   3.789   4.800  0.00  0.00    -0.550 N 
ATOM     17  C   LIG    1        0.178   3.644   5.954  0.00  0.00    +0.280 C 
ATOM     18  C   LIG    1       -0.585   4.268   7.134  0.00  0.00    +0.090 C 
ATOM     19  C   LIG    1       -1.893   4.734   6.537  0.00  0.00    -0.130 A 
ATOM     20  C   LIG    1       -2.977   5.368   7.113  0.00  0.00    +0.060 A 
ATOM     21  C   LIG    1       -4.078   5.699   6.345  0.00  0.00    -0.010 A 
ATOM     22  C   LIG    1       -4.091   5.395   4.996  0.00  0.00    +0.050 A 
ATOM     23  C   LIG    1       -3.012   4.763   4.416  0.00  0.00    -0.030 A 
ATOM     24  C   LIG    1       -1.895   4.429   5.185  0.00  0.00    +0.140 A 
ATOM     25  O   LIG    1        0.627   2.831   3.314  0.00  0.00    -0.500 OA
ENDBRANCH  14  15
ENDBRANCH   6  14
TORSDOF 3
