REMARK  Name = ZINCvU00000009Zm.0
REMARK                            x       y       z     vdW  Elec       q    Type
REMARK                         _______ _______ _______ _____ _____    ______ ____
ROOT
ATOM      1  N   LIG    1        4.392   5.517  -0.671  0.00  0.00    -0.510 N 
ATOM      2  C   LIG    1        4.794   4.240  -0.507  0.00  0.00    +0.570 C 
ATOM      3  C   LIG    1        3.635   3.375  -0.233  0.00  0.00    +0.100 A 
ATOM      4  C   LIG    1        2.510   4.150  -0.239  0.00  0.00    -0.240 A 
ATOM      5  C   LIG    1        1.186   3.564  -0.003  0.00  0.00    +0.460 A 
ATOM      6  C   LIG    1        1.186   2.079   0.002  0.00  0.00    -0.210 A 
ATOM      7  C   LIG    1       -0.017   1.374   0.010  0.00  0.00    +0.160 A 
ATOM      8  C   LIG    1        0.002  -0.004   0.002  0.00  0.00    -0.120 A 
ATOM      9  C   LIG    1        1.213  -0.683  -0.013  0.00  0.00    +0.130 A 
ATOM     10  C   LIG    1        2.406   0.003  -0.017  0.00  0.00    +0.030 A 
ATOM     11 BR   LIG    1       -1.623  -0.971   0.012  0.00  0.00    -0.020 Br
ATOM     12  C   LIG    1        2.414   1.397  -0.008  0.00  0.00    +0.160 A 
ATOM     13  O   LIG    1        0.183   4.232   0.172  0.00  0.00    -0.420 OA
ATOM     14  O   LIG    1        3.601   2.047  -0.006  0.00  0.00    -0.180 OA
ATOM     15  O   LIG    1        5.946   3.860  -0.575  0.00  0.00    -0.440 OA
ATOM     16  C   LIG    1        2.929   5.557  -0.514  0.00  0.00    +0.370 C 
ENDROOT
BRANCH   1  20
ATOM     17  C   LIG    1        6.149  10.107  -1.503  0.00  0.00    +0.190 C 
ATOM     18  C   LIG    1        5.979   8.622  -1.306  0.00  0.00    -0.010 A 
ATOM     19  C   LIG    1        4.827   7.971  -1.028  0.00  0.00    -0.060 A 
ATOM     20  C   LIG    1        5.216   6.607  -0.943  0.00  0.00    +0.270 A 
ATOM     21  N   LIG    1        6.503   6.580  -1.175  0.00  0.00    -0.360 NA
ATOM     22  O   LIG    1        6.939   7.689  -1.379  0.00  0.00    +0.110 OA
ENDBRANCH   1  20
BRANCH  16  23
ATOM     23  C   LIG    1        2.281   6.054  -1.781  0.00  0.00    -0.110 A 
ATOM     24  C   LIG    1        2.812   5.708  -3.010  0.00  0.00    +0.020 A 
ATOM     25  C   LIG    1        2.215   6.160  -4.172  0.00  0.00    +0.010 A 
ATOM     26  C   LIG    1        1.095   6.967  -4.105  0.00  0.00    -0.060 A 
ATOM     27  C   LIG    1        0.567   7.317  -2.876  0.00  0.00    +0.020 A 
ATOM     28  C   LIG    1        1.161   6.861  -1.714  0.00  0.00    +0.050 A 
BRANCH  26  29
ATOM     29  C   LIG    1        0.447   7.464  -5.372  0.00  0.00    +0.020 C 
ATOM     30  C   LIG    1       -0.005   6.270  -6.216  0.00  0.00    +0.030 C 
ATOM     31  C   LIG    1        1.455   8.297  -6.166  0.00  0.00    +0.040 C 
ENDBRANCH  26  29
ENDBRANCH  16  23
TORSDOF 3
