REMARK  Name = ZINCrg00000fRgpw.0
REMARK                            x       y       z     vdW  Elec       q    Type
REMARK                         _______ _______ _______ _____ _____    ______ ____
ROOT
ATOM      1  C   LIG    1        2.452   5.401   2.943  0.00  0.00    +0.420 C 
ENDROOT
BRANCH   1   2
ATOM      2  N   LIG    1        2.900   6.793   2.869  0.00  0.00    -0.570 N 
ATOM      3  C   LIG    1        4.185   7.169   2.825  0.00  0.00    +0.710 C 
ATOM      4  N   LIG    1        4.327   8.506   2.756  0.00  0.00    -0.710 N 
ATOM      5  H   LIG    1        5.160   9.000   2.713  0.00  0.00    +0.440 HD
ATOM      6  C   LIG    1        2.971   9.069   2.765  0.00  0.00    +0.130 C 
ATOM      7  C   LIG    1        2.705   9.847   1.481  0.00  0.00    +0.060 C 
ATOM      8  C   LIG    1        1.273  10.388   1.498  0.00  0.00    +0.020 C 
ATOM      9  C   LIG    1        1.088  11.299   2.714  0.00  0.00    +0.010 C 
ATOM     10  C   LIG    1        1.337  10.500   3.995  0.00  0.00    +0.030 C 
ATOM     11  C   LIG    1        2.769   9.959   3.987  0.00  0.00    +0.010 C 
ATOM     12  C   LIG    1        3.013   9.143   5.258  0.00  0.00    +0.020 C 
ATOM     13  O   LIG    1        5.117   6.390   2.841  0.00  0.00    -0.540 OA
ATOM     14  C   LIG    1        2.071   7.857   2.843  0.00  0.00    +0.540 C 
ATOM     15  O   LIG    1        0.859   7.843   2.875  0.00  0.00    -0.450 OA
ENDBRANCH   1   2
BRANCH   1  16
ATOM     16  C   LIG    1        2.261   4.859   1.550  0.00  0.00    +0.460 C 
ATOM     17  O   LIG    1        2.478   5.565   0.593  0.00  0.00    -0.490 OA
BRANCH  16  18
ATOM     18  O   LIG    1        1.851   3.594   1.372  0.00  0.00    -0.350 OA
BRANCH  18  19
ATOM     19  C   LIG    1        1.688   3.140   0.002  0.00  0.00    +0.380 C 
BRANCH  19  24
ATOM     20  N   LIG    1        2.006   0.610  -0.014  0.00  0.00    -0.290 N 
ATOM     21  N   LIG    1        1.222  -0.415  -0.012  0.00  0.00    -0.080 NA
ATOM     22  N   LIG    1        0.002  -0.004   0.002  0.00  0.00    -0.070 NA
ATOM     23  N   LIG    1       -0.015   1.284   0.009  0.00  0.00    -0.270 NA
ATOM     24  C   LIG    1        1.226   1.706  -0.001  0.00  0.00    +0.170 A 
BRANCH  20  25
ATOM     25  C   LIG    1        3.471   0.584  -0.027  0.00  0.00    +0.340 C 
BRANCH  25  26
ATOM     26  C   LIG    1        3.968   0.583  -1.474  0.00  0.00    +0.010 C 
BRANCH  26  28
ATOM     27  C   LIG    1        5.994   0.556  -2.935  0.00  0.00    +0.030 C 
ATOM     28  C   LIG    1        5.497   0.557  -1.488  0.00  0.00    +0.020 C 
ENDBRANCH  26  28
ENDBRANCH  25  26
ENDBRANCH  20  25
ENDBRANCH  19  24
ENDBRANCH  18  19
ENDBRANCH  16  18
ENDBRANCH   1  16
TORSDOF 8
