REMARK  Name = ZINCvU0000000FEy.0
REMARK                            x       y       z     vdW  Elec       q    Type
REMARK                         _______ _______ _______ _____ _____    ______ ____
ROOT
ATOM      1  N   LIG    1        3.442   1.728   0.878  0.00  0.00    -0.660 NA
ATOM      2  H   LIG    1        2.966   2.172   1.649  0.00  0.00    +0.360 HD
ENDROOT
BRANCH   1   4
ATOM      3  C   LIG    1        3.954   0.061   2.597  0.00  0.00    +0.020 C 
ATOM      4  C   LIG    1        4.471   0.798   1.360  0.00  0.00    +0.250 C 
BRANCH   4   5
ATOM      5  C   LIG    1        5.716   1.568   1.717  0.00  0.00    +0.060 A 
ATOM      6  C   LIG    1        6.946   0.937   1.700  0.00  0.00    +0.260 A 
ATOM      7  N   LIG    1        8.041   1.610   2.008  0.00  0.00    -0.430 NA
ATOM      8  C   LIG    1        7.958   2.890   2.345  0.00  0.00    +0.310 A 
ATOM      9  C   LIG    1        6.717   3.521   2.367  0.00  0.00    +0.190 A 
ATOM     10  N   LIG    1        5.629   2.844   2.053  0.00  0.00    -0.390 NA
BRANCH   8  11
ATOM     11  N   LIG    1        9.110   3.602   2.676  0.00  0.00    -0.660 N 
ATOM     12  H   LIG    1        9.058   4.555   2.850  0.00  0.00    +0.420 HD
ATOM     13  C   LIG    1       10.296   2.966   2.754  0.00  0.00    +0.510 C 
ATOM     14  O   LIG    1       10.378   1.796   2.447  0.00  0.00    -0.470 OA
BRANCH  13  15
ATOM     15  C   LIG    1       11.520   3.710   3.222  0.00  0.00    -0.080 C 
ATOM     16  C   LIG    1       11.287   4.233   4.641  0.00  0.00    +0.050 C 
ATOM     17  C   LIG    1       11.792   4.887   2.283  0.00  0.00    +0.050 C 
ATOM     18  C   LIG    1       12.723   2.765   3.218  0.00  0.00    +0.060 C 
ENDBRANCH  13  15
ENDBRANCH   8  11
ENDBRANCH   4   5
ENDBRANCH   1   4
BRANCH   1  19
ATOM     19  C   LIG    1        2.487   1.045  -0.005  0.00  0.00    +0.240 C 
BRANCH  19  20
ATOM     20  C   LIG    1        1.172   1.781   0.012  0.00  0.00    -0.050 A 
ATOM     21  C   LIG    1        1.154   3.163   0.019  0.00  0.00    +0.060 A 
ATOM     22  C   LIG    1       -0.052   3.840   0.035  0.00  0.00    +0.070 A 
ATOM     23  C   LIG    1       -1.241   3.134   0.044  0.00  0.00    -0.070 A 
ATOM     24  C   LIG    1       -1.224   1.749   0.032  0.00  0.00    +0.110 A 
ATOM     25  F   LIG    1       -2.385   1.058   0.036  0.00  0.00    -0.130 F 
ATOM     26 CL   LIG    1       -2.755   3.984   0.063  0.00  0.00    -0.050 Cl
ATOM     27  C   LIG    1       -0.016   1.073   0.021  0.00  0.00    +0.010 A 
ENDBRANCH  19  20
BRANCH  19  28
ATOM     28  C   LIG    1        3.031   1.022  -1.411  0.00  0.00    -0.080 A 
ATOM     29  C   LIG    1        3.679   2.132  -1.920  0.00  0.00    +0.050 A 
ATOM     30  C   LIG    1        4.181   2.109  -3.207  0.00  0.00    -0.010 A 
ATOM     31  C   LIG    1        4.028   0.979  -3.989  0.00  0.00    +0.000 A 
ATOM     32  C   LIG    1        3.376  -0.129  -3.481  0.00  0.00    +0.000 A 
ATOM     33  C   LIG    1        2.877  -0.108  -2.192  0.00  0.00    +0.010 A 
ENDBRANCH  19  28
ENDBRANCH   1  19
TORSDOF 7
