REMARK  Name = ZINCtV00000L6ki7.0
REMARK                            x       y       z     vdW  Elec       q    Type
REMARK                         _______ _______ _______ _____ _____    ______ ____
ROOT
ATOM      1  N   LIG    1       -4.827   5.564  -1.420  0.00  0.00    -0.730 N 
ATOM      2  H   LIG    1       -4.814   5.239  -0.506  0.00  0.00    +0.400 HD
ATOM      3  C   LIG    1       -3.669   5.800  -2.068  0.00  0.00    +0.710 C 
ATOM      4  N   LIG    1       -2.493   5.585  -1.446  0.00  0.00    -0.680 N 
ATOM      5  H   LIG    1       -2.477   5.181  -0.565  0.00  0.00    +0.400 HD
ATOM      6  O   LIG    1       -3.686   6.207  -3.214  0.00  0.00    -0.560 OA
ENDROOT
BRANCH   4   7
ATOM      7  C   LIG    1       -1.294   5.946  -2.073  0.00  0.00    +0.180 A 
ATOM      8  C   LIG    1       -1.286   6.944  -3.038  0.00  0.00    +0.020 A 
ATOM      9  C   LIG    1       -0.103   7.293  -3.659  0.00  0.00    +0.020 A 
ATOM     10  C   LIG    1        1.074   6.654  -3.315  0.00  0.00    -0.020 A 
ATOM     11  C   LIG    1        1.071   5.664  -2.350  0.00  0.00    +0.030 A 
ATOM     12  C   LIG    1       -0.109   5.310  -1.726  0.00  0.00    -0.110 A 
BRANCH  12  13
ATOM     13  C   LIG    1       -0.112   4.230  -0.675  0.00  0.00    +0.120 C 
BRANCH  13  14
ATOM     14  C   LIG    1       -0.472   2.912  -1.310  0.00  0.00    -0.080 A 
ATOM     15  C   LIG    1        0.521   2.095  -1.816  0.00  0.00    +0.010 A 
ATOM     16  C   LIG    1        0.191   0.885  -2.398  0.00  0.00    +0.000 A 
ATOM     17  C   LIG    1       -1.132   0.492  -2.473  0.00  0.00    +0.000 A 
ATOM     18  C   LIG    1       -2.126   1.312  -1.971  0.00  0.00    +0.000 A 
ATOM     19  C   LIG    1       -1.795   2.519  -1.386  0.00  0.00    +0.000 A 
ENDBRANCH  13  14
ENDBRANCH  12  13
ENDBRANCH   4   7
BRANCH   1  20
ATOM     20  C   LIG    1       -6.106   5.796  -2.096  0.00  0.00    +0.240 C 
ATOM     21  C   LIG    1       -6.239   4.836  -3.279  0.00  0.00    +0.050 C 
ATOM     22  C   LIG    1       -6.159   7.239  -2.602  0.00  0.00    +0.050 C 
BRANCH  20  27
ATOM     23  C   LIG    1       -8.172   4.363   0.732  0.00  0.00    -0.050 A 
ATOM     24  C   LIG    1       -9.326   5.142   0.647  0.00  0.00    +0.010 A 
ATOM     25  C   LIG    1       -9.425   6.121  -0.321  0.00  0.00    +0.020 A 
ATOM     26  C   LIG    1       -8.381   6.334  -1.203  0.00  0.00    +0.020 A 
ATOM     27  C   LIG    1       -7.236   5.561  -1.128  0.00  0.00    -0.080 A 
ATOM     28  C   LIG    1       -7.124   4.580  -0.165  0.00  0.00    +0.010 A 
BRANCH  23  30
ATOM     29  C   LIG    1       -7.147   3.421   2.723  0.00  0.00    +0.030 C 
ATOM     30  C   LIG    1       -8.058   3.314   1.766  0.00  0.00    -0.090 C 
ATOM     31  C   LIG    1       -8.979   2.121   1.734  0.00  0.00    +0.080 C 
ENDBRANCH  23  30
ENDBRANCH  20  27
ENDBRANCH   1  20
TORSDOF 6
