REMARK  Name = ZINCkj00000vNtqj.0
REMARK                            x       y       z     vdW  Elec       q    Type
REMARK                         _______ _______ _______ _____ _____    ______ ____
ROOT
ATOM      1  C   LIG    1       -1.309   0.454  -2.035  0.00  0.00    +0.110 A 
ATOM      2  N   LIG    1       -1.931   0.531  -3.187  0.00  0.00    -0.440 NA
ATOM      3  C   LIG    1       -2.213  -0.738  -3.532  0.00  0.00    +0.200 A 
ATOM      4  N   LIG    1       -1.763  -1.507  -2.587  0.00  0.00    -0.340 NA
ATOM      5  O   LIG    1       -1.240  -0.842  -1.717  0.00  0.00    +0.090 OA
ENDROOT
BRANCH   3   6
ATOM      6  C   LIG    1       -2.924  -1.185  -4.783  0.00  0.00    +0.160 C 
ATOM      7  C   LIG    1       -4.217  -1.946  -4.421  0.00  0.00    +0.060 C 
ATOM      8  C   LIG    1       -4.296  -3.013  -5.533  0.00  0.00    +0.100 C 
ATOM      9  C   LIG    1       -2.864  -3.233  -5.973  0.00  0.00    -0.080 A 
ATOM     10  C   LIG    1       -2.296  -4.271  -6.693  0.00  0.00    +0.030 A 
ATOM     11  C   LIG    1       -0.945  -4.259  -6.981  0.00  0.00    +0.020 A 
ATOM     12  C   LIG    1       -0.157  -3.208  -6.550  0.00  0.00    +0.010 A 
ATOM     13  C   LIG    1       -0.722  -2.172  -5.832  0.00  0.00    +0.010 A 
ATOM     14  C   LIG    1       -2.076  -2.182  -5.542  0.00  0.00    -0.110 A 
ENDBRANCH   3   6
BRANCH   1  15
ATOM     15  C   LIG    1       -0.779   1.607  -1.222  0.00  0.00    +0.230 C 
ATOM     16  C   LIG    1       -1.948   2.439  -0.646  0.00  0.00    +0.080 C 
ATOM     17  C   LIG    1       -1.449   2.800   0.776  0.00  0.00    +0.300 C 
ATOM     18  N   LIG    1       -0.726   1.573   1.208  0.00  0.00    -0.510 N 
ATOM     19  H   LIG    1       -0.067   1.794   1.940  0.00  0.00    +0.440 HD
ATOM     20  H   LIG    1       -1.384   0.878   1.528  0.00  0.00    +0.440 HD
ATOM     21  C   LIG    1       -0.013   1.086   0.008  0.00  0.00    +0.320 C 
BRANCH  15  22
ATOM     22  O   LIG    1        0.069   2.431  -2.023  0.00  0.00    -0.520 OA
ATOM     23  H   LIG    1       -0.360   2.788  -2.812  0.00  0.00    +0.410 HD
ENDBRANCH  15  22
ENDBRANCH   1  15
TORSDOF 3
