REMARK  Name = ZINCvU00000008Ji.0
REMARK                            x       y       z     vdW  Elec       q    Type
REMARK                         _______ _______ _______ _____ _____    ______ ____
ROOT
ATOM      1  S   LIG    1        0.969   0.843  -3.071  0.00  0.00    +0.090 S 
ENDROOT
BRANCH   1   2
ATOM      2  C   LIG    1       -0.400   1.784  -2.484  0.00  0.00    +0.150 A 
ATOM      3  N   LIG    1       -1.296   2.399  -3.223  0.00  0.00    -0.280 NA
ATOM      4  N   LIG    1       -2.156   2.992  -2.474  0.00  0.00    -0.250 NA
ATOM      5  C   LIG    1       -1.866   2.786  -1.208  0.00  0.00    +0.260 A 
ATOM      6  N   LIG    1       -0.727   2.011  -1.176  0.00  0.00    -0.450 N 
BRANCH   6   7
ATOM      7  C   LIG    1       -0.019   1.526   0.010  0.00  0.00    +0.250 C 
ATOM      8  C   LIG    1        1.417   2.055  -0.000  0.00  0.00    +0.020 C 
ATOM      9  C   LIG    1        2.157   1.548   1.239  0.00  0.00    +0.040 C 
ATOM     10  C   LIG    1        2.178   0.019   1.231  0.00  0.00    +0.010 C 
ATOM     11  C   LIG    1        0.742  -0.511   1.242  0.00  0.00    +0.040 C 
ATOM     12  C   LIG    1        0.002  -0.004   0.002  0.00  0.00    +0.020 C 
ENDBRANCH   6   7
BRANCH   5  13
ATOM     13  C   LIG    1       -2.612   3.292  -0.045  0.00  0.00    +0.040 A 
ATOM     14  C   LIG    1       -3.553   4.278  -0.065  0.00  0.00    +0.030 A 
ATOM     15  C   LIG    1       -4.003   4.436   1.260  0.00  0.00    -0.050 A 
ATOM     16  C   LIG    1       -3.324   3.550   2.016  0.00  0.00    +0.200 A 
ATOM     17  O   LIG    1       -2.489   2.857   1.224  0.00  0.00    -0.180 OA
ENDBRANCH   5  13
ENDBRANCH   1   2
BRANCH   1  18
ATOM     18  C   LIG    1        0.723   1.009  -4.856  0.00  0.00    +0.000 C 
ATOM     19  C   LIG    1       -0.582   0.319  -5.257  0.00  0.00    +0.090 C 
BRANCH  18  22
ATOM     20  N   LIG    1        2.196   0.771  -6.829  0.00  0.00    -0.720 N 
ATOM     21  H   LIG    1        1.684   1.475  -7.257  0.00  0.00    +0.400 HD
ATOM     22  C   LIG    1        1.875   0.367  -5.584  0.00  0.00    +0.540 C 
ATOM     23  O   LIG    1        2.515  -0.514  -5.049  0.00  0.00    -0.520 OA
BRANCH  20  25
ATOM     24  C   LIG    1        4.621   0.837  -7.135  0.00  0.00    +0.040 C 
ATOM     25  C   LIG    1        3.316   0.146  -7.537  0.00  0.00    +0.290 C 
BRANCH  25  26
ATOM     26  C   LIG    1        3.111   0.285  -9.023  0.00  0.00    -0.110 A 
ATOM     27  C   LIG    1        2.603   1.460  -9.544  0.00  0.00    +0.040 A 
ATOM     28  C   LIG    1        2.419   1.590 -10.908  0.00  0.00    -0.010 A 
ATOM     29  C   LIG    1        2.734   0.538 -11.751  0.00  0.00    +0.100 A 
ATOM     30  C   LIG    1        3.238  -0.641 -11.228  0.00  0.00    -0.010 A 
ATOM     31  F   LIG    1        2.550   0.662 -13.084  0.00  0.00    -0.140 F 
ATOM     32  C   LIG    1        3.426  -0.766  -9.864  0.00  0.00    +0.060 A 
ENDBRANCH  25  26
ENDBRANCH  20  25
ENDBRANCH  18  22
ENDBRANCH   1  18
TORSDOF 7
