REMARK  Name = ZINCb80000001OdT.0
REMARK                            x       y       z     vdW  Elec       q    Type
REMARK                         _______ _______ _______ _____ _____    ______ ____
ROOT
ATOM      1  C   LIG    1       -0.754   1.593  -1.232  0.00  0.00    +0.070 C 
ATOM      2  C   LIG    1       -2.206   1.108  -1.183  0.00  0.00    +0.050 C 
ATOM      3  C   LIG    1       -2.851   1.593   0.118  0.00  0.00    +0.010 C 
ATOM      4  C   LIG    1       -2.029   1.086   1.306  0.00  0.00    +0.210 C 
ATOM      5  O   LIG    1       -0.682   1.547   1.183  0.00  0.00    -0.360 OA
ATOM      6  F   LIG    1       -0.728   2.992  -1.252  0.00  0.00    -0.180 F 
ATOM      7  C   LIG    1       -0.013   1.086   0.008  0.00  0.00    +0.240 C 
ENDROOT
BRANCH   1  11
ATOM      8  C   LIG    1        1.823   0.913  -3.980  0.00  0.00    +0.280 C 
ATOM      9  N   LIG    1        1.173   1.433  -2.775  0.00  0.00    -0.720 N 
ATOM     10  H   LIG    1        1.649   2.048  -2.194  0.00  0.00    +0.410 HD
ATOM     11  C   LIG    1       -0.085   1.058  -2.472  0.00  0.00    +0.500 C 
ATOM     12  O   LIG    1       -0.680   0.290  -3.198  0.00  0.00    -0.520 OA
ENDBRANCH   1  11
TORSDOF 1
