REMARK  Name = ZINCrH000004kDYE.0
REMARK                            x       y       z     vdW  Elec       q    Type
REMARK                         _______ _______ _______ _____ _____    ______ ____
ROOT
ATOM      1  C   LIG    1       -5.708  -0.951   3.009  0.00  0.00    -0.090 A 
ATOM      2  C   LIG    1       -6.437  -1.376   1.897  0.00  0.00    +0.010 A 
ATOM      3  C   LIG    1       -5.981  -1.094   0.625  0.00  0.00    +0.050 A 
ATOM      4  C   LIG    1       -4.807  -0.386   0.448  0.00  0.00    -0.050 A 
ATOM      5  C   LIG    1       -4.072   0.036   1.548  0.00  0.00    +0.130 A 
ATOM      6  C   LIG    1       -4.520  -0.241   2.828  0.00  0.00    +0.060 A 
ENDROOT
BRANCH   1   9
ATOM      7  N   LIG    1       -7.341  -1.936   4.545  0.00  0.00    -0.710 N 
ATOM      8  H   LIG    1       -7.848  -2.232   3.773  0.00  0.00    +0.410 HD
ATOM      9  C   LIG    1       -6.193  -1.250   4.373  0.00  0.00    +0.570 C 
ATOM     10  O   LIG    1       -5.557  -0.879   5.340  0.00  0.00    -0.520 OA
BRANCH   7  11
ATOM     11  C   LIG    1       -7.822  -2.233   5.896  0.00  0.00    +0.290 C 
BRANCH  11  12
ATOM     12  C   LIG    1       -7.163  -3.492   6.398  0.00  0.00    +0.450 C 
ATOM     13  O   LIG    1       -6.374  -4.081   5.698  0.00  0.00    -0.500 OA
BRANCH  12  15
ATOM     14  C   LIG    1       -6.783  -5.178   8.039  0.00  0.00    +0.260 C 
ATOM     15  O   LIG    1       -7.454  -3.960   7.622  0.00  0.00    -0.360 OA
ENDBRANCH  12  15
ENDBRANCH  11  12
BRANCH  11  16
ATOM     16  C   LIG    1       -9.339  -2.427   5.866  0.00  0.00    +0.060 C 
BRANCH  16  17
ATOM     17  C   LIG    1      -10.014  -1.111   5.477  0.00  0.00    -0.030 C 
ATOM     18  C   LIG    1       -9.761  -0.066   6.566  0.00  0.00    +0.020 C 
ATOM     19  C   LIG    1      -11.520  -1.336   5.325  0.00  0.00    +0.030 C 
ENDBRANCH  16  17
ENDBRANCH  11  16
ENDBRANCH   7  11
ENDBRANCH   1   9
BRANCH   5  20
ATOM     20  O   LIG    1       -2.916   0.728   1.368  0.00  0.00    -0.310 OA
BRANCH  20  21
ATOM     21  C   LIG    1       -2.513   0.978   0.020  0.00  0.00    +0.260 C 
BRANCH  21  22
ATOM     22  C   LIG    1       -1.219   1.750   0.017  0.00  0.00    -0.110 A 
ATOM     23  C   LIG    1       -0.013   1.076   0.008  0.00  0.00    +0.080 A 
ATOM     24  C   LIG    1        1.175   1.783   0.000  0.00  0.00    -0.020 A 
ATOM     25  C   LIG    1        1.156   3.167   0.008  0.00  0.00    +0.110 A 
ATOM     26  C   LIG    1       -0.053   3.842   0.022  0.00  0.00    -0.020 A 
ATOM     27  F   LIG    1        2.316   3.859  -0.000  0.00  0.00    -0.140 F 
ATOM     28  C   LIG    1       -1.240   3.133   0.030  0.00  0.00    +0.080 A 
ENDBRANCH  21  22
ENDBRANCH  20  21
ENDBRANCH   5  20
TORSDOF 9
