REMARK  Name = ZINCpk00000y6tMr.0
REMARK                            x       y       z     vdW  Elec       q    Type
REMARK                         _______ _______ _______ _____ _____    ______ ____
ROOT
ATOM      1  N   LIG    1        2.806   5.649  -1.241  0.00  0.00    -0.440 N 
ATOM      2  C   LIG    1        1.642   6.514  -1.560  0.00  0.00    +0.210 C 
ATOM      3  C   LIG    1        0.428   5.617  -1.214  0.00  0.00    +0.080 C 
ATOM      4  C   LIG    1        0.905   4.860   0.047  0.00  0.00    +0.250 C 
ATOM      5  C   LIG    1        2.443   4.924  -0.004  0.00  0.00    +0.210 C 
ENDROOT
BRANCH   1  11
ATOM      6  C   LIG    1        4.889   6.518  -2.093  0.00  0.00    -0.160 A 
ATOM      7  C   LIG    1        6.038   7.288  -1.881  0.00  0.00    +0.100 A 
ATOM      8  C   LIG    1        6.198   7.906  -0.653  0.00  0.00    -0.030 A 
ATOM      9  C   LIG    1        5.228   7.748   0.321  0.00  0.00    +0.300 A 
ATOM     10  N   LIG    1        4.150   7.022   0.099  0.00  0.00    -0.520 NA
ATOM     11  C   LIG    1        3.949   6.404  -1.054  0.00  0.00    +0.340 A 
BRANCH   6  15
ATOM     12  C   LIG    1        5.408   5.189  -5.612  0.00  0.00    +0.290 C 
ATOM     13  N   LIG    1        5.626   5.865  -4.331  0.00  0.00    -0.740 N 
ATOM     14  H   LIG    1        6.460   6.333  -4.166  0.00  0.00    +0.400 HD
ATOM     15  C   LIG    1        4.669   5.837  -3.382  0.00  0.00    +0.560 C 
ATOM     16  O   LIG    1        3.625   5.250  -3.590  0.00  0.00    -0.490 OA
ENDBRANCH   6  15
ENDBRANCH   1  11
BRANCH   4  17
ATOM     17  C   LIG    1        0.440   3.427   0.004  0.00  0.00    +0.040 A 
ATOM     18  N   LIG    1       -0.794   3.050   0.032  0.00  0.00    -0.410 NA
ATOM     19  C   LIG    1       -1.028   1.754  -0.018  0.00  0.00    +0.060 A 
ATOM     20  C   LIG    1        0.070   0.995  -0.081  0.00  0.00    -0.100 A 
ATOM     21  C   LIG    1       -2.419   1.176  -0.001  0.00  0.00    +0.140 C 
ATOM     22  S   LIG    1        1.470   2.066  -0.086  0.00  0.00    +0.120 S 
ENDBRANCH   4  17
BRANCH   4  23
ATOM     23  N   LIG    1        0.408   5.519   1.257  0.00  0.00    -0.720 N 
ATOM     24  H   LIG    1        1.034   5.897   1.895  0.00  0.00    +0.400 HD
ATOM     25  C   LIG    1       -0.917   5.601   1.484  0.00  0.00    +0.500 C 
ATOM     26  O   LIG    1       -1.700   5.129   0.686  0.00  0.00    -0.490 OA
ATOM     27  C   LIG    1       -1.428   6.279   2.729  0.00  0.00    +0.090 C 
ENDBRANCH   4  23
TORSDOF 4
