REMARK  Name = ZINCkj000005gZmG.0
REMARK                            x       y       z     vdW  Elec       q    Type
REMARK                         _______ _______ _______ _____ _____    ______ ____
ROOT
ATOM      1  N   LIG    1        0.973   4.484  -2.815  0.00  0.00    -0.470 N 
ATOM      2  C   LIG    1       -0.182   4.393  -3.533  0.00  0.00    +0.510 A 
ATOM      3  N   LIG    1       -1.205   4.372  -2.729  0.00  0.00    -0.460 NA
ATOM      4  C   LIG    1       -0.772   4.439  -1.447  0.00  0.00    -0.020 A 
ATOM      5  C   LIG    1       -1.402   4.452  -0.191  0.00  0.00    +0.390 A 
ATOM      6  N   LIG    1       -0.643   4.535   0.897  0.00  0.00    -0.550 NA
ATOM      7  C   LIG    1        0.672   4.604   0.810  0.00  0.00    +0.540 A 
ATOM      8  N   LIG    1        1.305   4.596  -0.345  0.00  0.00    -0.500 NA
ATOM      9  C   LIG    1        0.630   4.515  -1.487  0.00  0.00    +0.280 A 
ENDROOT
BRANCH   5  10
ATOM     10  N   LIG    1       -2.780   4.380  -0.089  0.00  0.00    -0.450 N 
ATOM     11  C   LIG    1       -3.185   3.519   1.052  0.00  0.00    +0.240 C 
ATOM     12  C   LIG    1       -4.642   3.966   1.334  0.00  0.00    +0.070 C 
ATOM     13  C   LIG    1       -4.589   5.492   1.089  0.00  0.00    +0.170 C 
ATOM     14  C   LIG    1       -3.362   5.712   0.184  0.00  0.00    +0.170 C 
ATOM     15  C   LIG    1       -2.337   6.592   0.900  0.00  0.00    +0.050 C 
BRANCH  13  16
ATOM     16  N   LIG    1       -5.811   5.942   0.410  0.00  0.00    -0.380 N 
ATOM     17  C   LIG    1       -5.697   7.373   0.096  0.00  0.00    +0.320 C 
ATOM     18  C   LIG    1       -6.968   5.725   1.289  0.00  0.00    +0.320 C 
ATOM     19  H   LIG    1       -5.934   5.419  -0.443  0.00  0.00    +0.430 HD
ENDBRANCH  13  16
ENDBRANCH   5  10
BRANCH   1  21
ATOM     20  C   LIG    1        2.931   3.132  -3.380  0.00  0.00    +0.040 C 
ATOM     21  C   LIG    1        2.331   4.539  -3.361  0.00  0.00    +0.310 C 
ENDBRANCH   1  21
TORSDOF 3
