REMARK  Name = ZINCpk000000nCaa.0
REMARK                            x       y       z     vdW  Elec       q    Type
REMARK                         _______ _______ _______ _____ _____    ______ ____
ROOT
ATOM      1  C   LIG    1       -7.300  -3.878   2.661  0.00  0.00    +0.510 C 
ATOM      2  N   LIG    1       -6.715  -3.557   1.489  0.00  0.00    -0.740 N 
ATOM      3  H   LIG    1       -7.152  -3.779   0.652  0.00  0.00    +0.400 HD
ATOM      4  O   LIG    1       -6.753  -3.601   3.707  0.00  0.00    -0.510 OA
ENDROOT
BRANCH   1   5
ATOM      5  C   LIG    1       -8.633  -4.580   2.670  0.00  0.00    +0.220 C 
BRANCH   5   6
ATOM      6  N   LIG    1       -9.053  -4.816   4.057  0.00  0.00    -0.510 NA
ATOM      7  C   LIG    1       -9.322  -3.548   4.749  0.00  0.00    +0.210 C 
BRANCH   6   8
ATOM      8  C   LIG    1      -10.224  -5.702   4.110  0.00  0.00    +0.220 C 
BRANCH   8  11
ATOM      9  N   LIG    1      -11.505  -6.936   5.828  0.00  0.00    -0.730 N 
ATOM     10  H   LIG    1      -12.085  -7.258   5.119  0.00  0.00    +0.400 HD
ATOM     11  C   LIG    1      -10.475  -6.118   5.536  0.00  0.00    +0.510 C 
ATOM     12  O   LIG    1       -9.751  -5.715   6.422  0.00  0.00    -0.510 OA
BRANCH   9  14
ATOM     13  C   LIG    1      -12.592  -6.273   7.916  0.00  0.00    +0.030 C 
ATOM     14  C   LIG    1      -11.750  -7.341   7.215  0.00  0.00    +0.230 C 
ATOM     15  C   LIG    1      -12.500  -8.674   7.232  0.00  0.00    +0.030 C 
ENDBRANCH   9  14
ENDBRANCH   8  11
ENDBRANCH   6   8
ENDBRANCH   5   6
ENDBRANCH   1   5
BRANCH   2  16
ATOM     16  C   LIG    1       -5.419  -2.875   1.481  0.00  0.00    +0.270 C 
BRANCH  16  17
ATOM     17  C   LIG    1       -4.981  -2.629   0.035  0.00  0.00    +0.070 C 
BRANCH  17  18
ATOM     18  C   LIG    1       -3.648  -1.927   0.026  0.00  0.00    -0.110 A 
ATOM     19  C   LIG    1       -2.479  -2.665   0.011  0.00  0.00    +0.050 A 
ATOM     20  C   LIG    1       -1.255  -2.024   0.003  0.00  0.00    +0.010 A 
ATOM     21  C   LIG    1       -1.200  -0.637   0.010  0.00  0.00    +0.100 A 
ATOM     22  C   LIG    1       -2.374   0.101   0.031  0.00  0.00    -0.060 A 
ATOM     23  C   LIG    1       -3.595  -0.545   0.033  0.00  0.00    +0.060 A 
BRANCH  21  24
ATOM     24  O   LIG    1        0.002  -0.004   0.002  0.00  0.00    -0.320 OA
BRANCH  24  25
ATOM     25  C   LIG    1       -0.017   1.425   0.010  0.00  0.00    +0.590 C 
ATOM     26  F   LIG    1       -0.672   1.876   1.161  0.00  0.00    -0.200 F 
ATOM     27  F   LIG    1       -0.694   1.888  -1.123  0.00  0.00    -0.200 F 
ENDBRANCH  24  25
ENDBRANCH  21  24
ENDBRANCH  17  18
ENDBRANCH  16  17
ENDBRANCH   2  16
TORSDOF 10
