REMARK  Name = ZINCqH0000038dof.0
REMARK                            x       y       z     vdW  Elec       q    Type
REMARK                         _______ _______ _______ _____ _____    ______ ____
ROOT
ATOM      1  C   LIG    1        0.546  -0.524   1.258  0.00  0.00    +0.320 C 
ATOM      2  C   LIG    1        0.262   0.120  -0.104  0.00  0.00    +0.220 C 
ATOM      3  O   LIG    1        0.391   1.540   0.011  0.00  0.00    -0.370 OA
ATOM      4  C   LIG    1        1.702   1.982   0.368  0.00  0.00    +0.220 C 
ATOM      5  C   LIG    1        2.060   1.433   1.754  0.00  0.00    +0.250 C 
ATOM      6  N   LIG    1        1.840  -0.022   1.748  0.00  0.00    -0.630 N 
ATOM      7  C   LIG    1        2.795  -0.870   2.179  0.00  0.00    +0.710 C 
ATOM      8  N   LIG    1        3.932  -0.387   2.719  0.00  0.00    -0.730 N 
ATOM      9  H   LIG    1        4.035   0.568   2.857  0.00  0.00    +0.400 HD
ATOM     10  O   LIG    1        2.631  -2.071   2.081  0.00  0.00    -0.550 OA
ENDROOT
BRANCH   1  15
ATOM     11  C   LIG    1        1.964  -5.111  -0.288  0.00  0.00    +0.160 C 
ATOM     12  C   LIG    1        1.223  -4.017   0.436  0.00  0.00    +0.000 A 
ATOM     13  C   LIG    1        0.217  -4.194   1.312  0.00  0.00    -0.070 A 
ATOM     14  C   LIG    1       -0.177  -2.909   1.749  0.00  0.00    -0.060 A 
ATOM     15  C   LIG    1        0.606  -2.022   1.108  0.00  0.00    +0.020 A 
ATOM     16  O   LIG    1        1.454  -2.699   0.317  0.00  0.00    -0.150 OA
ENDBRANCH   1  15
BRANCH   8  17
ATOM     17  C   LIG    1        5.011  -1.303   3.096  0.00  0.00    +0.330 C 
BRANCH  17  18
ATOM     18  C   LIG    1        6.324  -0.565   3.080  0.00  0.00    +0.120 A 
ATOM     19  N   LIG    1        6.407   0.631   3.628  0.00  0.00    -0.470 NA
ATOM     20  C   LIG    1        7.535   1.313   3.638  0.00  0.00    +0.250 A 
ATOM     21  C   LIG    1        8.681   0.792   3.069  0.00  0.00    -0.030 A 
ATOM     22  C   LIG    1        8.634  -0.464   2.483  0.00  0.00    +0.070 A 
ATOM     23  C   LIG    1        7.431  -1.153   2.497  0.00  0.00    -0.120 A 
ATOM     24  C   LIG    1        7.330  -2.524   1.879  0.00  0.00    +0.110 C 
ENDBRANCH  17  18
BRANCH  17  25
ATOM     25  C   LIG    1        4.748  -1.849   4.501  0.00  0.00    -0.030 C 
ATOM     26  C   LIG    1        3.479  -2.702   4.488  0.00  0.00    +0.030 C 
ATOM     27  C   LIG    1        4.569  -0.683   5.475  0.00  0.00    +0.030 C 
ENDBRANCH  17  25
ENDBRANCH   8  17
TORSDOF 4
