REMARK  Name = ZINCrD00000hQ4Aq.0
REMARK                            x       y       z     vdW  Elec       q    Type
REMARK                         _______ _______ _______ _____ _____    ______ ____
ROOT
ATOM      1  C   LIG    1        4.974  -0.542  -2.737  0.00  0.00    +0.400 A 
ATOM      2  N   LIG    1        3.654  -0.496  -2.622  0.00  0.00    -0.540 NA
ATOM      3  C   LIG    1        2.958   0.542  -3.058  0.00  0.00    +0.270 A 
ATOM      4  N   LIG    1        3.512   1.585  -3.627  0.00  0.00    -0.470 NA
ATOM      5  C   LIG    1        4.842   1.643  -3.793  0.00  0.00    +0.170 A 
ATOM      6  C   LIG    1        5.468   2.741  -4.397  0.00  0.00    +0.060 A 
ATOM      7  C   LIG    1        6.824   2.748  -4.541  0.00  0.00    +0.070 A 
ATOM      8  C   LIG    1        7.598   1.679  -4.098  0.00  0.00    +0.030 A 
ATOM      9  C   LIG    1        7.020   0.594  -3.506  0.00  0.00    +0.070 A 
ATOM     10  C   LIG    1        5.632   0.556  -3.344  0.00  0.00    -0.140 A 
ENDROOT
BRANCH   1  17
ATOM     11  C   LIG    1        2.947  -5.642  -0.971  0.00  0.00    +0.540 C 
ATOM     12  N   LIG    1        3.760  -4.569  -1.008  0.00  0.00    -0.620 N 
ATOM     13  C   LIG    1        4.670  -4.116   0.086  0.00  0.00    +0.280 C 
ATOM     14  C   LIG    1        5.763  -3.357  -0.659  0.00  0.00    -0.010 C 
ATOM     15  C   LIG    1        6.418  -2.144   0.002  0.00  0.00    +0.060 C 
ATOM     16  C   LIG    1        6.675  -1.221  -1.230  0.00  0.00    +0.240 C 
ATOM     17  N   LIG    1        5.687  -1.630  -2.280  0.00  0.00    -0.430 N 
ATOM     18  C   LIG    1        4.833  -2.569  -1.655  0.00  0.00    +0.100 C 
ATOM     19  C   LIG    1        3.911  -3.620  -2.151  0.00  0.00    +0.310 C 
ATOM     20  O   LIG    1        2.971  -6.389  -0.015  0.00  0.00    -0.530 OA
BRANCH  11  22
ATOM     21  C   LIG    1        1.781  -7.424  -2.242  0.00  0.00    +0.060 C 
ATOM     22  C   LIG    1        2.006  -5.916  -2.116  0.00  0.00    -0.020 C 
ATOM     23  C   LIG    1        0.669  -5.220  -1.855  0.00  0.00    +0.050 C 
ENDBRANCH  11  22
ENDBRANCH   1  17
BRANCH   3  24
ATOM     24  C   LIG    1        1.460   0.524  -2.894  0.00  0.00    +0.550 C 
ATOM     25  F   LIG    1        1.135   0.769  -1.555  0.00  0.00    -0.160 F 
ATOM     26  F   LIG    1        0.964  -0.729  -3.272  0.00  0.00    -0.160 F 
ATOM     27  F   LIG    1        0.890   1.514  -3.701  0.00  0.00    -0.150 F 
ENDBRANCH   3  24
TORSDOF 3
