REMARK  Name = ZINCkj000005jteh.1
REMARK                            x       y       z     vdW  Elec       q    Type
REMARK                         _______ _______ _______ _____ _____    ______ ____
ROOT
ATOM      1  C   LIG    1       -0.084   1.567   0.254  0.00  0.00    +0.390 C 
ENDROOT
BRANCH   1   2
ATOM      2  N   LIG    1       -0.097   0.128   0.532  0.00  0.00    -0.450 N 
ATOM      3  N   LIG    1       -0.182  -0.898  -0.419  0.00  0.00    -0.300 NA
ATOM      4  C   LIG    1       -0.162  -2.044   0.221  0.00  0.00    +0.320 A 
ATOM      5  C   LIG    1       -0.217  -3.386  -0.233  0.00  0.00    +0.020 A 
ATOM      6  C   LIG    1       -0.184  -4.394   0.672  0.00  0.00    +0.140 A 
ATOM      7  C   LIG    1       -0.096  -4.101   2.048  0.00  0.00    +0.000 A 
ATOM      8  C   LIG    1       -0.042  -2.826   2.474  0.00  0.00    +0.300 A 
ATOM      9  N   LIG    1       -0.074  -1.785   1.577  0.00  0.00    -0.480 N 
ATOM     10  C   LIG    1       -0.036  -0.449   1.750  0.00  0.00    +0.650 A 
ATOM     11  O   LIG    1        0.041   0.135   2.817  0.00  0.00    -0.530 OA
ENDBRANCH   1   2
BRANCH   1  12
ATOM     12  C   LIG    1        1.360   2.037   0.070  0.00  0.00    +0.250 C 
BRANCH  12  18
ATOM     13  C   LIG    1        2.167   5.836   1.412  0.00  0.00    +0.070 C 
ATOM     14  C   LIG    1        2.835   5.471   0.084  0.00  0.00    +0.070 C 
ATOM     15  S   LIG    1        1.948   6.275  -1.287  0.00  0.00    -0.180 S 
ATOM     16  C   LIG    1        0.367   5.375  -1.286  0.00  0.00    +0.140 C 
ATOM     17  C   LIG    1        0.664   3.872  -1.295  0.00  0.00    +0.280 C 
ATOM     18  N   LIG    1        1.384   3.499  -0.075  0.00  0.00    -0.380 N 
ATOM     19  H   LIG    1        0.926   3.918   0.720  0.00  0.00    +0.420 HD
ATOM     20  C   LIG    1        2.775   3.954  -0.123  0.00  0.00    +0.180 C 
ATOM     21  C   LIG    1        3.575   3.260   0.981  0.00  0.00    +0.110 C 
ENDBRANCH  12  18
ENDBRANCH   1  12
TORSDOF 3
