REMARK  Name = ZINCkj000005jteh.0
REMARK                            x       y       z     vdW  Elec       q    Type
REMARK                         _______ _______ _______ _____ _____    ______ ____
ROOT
ATOM      1  C   LIG    1       -1.134   4.699   0.133  0.00  0.00    +0.390 C 
ENDROOT
BRANCH   1   2
ATOM      2  N   LIG    1       -0.361   3.455   0.175  0.00  0.00    -0.450 N 
ATOM      3  N   LIG    1        1.037   3.350   0.199  0.00  0.00    -0.300 NA
ATOM      4  C   LIG    1        1.344   2.074   0.234  0.00  0.00    +0.320 A 
ATOM      5  C   LIG    1        2.591   1.399   0.269  0.00  0.00    +0.020 A 
ATOM      6  C   LIG    1        2.611   0.044   0.302  0.00  0.00    +0.140 A 
ATOM      7  C   LIG    1        1.399  -0.676   0.301  0.00  0.00    +0.000 A 
ATOM      8  C   LIG    1        0.220  -0.032   0.268  0.00  0.00    +0.300 A 
ATOM      9  N   LIG    1        0.172   1.342   0.234  0.00  0.00    -0.480 N 
ATOM     10  C   LIG    1       -0.864   2.204   0.203  0.00  0.00    +0.650 A 
ATOM     11  O   LIG    1       -2.046   1.906   0.198  0.00  0.00    -0.530 OA
ENDBRANCH   1   2
BRANCH   1  12
ATOM     12  C   LIG    1       -1.426   5.166   1.560  0.00  0.00    +0.250 C 
BRANCH  12  18
ATOM     13  C   LIG    1       -2.940   8.938   4.258  0.00  0.00    +0.120 C 
ATOM     14  C   LIG    1       -2.838   8.382   2.837  0.00  0.00    +0.020 C 
ATOM     15  S   LIG    1       -4.477   8.422   2.046  0.00  0.00    -0.180 S 
ATOM     16  C   LIG    1       -4.179   7.471   0.524  0.00  0.00    +0.140 C 
ATOM     17  C   LIG    1       -3.503   6.149   0.902  0.00  0.00    +0.270 C 
ATOM     18  N   LIG    1       -2.201   6.413   1.519  0.00  0.00    -0.380 N 
ATOM     19  H   LIG    1       -1.704   7.093   0.963  0.00  0.00    +0.420 HD
ATOM     20  C   LIG    1       -2.358   6.927   2.881  0.00  0.00    +0.170 C 
ATOM     21  C   LIG    1       -3.382   6.074   3.631  0.00  0.00    +0.100 C 
ENDBRANCH  12  18
ENDBRANCH   1  12
TORSDOF 3
