REMARK  Name = ZINCqH0000051zc6.0
REMARK                            x       y       z     vdW  Elec       q    Type
REMARK                         _______ _______ _______ _____ _____    ______ ____
ROOT
ATOM      1  O   LIG    1        0.386   4.120  -0.329  0.00  0.00    -0.480 OA
ATOM      2  C   LIG    1        1.430   3.523  -0.205  0.00  0.00    +0.480 C 
ENDROOT
BRANCH   2   3
ATOM      3  C   LIG    1        1.424   2.030  -0.001  0.00  0.00    +0.090 C 
ATOM      4  C   LIG    1       -0.019   1.529   0.010  0.00  0.00    +0.050 C 
ATOM      5  C   LIG    1        0.002  -0.004   0.002  0.00  0.00    +0.030 C 
ATOM      6  C   LIG    1        0.495  -0.471  -1.366  0.00  0.00    +0.090 C 
ATOM      7  C   LIG    1        1.781   0.222  -1.731  0.00  0.00    -0.080 A 
ATOM      8  C   LIG    1        2.558  -0.342  -2.742  0.00  0.00    +0.100 A 
ATOM      9  C   LIG    1        3.749   0.253  -3.125  0.00  0.00    -0.010 A 
ATOM     10  C   LIG    1        4.167   1.412  -2.501  0.00  0.00    +0.020 A 
ATOM     11  C   LIG    1        3.398   1.968  -1.499  0.00  0.00    +0.010 A 
ATOM     12  C   LIG    1        2.204   1.374  -1.110  0.00  0.00    -0.070 A 
BRANCH   8  13
ATOM     13  O   LIG    1        2.144  -1.482  -3.355  0.00  0.00    -0.490 OA
ATOM     14  H   LIG    1        1.591  -1.331  -4.134  0.00  0.00    +0.390 HD
ENDBRANCH   8  13
ENDBRANCH   2   3
BRANCH   2  15
ATOM     15  O   LIG    1        2.594   4.190  -0.250  0.00  0.00    -0.360 OA
BRANCH  15  16
ATOM     16  C   LIG    1        2.523   5.627  -0.450  0.00  0.00    +0.370 C 
BRANCH  16  17
ATOM     17  C   LIG    1        3.917   6.200  -0.472  0.00  0.00    +0.300 A 
ATOM     18  N   LIG    1        4.203   7.458  -0.639  0.00  0.00    -0.470 NA
ATOM     19  C   LIG    1        5.550   7.629  -0.603  0.00  0.00    +0.070 A 
ATOM     20  C   LIG    1        6.381   8.746  -0.723  0.00  0.00    +0.090 A 
ATOM     21  C   LIG    1        7.748   8.592  -0.648  0.00  0.00    +0.070 A 
ATOM     22  C   LIG    1        8.307   7.333  -0.453  0.00  0.00    +0.090 A 
ATOM     23  C   LIG    1        7.498   6.221  -0.333  0.00  0.00    +0.030 A 
ATOM     24  F   LIG    1        9.649   7.197  -0.380  0.00  0.00    -0.120 F 
ATOM     25  F   LIG    1        8.552   9.672  -0.764  0.00  0.00    -0.120 F 
ATOM     26  C   LIG    1        6.119   6.359  -0.406  0.00  0.00    +0.070 A 
ATOM     27  N   LIG    1        5.060   5.476  -0.328  0.00  0.00    -0.580 N 
ATOM     28  H   LIG    1        5.120   4.517  -0.194  0.00  0.00    +0.430 HD
ENDBRANCH  16  17
ENDBRANCH  15  16
ENDBRANCH   2  15
TORSDOF 5
