REMARK  Name = ZINCb70000003Zjd.0
REMARK                            x       y       z     vdW  Elec       q    Type
REMARK                         _______ _______ _______ _____ _____    ______ ____
ROOT
ATOM      1  C   LIG    1        0.041   0.972   2.456  0.00  0.00    +0.020 C 
ATOM      2  C   LIG    1       -0.663  -0.077   3.319  0.00  0.00    +0.110 C 
ATOM      3  C   LIG    1       -0.523   1.361   3.824  0.00  0.00    +0.140 C 
ENDROOT
BRANCH   1   4
ATOM      4  N   LIG    1        1.497   0.876   2.327  0.00  0.00    -0.280 N 
ATOM      5  C   LIG    1        2.166   0.276   1.315  0.00  0.00    +0.060 A 
ATOM      6  C   LIG    1        3.482   0.422   1.594  0.00  0.00    +0.200 A 
ATOM      7  N   LIG    1        3.553   1.088   2.752  0.00  0.00    -0.250 NA
ATOM      8  N   LIG    1        2.360   1.342   3.160  0.00  0.00    -0.040 NA
ENDBRANCH   1   4
BRANCH   1  10
ATOM      9  C   LIG    1       -2.135   0.949   1.227  0.00  0.00    +0.120 C 
ATOM     10  C   LIG    1       -0.699   1.479   1.216  0.00  0.00    +0.240 C 
BRANCH  10  11
ATOM     11  N   LIG    1       -0.012   1.005   0.008  0.00  0.00    -0.650 N 
ATOM     12  H   LIG    1       -0.500   1.339  -0.810  0.00  0.00    +0.440 HD
ATOM     13  H   LIG    1        0.935   1.354   0.000  0.00  0.00    +0.440 HD
ATOM     14  H   LIG    1        0.002  -0.004   0.002  0.00  0.00    +0.430 HD
ENDBRANCH  10  11
ENDBRANCH   1  10
TORSDOF 3
