REMARK  Name = ZINCvU0000000J2D.0
REMARK                            x       y       z     vdW  Elec       q    Type
REMARK                         _______ _______ _______ _____ _____    ______ ____
ROOT
ATOM      1  C   LIG    1        2.555   1.310   0.021  0.00  0.00    -0.120 C 
ATOM      2  C   LIG    1        3.761   1.699  -0.519  0.00  0.00    +0.190 C 
ENDROOT
BRANCH   2   3
ATOM      3  C   LIG    1        3.838   2.906  -1.346  0.00  0.00    -0.150 A 
ATOM      4  C   LIG    1        4.715   2.957  -2.438  0.00  0.00    +0.100 A 
ATOM      5  C   LIG    1        4.777   4.083  -3.209  0.00  0.00    -0.080 A 
ATOM      6  C   LIG    1        3.982   5.183  -2.904  0.00  0.00    +0.160 A 
ATOM      7  C   LIG    1        3.114   5.141  -1.818  0.00  0.00    -0.010 A 
ATOM      8  C   LIG    1        3.038   4.018  -1.044  0.00  0.00    +0.100 A 
BRANCH   6   9
ATOM      9  O   LIG    1        4.053   6.301  -3.670  0.00  0.00    -0.300 OA
BRANCH   9  10
ATOM     10  C   LIG    1        4.965   6.277  -4.769  0.00  0.00    +0.260 C 
BRANCH  10  11
ATOM     11  C   LIG    1        4.906   7.595  -5.498  0.00  0.00    -0.110 A 
ATOM     12  C   LIG    1        4.019   7.767  -6.544  0.00  0.00    +0.080 A 
ATOM     13  C   LIG    1        3.960   8.977  -7.210  0.00  0.00    -0.020 A 
ATOM     14  C   LIG    1        4.800  10.013  -6.836  0.00  0.00    +0.110 A 
ATOM     15  C   LIG    1        5.692   9.838  -5.793  0.00  0.00    -0.020 A 
ATOM     16  F   LIG    1        4.748  11.194  -7.490  0.00  0.00    -0.140 F 
ATOM     17  C   LIG    1        5.744   8.629  -5.124  0.00  0.00    +0.080 A 
ENDBRANCH  10  11
ENDBRANCH   9  10
ENDBRANCH   6   9
ENDBRANCH   2   3
BRANCH   1  20
ATOM     18  N   LIG    1        0.783   1.773  -1.593  0.00  0.00    -0.660 N 
ATOM     19  H   LIG    1        1.254   1.219  -2.235  0.00  0.00    +0.410 HD
ATOM     20  C   LIG    1        1.316   1.995  -0.376  0.00  0.00    +0.580 C 
ATOM     21  O   LIG    1        0.772   2.763   0.396  0.00  0.00    -0.500 OA
BRANCH  18  26
ATOM     22  C   LIG    1       -4.207   4.092  -2.971  0.00  0.00    +0.090 C 
ATOM     23  C   LIG    1       -2.881   3.476  -2.606  0.00  0.00    -0.080 A 
ATOM     24  C   LIG    1       -1.794   3.630  -3.445  0.00  0.00    +0.010 A 
ATOM     25  C   LIG    1       -0.577   3.067  -3.112  0.00  0.00    -0.080 A 
ATOM     26  C   LIG    1       -0.447   2.345  -1.933  0.00  0.00    +0.130 A 
ATOM     27  C   LIG    1       -1.544   2.187  -1.095  0.00  0.00    -0.060 A 
ATOM     28  C   LIG    1       -1.409   1.398   0.182  0.00  0.00    +0.090 C 
ATOM     29  C   LIG    1        0.608   3.236  -4.028  0.00  0.00    +0.090 C 
ATOM     30  C   LIG    1       -2.756   2.757  -1.431  0.00  0.00    +0.020 A 
ENDBRANCH  18  26
ENDBRANCH   1  20
BRANCH   1  31
ATOM     31  C   LIG    1        2.509   0.238   0.969  0.00  0.00    +0.260 C 
ATOM     32  N   LIG    1        2.472  -0.613   1.721  0.00  0.00    -0.400 NA
ENDBRANCH   1  31
TORSDOF 7
