REMARK  Name = ZINCpe000000Xbvx.0
REMARK                            x       y       z     vdW  Elec       q    Type
REMARK                         _______ _______ _______ _____ _____    ______ ____
ROOT
ATOM      1  N   LIG    1       -4.013  -7.540   0.567  0.00  0.00    -0.370 N 
ATOM      2  C   LIG    1       -5.396  -7.046   0.592  0.00  0.00    +0.250 C 
ATOM      3  C   LIG    1       -5.590  -6.016  -0.525  0.00  0.00    +0.320 C 
ATOM      4  N   LIG    1       -4.569  -4.968  -0.377  0.00  0.00    -0.620 N 
ATOM      5  C   LIG    1       -3.164  -5.384  -0.236  0.00  0.00    +0.300 C 
ATOM      6  C   LIG    1       -4.908  -3.664  -0.375  0.00  0.00    +0.570 C 
ATOM      7  O   LIG    1       -6.080  -3.342  -0.388  0.00  0.00    -0.510 OA
ATOM      8  C   LIG    1       -3.085  -6.444   0.874  0.00  0.00    +0.240 C 
ATOM      9  H   LIG    1       -3.806  -7.908  -0.350  0.00  0.00    +0.440 HD
ENDROOT
BRANCH   6  10
ATOM     10  C   LIG    1       -3.857  -2.627  -0.357  0.00  0.00    -0.140 A 
ATOM     11  C   LIG    1       -4.072  -1.424   0.319  0.00  0.00    +0.120 A 
ATOM     12  C   LIG    1       -3.089  -0.459   0.334  0.00  0.00    +0.040 A 
ATOM     13  C   LIG    1       -1.884  -0.682  -0.323  0.00  0.00    +0.180 A 
ATOM     14  C   LIG    1       -1.669  -1.876  -1.001  0.00  0.00    +0.010 A 
ATOM     15  C   LIG    1       -2.645  -2.848  -1.016  0.00  0.00    +0.080 A 
BRANCH  13  16
ATOM     16  N   LIG    1       -0.888   0.301  -0.306  0.00  0.00    -0.330 N 
ATOM     17  C   LIG    1        0.338   0.233  -0.897  0.00  0.00    +0.220 A 
ATOM     18  C   LIG    1        0.967   1.396  -0.626  0.00  0.00    +0.140 A 
ATOM     19  N   LIG    1        0.162   2.164   0.110  0.00  0.00    -0.220 NA
ATOM     20  N   LIG    1       -0.952   1.553   0.324  0.00  0.00    -0.060 NA
ENDBRANCH  13  16
ENDBRANCH   6  10
BRANCH   1  22
ATOM     21  C   LIG    1       -4.053  -8.021   2.967  0.00  0.00    +0.060 C 
ATOM     22  C   LIG    1       -3.857  -8.604   1.567  0.00  0.00    +0.190 C 
BRANCH  22  23
ATOM     23  C   LIG    1       -2.454  -9.206   1.457  0.00  0.00    -0.030 C 
BRANCH  23  24
ATOM     24  C   LIG    1       -2.304  -9.888   0.122  0.00  0.00    +0.480 C 
ATOM     25  O   LIG    1       -1.253 -10.435  -0.168  0.00  0.00    -0.660 OA
ATOM     26  O   LIG    1       -3.232  -9.893  -0.668  0.00  0.00    -0.700 OA
ENDBRANCH  23  24
ENDBRANCH  22  23
ENDBRANCH   1  22
TORSDOF 5
