REMARK  Name = ZINCrH000004q1PO.0
REMARK                            x       y       z     vdW  Elec       q    Type
REMARK                         _______ _______ _______ _____ _____    ______ ____
ROOT
ATOM      1  C   LIG    1       -3.353   3.467   1.292  0.00  0.00    +0.090 C 
ATOM      2  C   LIG    1       -2.554   3.835   0.040  0.00  0.00    +0.170 C 
ATOM      3  N   LIG    1       -2.340   5.291  -0.029  0.00  0.00    -0.720 N 
ATOM      4  H   LIG    1       -1.863   5.838   0.614  0.00  0.00    +0.440 HD
ATOM      5  C   LIG    1       -2.937   5.715  -1.158  0.00  0.00    +0.710 C 
ATOM      6  N   LIG    1       -3.514   4.716  -1.837  0.00  0.00    -0.560 N 
ATOM      7  O   LIG    1       -2.949   6.874  -1.521  0.00  0.00    -0.530 OA
ATOM      8  C   LIG    1       -3.353   3.529  -1.211  0.00  0.00    +0.530 C 
ATOM      9  O   LIG    1       -3.759   2.446  -1.574  0.00  0.00    -0.430 OA
ENDROOT
BRANCH   2  10
ATOM     10  C   LIG    1       -1.236   3.105   0.020  0.00  0.00    -0.070 A 
ATOM     11  C   LIG    1       -0.051   3.816   0.019  0.00  0.00    +0.040 A 
ATOM     12  C   LIG    1        1.158   3.146   0.000  0.00  0.00    +0.040 A 
ATOM     13  C   LIG    1        1.182   1.764  -0.017  0.00  0.00    +0.040 A 
ATOM     14  C   LIG    1       -0.003   1.051  -0.016  0.00  0.00    +0.050 A 
ATOM     15  C   LIG    1       -1.212   1.722  -0.003  0.00  0.00    -0.080 A 
ATOM     16 BR   LIG    1       -2.833   0.748  -0.008  0.00  0.00    -0.010 Br
ENDBRANCH   2  10
BRANCH   6  17
ATOM     17  C   LIG    1       -4.233   4.888  -3.101  0.00  0.00    +0.370 C 
BRANCH  17  18
ATOM     18  C   LIG    1       -3.271   4.736  -4.251  0.00  0.00    +0.510 C 
ATOM     19  N   LIG    1       -3.712   4.856  -5.519  0.00  0.00    -0.670 N 
ATOM     20  H   LIG    1       -4.659   4.975  -5.694  0.00  0.00    +0.420 HD
ATOM     21  O   LIG    1       -2.100   4.507  -4.035  0.00  0.00    -0.500 OA
BRANCH  19  22
ATOM     22  C   LIG    1       -2.804   4.807  -6.584  0.00  0.00    +0.130 A 
ATOM     23  C   LIG    1       -1.688   3.986  -6.510  0.00  0.00    +0.070 A 
ATOM     24  C   LIG    1       -0.796   3.936  -7.564  0.00  0.00    +0.070 A 
ATOM     25  C   LIG    1       -1.008   4.712  -8.689  0.00  0.00    -0.080 A 
ATOM     26  C   LIG    1       -2.116   5.537  -8.765  0.00  0.00    +0.040 A 
ATOM     27 BR   LIG    1        0.220   4.645 -10.126  0.00  0.00    -0.030 Br
ATOM     28  C   LIG    1       -3.015   5.587  -7.716  0.00  0.00    +0.080 A 
ATOM     29  F   LIG    1       -4.097   6.393  -7.790  0.00  0.00    -0.130 F 
ENDBRANCH  19  22
ENDBRANCH  17  18
ENDBRANCH   6  17
TORSDOF 4
