REMARK  Name = ZINCrH00000No4PU.0
REMARK                            x       y       z     vdW  Elec       q    Type
REMARK                         _______ _______ _______ _____ _____    ______ ____
ROOT
ATOM      1  C   LIG    1        3.749  -5.724  -1.961  0.00  0.00    +0.570 C 
ATOM      2  N   LIG    1        3.719  -4.485  -1.431  0.00  0.00    -0.610 N 
ATOM      3  C   LIG    1        4.979  -3.799  -1.022  0.00  0.00    +0.280 C 
ATOM      4  C   LIG    1        4.749  -3.223   0.387  0.00  0.00    +0.240 C 
ATOM      5  C   LIG    1        4.253  -4.364   1.303  0.00  0.00    +0.030 C 
ATOM      6  C   LIG    1        2.717  -4.345   1.162  0.00  0.00    +0.030 C 
ATOM      7  C   LIG    1        2.424  -3.195   0.179  0.00  0.00    +0.220 C 
ATOM      8  N   LIG    1        3.596  -2.295   0.298  0.00  0.00    -0.610 N 
ATOM      9  C   LIG    1        3.611  -0.947   0.326  0.00  0.00    +0.580 C 
ATOM     10  O   LIG    1        4.670  -0.351   0.355  0.00  0.00    -0.520 OA
ATOM     11  C   LIG    1        2.441  -3.779  -1.244  0.00  0.00    +0.280 C 
ATOM     12  O   LIG    1        2.725  -6.234  -2.373  0.00  0.00    -0.530 OA
ENDROOT
BRANCH   9  13
ATOM     13  C   LIG    1        2.339  -0.194   0.322  0.00  0.00    -0.120 A 
ATOM     14  C   LIG    1        1.234  -0.691  -0.373  0.00  0.00    +0.090 A 
ATOM     15  C   LIG    1        0.045   0.010  -0.380  0.00  0.00    +0.050 A 
ATOM     16  C   LIG    1       -0.061   1.208   0.302  0.00  0.00    +0.020 A 
ATOM     17  C   LIG    1        1.037   1.716   1.003  0.00  0.00    -0.020 A 
ATOM     18 CL   LIG    1       -1.559   2.085   0.283  0.00  0.00    -0.040 Cl
ATOM     19  C   LIG    1        2.240   1.012   1.012  0.00  0.00    +0.150 A 
BRANCH  17  20
ATOM     20  C   LIG    1        0.926   2.957   1.710  0.00  0.00    +0.240 C 
ATOM     21  N   LIG    1        0.839   3.941   2.270  0.00  0.00    -0.380 NA
ENDBRANCH  17  20
ENDBRANCH   9  13
BRANCH   1  23
ATOM     22  C   LIG    1        5.878  -6.200  -3.025  0.00  0.00    -0.080 C 
ATOM     23  C   LIG    1        5.021  -6.459  -2.041  0.00  0.00    -0.180 C 
ATOM     24  C   LIG    1        5.353  -7.505  -1.008  0.00  0.00    +0.100 C 
ATOM     25  C   LIG    1        5.596  -5.082  -3.995  0.00  0.00    +0.080 C 
BRANCH  22  27
ATOM     26  C   LIG    1        6.881  -8.163  -4.161  0.00  0.00    +0.030 C 
ATOM     27  C   LIG    1        7.131  -7.025  -3.169  0.00  0.00    +0.060 C 
ENDBRANCH  22  27
ENDBRANCH   1  23
TORSDOF 4
