REMARK  Name = ZINCpe000000X5LD.0
REMARK                            x       y       z     vdW  Elec       q    Type
REMARK                         _______ _______ _______ _____ _____    ______ ____
ROOT
ATOM      1  N   LIG    1        1.603   6.688   3.195  0.00  0.00    -1.120 NA
ATOM      2  H   LIG    1        0.967   7.275   3.633  0.00  0.00    +0.420 HD
ENDROOT
BRANCH   1   3
ATOM      3  S   LIG    1        3.063   6.368   3.908  0.00  0.00    +2.720 S 
ATOM      4  O   LIG    1        3.230   4.958   3.865  0.00  0.00    -0.960 OA
ATOM      5  O   LIG    1        3.093   7.119   5.114  0.00  0.00    -0.960 OA
BRANCH   3   6
ATOM      6  C   LIG    1        4.311   7.049   2.867  0.00  0.00    -0.750 A 
ATOM      7  C   LIG    1        4.940   6.409   1.852  0.00  0.00    +0.330 A 
ATOM      8  N   LIG    1        5.832   7.257   1.285  0.00  0.00    -0.400 N 
ATOM      9  C   LIG    1        5.781   8.460   1.952  0.00  0.00    -0.060 A 
ATOM     10  C   LIG    1        6.708   6.943   0.153  0.00  0.00    +0.340 C 
ATOM     11  C   LIG    1        4.833   8.344   2.946  0.00  0.00    +0.110 A 
BRANCH   9  12
ATOM     12  C   LIG    1        6.589   9.648   1.659  0.00  0.00    +0.600 C 
ATOM     13  O   LIG    1        7.470   9.594   0.820  0.00  0.00    -0.550 OA
ATOM     14  N   LIG    1        6.357  10.801   2.318  0.00  0.00    -0.840 N 
ATOM     15  H   LIG    1        6.840  11.605   2.074  0.00  0.00    +0.410 HD
ATOM     16  H   LIG    1        5.706  10.825   3.036  0.00  0.00    +0.410 HD
ENDBRANCH   9  12
ENDBRANCH   3   6
ENDBRANCH   1   3
BRANCH   1  17
ATOM     17  C   LIG    1        1.271   6.084   1.902  0.00  0.00    +0.260 C 
BRANCH  17  18
ATOM     18  C   LIG    1       -0.231   6.222   1.645  0.00  0.00    +0.190 C 
BRANCH  18  28
ATOM     19  C   LIG    1       -2.434   7.211   0.648  0.00  0.00    +0.040 C 
ATOM     20  C   LIG    1       -1.954   5.934  -0.044  0.00  0.00    +0.180 C 
ATOM     21  C   LIG    1       -2.739   4.705   0.467  0.00  0.00    +0.060 C 
ATOM     22  C   LIG    1       -1.686   3.614   0.480  0.00  0.00    -0.140 A 
ATOM     23  C   LIG    1       -1.792   2.241   0.545  0.00  0.00    +0.030 A 
ATOM     24  C   LIG    1       -0.652   1.457   0.538  0.00  0.00    +0.000 A 
ATOM     25  C   LIG    1        0.593   2.052   0.453  0.00  0.00    +0.030 A 
ATOM     26  C   LIG    1        0.704   3.425   0.385  0.00  0.00    +0.010 A 
ATOM     27  C   LIG    1       -0.439   4.222   0.399  0.00  0.00    +0.080 A 
ATOM     28  N   LIG    1       -0.564   5.616   0.349  0.00  0.00    -0.490 N 
ENDBRANCH  18  28
ENDBRANCH  17  18
ENDBRANCH   1  17
TORSDOF 6
