REMARK  Name = ZINCah0000002lZB.0
REMARK                            x       y       z     vdW  Elec       q    Type
REMARK                         _______ _______ _______ _____ _____    ______ ____
ROOT
ATOM      1  C   LIG    1        0.000   1.080   2.488  0.00  0.00    -0.010 A 
ATOM      2  N   LIG    1        0.196  -0.162   2.795  0.00  0.00    -0.260 NA
ATOM      3  N   LIG    1        0.836  -0.384   3.862  0.00  0.00    -0.260 NA
ATOM      4  C   LIG    1        1.215   0.655   4.535  0.00  0.00    -0.020 A 
ATOM      5  S   LIG    1        0.701   2.061   3.704  0.00  0.00    +0.190 S 
ENDROOT
BRANCH   1   7
ATOM      6  C   LIG    1       -0.013   1.086   0.008  0.00  0.00    +0.060 C 
ATOM      7  C   LIG    1       -0.729   1.579   1.267  0.00  0.00    +0.080 C 
ATOM      8  C   LIG    1       -2.164   1.050   1.278  0.00  0.00    +0.060 C 
ENDBRANCH   1   7
BRANCH   4   9
ATOM      9  C   LIG    1        1.982   0.631   5.832  0.00  0.00    +0.310 C 
BRANCH   9  10
ATOM     10  N   LIG    1        3.423   0.643   5.549  0.00  0.00    -0.840 NA
ATOM     11  H   LIG    1        3.680  -0.125   4.947  0.00  0.00    +0.350 HD
ATOM     12  H   LIG    1        3.960   0.627   6.403  0.00  0.00    +0.360 HD
ENDBRANCH   9  10
ENDBRANCH   4   9
TORSDOF 3
