REMARK  Name = ZINCpe00000R901e.0
REMARK                            x       y       z     vdW  Elec       q    Type
REMARK                         _______ _______ _______ _____ _____    ______ ____
ROOT
ATOM      1  C   LIG    1        0.004   1.047   0.048  0.00  0.00    +0.360 C 
ATOM      2  C   LIG    1       -0.888   2.120  -0.586  0.00  0.00    -0.330 C 
ATOM      3  S   LIG    1       -2.611   1.548  -0.556  0.00  0.00    +2.420 S 
ATOM      4  C   LIG    1       -2.845   1.206   1.213  0.00  0.00    -0.340 C 
ATOM      5  C   LIG    1       -1.767   0.220   1.675  0.00  0.00    +0.320 C 
ATOM      6  O   LIG    1       -3.457   2.628  -0.925  0.00  0.00    -0.930 OA
ATOM      7  O   LIG    1       -2.696   0.323  -1.271  0.00  0.00    -0.930 OA
ATOM      8  N   LIG    1       -0.443   0.788   1.418  0.00  0.00    -0.640 N 
ATOM      9  C   LIG    1        0.373   1.075   2.452  0.00  0.00    +0.710 C 
ATOM     10  N   LIG    1        0.017   0.734   3.706  0.00  0.00    -0.750 N 
ATOM     11  H   LIG    1       -0.789   0.216   3.857  0.00  0.00    +0.390 HD
ATOM     12  O   LIG    1        1.430   1.642   2.252  0.00  0.00    -0.550 OA
ENDROOT
BRANCH   1  16
ATOM     13  C   LIG    1        5.002   1.182  -0.303  0.00  0.00    +0.350 C 
ATOM     14  N   LIG    1        3.608   1.580  -0.087  0.00  0.00    -0.380 N 
ATOM     15  C   LIG    1        2.526   0.784  -0.214  0.00  0.00    +0.230 A 
ATOM     16  C   LIG    1        1.432   1.528   0.068  0.00  0.00    -0.210 A 
ATOM     17  C   LIG    1        1.860   2.821   0.386  0.00  0.00    +0.290 A 
ATOM     18  N   LIG    1        3.165   2.853   0.294  0.00  0.00    -0.300 NA
ENDBRANCH   1  16
BRANCH  10  19
ATOM     19  C   LIG    1        0.847   1.146   4.841  0.00  0.00    +0.280 C 
BRANCH  19  20
ATOM     20  C   LIG    1        0.224   0.634   6.141  0.00  0.00    +0.040 C 
BRANCH  20  21
ATOM     21  C   LIG    1        1.091   1.064   7.326  0.00  0.00    +0.150 C 
ATOM     22  C   LIG    1        0.405   0.660   8.633  0.00  0.00    -0.010 C 
ATOM     23  C   LIG    1        1.307   1.040   9.812  0.00  0.00    +0.010 C 
ATOM     24  C   LIG    1        2.669   0.363   9.637  0.00  0.00    -0.020 C 
ATOM     25  C   LIG    1        3.268   0.778   8.291  0.00  0.00    +0.200 C 
ATOM     26  O   LIG    1        2.366   0.424   7.241  0.00  0.00    -0.380 OA
ENDBRANCH  20  21
ENDBRANCH  19  20
ENDBRANCH  10  19
TORSDOF 4
