REMARK  Name = ZINCqH0000005ja5.0
REMARK                            x       y       z     vdW  Elec       q    Type
REMARK                         _______ _______ _______ _____ _____    ______ ____
ROOT
ATOM      1  C   LIG    1       -5.092  -0.605  -1.348  0.00  0.00    +0.210 A 
ATOM      2  N   LIG    1       -5.290  -1.792  -0.832  0.00  0.00    -0.470 NA
ATOM      3  C   LIG    1       -5.880  -2.519  -1.807  0.00  0.00    +0.200 A 
ATOM      4  N   LIG    1       -5.998  -1.740  -2.851  0.00  0.00    -0.360 NA
ATOM      5  O   LIG    1       -5.550  -0.641  -2.603  0.00  0.00    +0.100 OA
ENDROOT
BRANCH   3   6
ATOM      6  C   LIG    1       -6.309  -3.937  -1.712  0.00  0.00    +0.030 A 
ATOM      7  C   LIG    1       -6.115  -4.648  -0.531  0.00  0.00    +0.080 A 
ATOM      8  C   LIG    1       -6.521  -5.965  -0.447  0.00  0.00    +0.110 A 
ATOM      9  C   LIG    1       -7.109  -6.581  -1.536  0.00  0.00    -0.030 A 
ATOM     10  C   LIG    1       -7.300  -5.881  -2.714  0.00  0.00    +0.110 A 
ATOM     11  C   LIG    1       -6.903  -4.562  -2.807  0.00  0.00    +0.080 A 
BRANCH   9  12
ATOM     12  N   LIG    1       -7.536  -7.995  -1.442  0.00  0.00    +0.020 N 
ATOM     13  O   LIG    1       -7.369  -8.614  -0.407  0.00  0.00    -0.150 OA
ATOM     14  O   LIG    1       -8.055  -8.540  -2.401  0.00  0.00    -0.150 OA
ENDBRANCH   9  12
ENDBRANCH   3   6
BRANCH   1  15
ATOM     15  C   LIG    1       -4.460   0.577  -0.659  0.00  0.00    +0.350 C 
BRANCH  15  17
ATOM     16  C   LIG    1       -2.394  -0.606  -0.219  0.00  0.00    +0.200 C 
ATOM     17  N   LIG    1       -3.008   0.554  -0.880  0.00  0.00    -0.520 NA
BRANCH  17  18
ATOM     18  C   LIG    1       -2.387   1.807  -0.430  0.00  0.00    +0.230 C 
ATOM     19  C   LIG    1       -0.928   1.890  -0.927  0.00  0.00    +0.060 C 
ATOM     20  C   LIG    1       -0.140   1.285   0.253  0.00  0.00    +0.070 C 
ATOM     21  C   LIG    1       -0.999   1.533   1.475  0.00  0.00    -0.080 A 
ATOM     22  C   LIG    1       -0.680   1.500   2.820  0.00  0.00    +0.010 A 
ATOM     23  C   LIG    1       -1.645   1.765   3.771  0.00  0.00    +0.020 A 
ATOM     24  C   LIG    1       -2.936   2.065   3.379  0.00  0.00    +0.000 A 
ATOM     25  C   LIG    1       -3.258   2.099   2.036  0.00  0.00    +0.020 A 
ATOM     26  C   LIG    1       -2.292   1.833   1.081  0.00  0.00    -0.140 A 
ENDBRANCH  17  18
ENDBRANCH  15  17
ENDBRANCH   1  15
TORSDOF 5
