REMARK  Name = ZINCpe000000YyKs.2
REMARK                            x       y       z     vdW  Elec       q    Type
REMARK                         _______ _______ _______ _____ _____    ______ ____
ROOT
ATOM      1  C   LIG    1        0.323   3.311  -0.636  0.00  0.00    +0.120 C 
ATOM      2  C   LIG    1       -0.010   1.858  -0.982  0.00  0.00    +0.070 C 
ATOM      3  C   LIG    1        0.344   0.960   0.207  0.00  0.00    +0.300 C 
ATOM      4  N   LIG    1       -0.338   1.467   1.406  0.00  0.00    -0.610 N 
ATOM      5  C   LIG    1       -0.161   2.878   1.776  0.00  0.00    +0.280 C 
ATOM      6  C   LIG    1       -1.114   0.654   2.150  0.00  0.00    +0.520 C 
ATOM      7  O   LIG    1       -1.328  -0.482   1.783  0.00  0.00    -0.510 OA
ATOM      8  C   LIG    1       -0.510   3.754   0.569  0.00  0.00    +0.020 C 
ENDROOT
BRANCH   6   9
ATOM      9  C   LIG    1       -1.715   1.156   3.437  0.00  0.00    +0.130 C 
ATOM     10  C   LIG    1       -3.061   1.824   3.145  0.00  0.00    +0.040 C 
ATOM     11  C   LIG    1       -3.677   2.315   4.458  0.00  0.00    +0.010 C 
ATOM     12  C   LIG    1       -3.831   1.130   5.415  0.00  0.00    +0.020 C 
ATOM     13  C   LIG    1       -2.463   0.482   5.641  0.00  0.00    +0.170 C 
ATOM     14  N   LIG    1       -1.916   0.028   4.356  0.00  0.00    -0.510 NA
BRANCH  14  15
ATOM     15  C   LIG    1       -0.668  -0.722   4.551  0.00  0.00    +0.230 C 
BRANCH  15  16
ATOM     16  C   LIG    1       -0.890  -1.812   5.567  0.00  0.00    -0.080 A 
ATOM     17  C   LIG    1       -0.671  -1.561   6.909  0.00  0.00    +0.000 A 
ATOM     18  C   LIG    1       -0.879  -2.559   7.842  0.00  0.00    +0.000 A 
ATOM     19  C   LIG    1       -1.297  -3.812   7.432  0.00  0.00    +0.000 A 
ATOM     20  C   LIG    1       -1.511  -4.064   6.090  0.00  0.00    +0.000 A 
ATOM     21  C   LIG    1       -1.308  -3.064   5.158  0.00  0.00    +0.040 A 
ENDBRANCH  15  16
ENDBRANCH  14  15
ENDBRANCH   6   9
BRANCH   1  25
ATOM     22  N   LIG    1        0.647   5.370  -1.969  0.00  0.00    -0.850 N 
ATOM     23  H   LIG    1        0.443   5.937  -2.729  0.00  0.00    +0.410 HD
ATOM     24  H   LIG    1        1.310   5.649  -1.319  0.00  0.00    +0.400 HD
ATOM     25  C   LIG    1        0.007   4.193  -1.816  0.00  0.00    +0.500 C 
ATOM     26  O   LIG    1       -0.823   3.844  -2.629  0.00  0.00    -0.530 OA
ENDBRANCH   1  25
BRANCH   1  27
ATOM     27  O   LIG    1        1.712   3.418  -0.320  0.00  0.00    -0.540 OA
ATOM     28  H   LIG    1        1.996   4.314  -0.090  0.00  0.00    +0.380 HD
ENDBRANCH   1  27
TORSDOF 5
