REMARK  Name = ZINCrH000004my3J.0
REMARK                            x       y       z     vdW  Elec       q    Type
REMARK                         _______ _______ _______ _____ _____    ______ ____
ROOT
ATOM      1  C   LIG    1       -1.994   7.974   1.140  0.00  0.00    -0.060 C 
ATOM      2  C   LIG    1       -0.987   7.507   0.441  0.00  0.00    -0.050 C 
ATOM      3  C   LIG    1       -1.089   6.309  -0.455  0.00  0.00    +0.320 C 
ATOM      4  N   LIG    1       -2.370   5.629  -0.215  0.00  0.00    -0.600 N 
ATOM      5  C   LIG    1       -3.568   6.474  -0.072  0.00  0.00    +0.290 C 
ATOM      6  C   LIG    1       -2.444   4.286  -0.125  0.00  0.00    +0.590 C 
ATOM      7  O   LIG    1       -3.527   3.744  -0.011  0.00  0.00    -0.520 OA
ATOM      8  C   LIG    1       -3.368   7.372   1.151  0.00  0.00    +0.070 C 
ENDROOT
BRANCH   6   9
ATOM      9  C   LIG    1       -1.215   3.476  -0.164  0.00  0.00    -0.250 A 
ATOM     10  C   LIG    1       -0.583   3.179  -1.364  0.00  0.00    +0.190 A 
ATOM     11  C   LIG    1        0.581   2.368  -1.319  0.00  0.00    -0.160 A 
ATOM     12  C   LIG    1        1.373   2.195  -2.462  0.00  0.00    +0.090 A 
ATOM     13  C   LIG    1        2.509   1.440  -2.393  0.00  0.00    +0.000 A 
ATOM     14  C   LIG    1        2.881   0.833  -1.201  0.00  0.00    +0.090 A 
ATOM     15  C   LIG    1        2.103   0.970  -0.070  0.00  0.00    +0.020 A 
ATOM     16  C   LIG    1        0.940   1.726  -0.118  0.00  0.00    +0.140 A 
ATOM     17  O   LIG    1        0.145   1.826   0.974  0.00  0.00    -0.270 OA
ATOM     18  C   LIG    1       -0.606   2.946   1.069  0.00  0.00    +0.530 A 
ATOM     19  O   LIG    1       -0.772   3.500   2.140  0.00  0.00    -0.430 OA
ENDBRANCH   6   9
BRANCH   1  23
ATOM     20  C   LIG    1       -1.320  11.420   3.532  0.00  0.00    +0.130 A 
ATOM     21  C   LIG    1       -1.232  11.509   2.150  0.00  0.00    -0.020 A 
ATOM     22  C   LIG    1       -1.450  10.393   1.370  0.00  0.00    +0.060 A 
ATOM     23  C   LIG    1       -1.760   9.172   1.972  0.00  0.00    -0.100 A 
ATOM     24  C   LIG    1       -1.853   9.088   3.362  0.00  0.00    +0.070 A 
ATOM     25  C   LIG    1       -1.629  10.207   4.135  0.00  0.00    -0.080 A 
BRANCH  20  27
ATOM     26  C   LIG    1       -1.212  12.359   5.713  0.00  0.00    +0.250 C 
ATOM     27  O   LIG    1       -1.105  12.521   4.297  0.00  0.00    -0.320 OA
ENDBRANCH  20  27
ENDBRANCH   1  23
TORSDOF 3
