REMARK  Name = ZINCnE000001RPVf.0
REMARK                            x       y       z     vdW  Elec       q    Type
REMARK                         _______ _______ _______ _____ _____    ______ ____
ROOT
ATOM      1  N   LIG    1       -0.072   5.617  -0.525  0.00  0.00    -0.690 N 
ATOM      2  H   LIG    1        0.763   6.109  -0.474  0.00  0.00    +0.410 HD
ATOM      3  C   LIG    1       -1.246   6.271  -0.426  0.00  0.00    +0.690 C 
ATOM      4  N   LIG    1       -1.264   7.617  -0.356  0.00  0.00    -0.620 N 
ATOM      5  C   LIG    1       -0.024   8.391  -0.505  0.00  0.00    +0.250 C 
ATOM      6  C   LIG    1       -0.225   9.438  -1.605  0.00  0.00    +0.010 C 
ATOM      7  C   LIG    1       -1.459  10.284  -1.280  0.00  0.00    +0.000 C 
ATOM      8  C   LIG    1       -2.697   9.386  -1.234  0.00  0.00    +0.020 C 
ATOM      9  C   LIG    1       -2.525   8.339  -0.136  0.00  0.00    +0.230 C 
ATOM     10  O   LIG    1       -2.289   5.647  -0.399  0.00  0.00    -0.520 OA
ENDROOT
BRANCH   1  14
ATOM     11  C   LIG    1       -0.025   1.483  -1.050  0.00  0.00    -0.050 A 
ATOM     12  C   LIG    1        0.940   2.280  -1.672  0.00  0.00    +0.100 A 
ATOM     13  C   LIG    1        0.921   3.645  -1.497  0.00  0.00    -0.010 A 
ATOM     14  C   LIG    1       -0.057   4.233  -0.701  0.00  0.00    +0.220 A 
ATOM     15  C   LIG    1       -1.020   3.445  -0.080  0.00  0.00    +0.060 A 
ATOM     16  C   LIG    1       -1.011   2.078  -0.255  0.00  0.00    +0.030 A 
ATOM     17 CL   LIG    1       -2.217   1.095   0.515  0.00  0.00    -0.040 Cl
BRANCH  11  19
ATOM     18  N   LIG    1        0.004  -1.065  -1.374  0.00  0.00    -0.410 NA
ATOM     19  C   LIG    1       -0.009   0.062  -1.231  0.00  0.00    +0.260 C 
ENDBRANCH  11  19
ENDBRANCH   1  14
BRANCH   9  20
ATOM     20  C   LIG    1       -3.694   7.353  -0.181  0.00  0.00    +0.080 C 
BRANCH  20  21
ATOM     21  C   LIG    1       -5.003   8.103   0.078  0.00  0.00    -0.090 C 
BRANCH  21  22
ATOM     22  C   LIG    1       -6.139   7.116   0.159  0.00  0.00    +0.490 C 
ATOM     23  O   LIG    1       -7.275   7.510   0.362  0.00  0.00    -0.710 OA
ATOM     24  O   LIG    1       -5.922   5.924   0.023  0.00  0.00    -0.690 OA
ENDBRANCH  21  22
ENDBRANCH  20  21
ENDBRANCH   9  20
TORSDOF 5
