REMARK  Name = ZINCpk000000mw7e.0
REMARK                            x       y       z     vdW  Elec       q    Type
REMARK                         _______ _______ _______ _____ _____    ______ ____
ROOT
ATOM      1  C   LIG    1        1.178   2.086  -0.014  0.00  0.00    -0.160 A 
ATOM      2  C   LIG    1        0.012   1.383  -0.333  0.00  0.00    +0.070 A 
ATOM      3  C   LIG    1        0.024   0.007  -0.355  0.00  0.00    -0.020 A 
ATOM      4  C   LIG    1        1.195  -0.685  -0.059  0.00  0.00    +0.140 A 
ATOM      5  C   LIG    1        2.357   0.012   0.259  0.00  0.00    -0.050 A 
ATOM      6  C   LIG    1        2.352   1.388   0.282  0.00  0.00    +0.100 A 
ENDROOT
BRANCH   1  12
ATOM      7  N   LIG    1       -1.476   5.570   2.369  0.00  0.00    -0.540 NA
ATOM      8  C   LIG    1       -0.280   6.234   1.834  0.00  0.00    +0.170 C 
ATOM      9  C   LIG    1        0.022   5.686   0.435  0.00  0.00    +0.300 C 
ATOM     10  N   LIG    1        0.108   4.220   0.516  0.00  0.00    -0.610 N 
ATOM     11  C   LIG    1       -0.996   3.493   1.159  0.00  0.00    +0.280 C 
ATOM     12  C   LIG    1        1.169   3.561   0.009  0.00  0.00    +0.570 C 
ATOM     13  O   LIG    1        2.118   4.182  -0.428  0.00  0.00    -0.540 OA
ATOM     14  C   LIG    1       -1.256   4.127   2.535  0.00  0.00    +0.160 C 
BRANCH   7  15
ATOM     15  C   LIG    1       -1.900   6.187   3.633  0.00  0.00    +0.180 C 
BRANCH  15  16
ATOM     16  C   LIG    1       -3.274   5.644   4.030  0.00  0.00    +0.180 C 
BRANCH  16  18
ATOM     17  C   LIG    1       -4.037   6.754   6.307  0.00  0.00    +0.020 C 
ATOM     18  C   LIG    1       -3.699   6.262   5.297  0.00  0.00    -0.190 C 
ENDBRANCH  16  18
ENDBRANCH  15  16
ENDBRANCH   7  15
ENDBRANCH   1  12
BRANCH   4  19
ATOM     19  N   LIG    1        1.203  -2.075  -0.082  0.00  0.00    -0.490 N 
ATOM     20  C   LIG    1        0.749  -2.583  -1.383  0.00  0.00    +0.200 C 
ATOM     21  C   LIG    1        0.632  -4.108  -1.324  0.00  0.00    +0.010 C 
ATOM     22  C   LIG    1        1.997  -4.706  -0.970  0.00  0.00    +0.150 C 
ATOM     23  C   LIG    1        2.469  -4.124   0.366  0.00  0.00    +0.050 C 
ATOM     24  C   LIG    1        2.533  -2.599   0.258  0.00  0.00    +0.190 C 
BRANCH  22  25
ATOM     25  O   LIG    1        1.882  -6.126  -0.858  0.00  0.00    -0.560 OA
ATOM     26  H   LIG    1        1.587  -6.562  -1.669  0.00  0.00    +0.380 HD
ENDBRANCH  22  25
ENDBRANCH   4  19
TORSDOF 6
