REMARK  Name = ZINCkj000005fJ3P.0
REMARK                            x       y       z     vdW  Elec       q    Type
REMARK                         _______ _______ _______ _____ _____    ______ ____
ROOT
ATOM      1  N   LIG    1       -2.580   3.316   0.066  0.00  0.00    -0.350 N 
ATOM      2  C   LIG    1       -3.258   2.133   0.095  0.00  0.00    +0.680 C 
ATOM      3  N   LIG    1       -2.410   1.139   0.066  0.00  0.00    -0.520 NA
ATOM      4  C   LIG    1       -1.147   1.612   0.016  0.00  0.00    +0.630 C 
ATOM      5  N   LIG    1       -0.011   0.966   0.007  0.00  0.00    -0.620 NA
ATOM      6  C   LIG    1        1.244   1.726  -0.001  0.00  0.00    +0.230 C 
ATOM      7  C   LIG    1        1.071   3.047  -0.750  0.00  0.00    +0.080 C 
ATOM      8  C   LIG    1       -0.053   3.868  -0.096  0.00  0.00    +0.350 C 
ATOM      9  C   LIG    1        2.331   0.896  -0.687  0.00  0.00    +0.090 C 
ATOM     10  H   LIG    1        0.002  -0.004   0.002  0.00  0.00    +0.450 HD
ATOM     11  N   LIG    1       -1.226   2.998  -0.004  0.00  0.00    -0.400 NA
ENDROOT
BRANCH   1  12
ATOM     12  C   LIG    1       -3.162   4.660   0.103  0.00  0.00    +0.400 C 
BRANCH  12  14
ATOM     13  N   LIG    1       -4.107   6.286  -1.503  0.00  0.00    -0.600 N 
ATOM     14  C   LIG    1       -3.548   5.078  -1.292  0.00  0.00    +0.490 C 
ATOM     15  O   LIG    1       -3.355   4.328  -2.226  0.00  0.00    -0.520 OA
BRANCH  13  16
ATOM     16  C   LIG    1       -4.340   7.192  -0.376  0.00  0.00    +0.270 C 
BRANCH  16  18
ATOM     17  C   LIG    1       -3.354   9.027   1.004  0.00  0.00    +0.020 C 
ATOM     18  C   LIG    1       -3.111   8.081  -0.173  0.00  0.00    -0.010 C 
ENDBRANCH  16  18
ENDBRANCH  13  16
BRANCH  13  19
ATOM     19  C   LIG    1       -4.481   6.693  -2.860  0.00  0.00    +0.290 C 
BRANCH  19  20
ATOM     20  C   LIG    1       -5.922   6.262  -3.142  0.00  0.00    +0.000 C 
ATOM     21  C   LIG    1       -6.313   6.687  -4.559  0.00  0.00    +0.030 C 
ENDBRANCH  19  20
ENDBRANCH  13  19
ENDBRANCH  12  14
ENDBRANCH   1  12
TORSDOF 6
