REMARK  Name = ZINCqH0000003bLE.0
REMARK                            x       y       z     vdW  Elec       q    Type
REMARK                         _______ _______ _______ _____ _____    ______ ____
ROOT
ATOM      1  N   LIG    1        5.395   0.785  -2.510  0.00  0.00    -0.730 N 
ATOM      2  H   LIG    1        5.239   1.379  -3.260  0.00  0.00    +0.400 HD
ATOM      3  C   LIG    1        4.446   0.628  -1.566  0.00  0.00    +0.510 C 
ATOM      4  O   LIG    1        4.602  -0.182  -0.677  0.00  0.00    -0.510 OA
ENDROOT
BRANCH   1   5
ATOM      5  C   LIG    1        6.662   0.057  -2.402  0.00  0.00    +0.160 C 
ATOM      6  C   LIG    1        7.361   0.408  -1.077  0.00  0.00    +0.050 C 
ATOM      7  C   LIG    1        8.717   1.043  -1.448  0.00  0.00    +0.010 C 
ATOM      8  C   LIG    1        8.502   1.584  -2.883  0.00  0.00    +0.030 C 
ATOM      9  C   LIG    1        7.618   0.491  -3.532  0.00  0.00    +0.050 C 
BRANCH   5  12
ATOM     10  N   LIG    1        5.427  -1.905  -3.264  0.00  0.00    -0.730 N 
ATOM     11  H   LIG    1        4.833  -1.292  -3.723  0.00  0.00    +0.400 HD
ATOM     12  C   LIG    1        6.412  -1.427  -2.478  0.00  0.00    +0.520 C 
ATOM     13  O   LIG    1        7.098  -2.191  -1.832  0.00  0.00    -0.530 OA
BRANCH  10  15
ATOM     14  C   LIG    1        4.075  -3.624  -4.359  0.00  0.00    +0.040 C 
ATOM     15  C   LIG    1        5.255  -3.351  -3.424  0.00  0.00    +0.250 C 
ENDBRANCH  10  15
ENDBRANCH   5  12
ENDBRANCH   1   5
BRANCH   3  16
ATOM     16  C   LIG    1        3.190   1.461  -1.614  0.00  0.00    +0.070 C 
BRANCH  16  17
ATOM     17  C   LIG    1        2.286   1.089  -0.437  0.00  0.00    +0.060 C 
ATOM     18  C   LIG    1        2.974   1.470   0.875  0.00  0.00    +0.040 C 
BRANCH  17  19
ATOM     19  C   LIG    1        0.979   1.831  -0.554  0.00  0.00    -0.080 A 
ATOM     20  C   LIG    1        0.968   3.213  -0.561  0.00  0.00    +0.050 A 
ATOM     21  C   LIG    1       -0.231   3.893  -0.667  0.00  0.00    +0.020 A 
ATOM     22  C   LIG    1       -1.417   3.192  -0.768  0.00  0.00    +0.070 A 
ATOM     23  C   LIG    1       -1.405   1.809  -0.766  0.00  0.00    -0.180 A 
ATOM     24  C   LIG    1       -0.207   1.129  -0.654  0.00  0.00    +0.070 A 
BRANCH  23  25
ATOM     25  C   LIG    1       -2.698   1.044  -0.882  0.00  0.00    +0.510 C 
ATOM     26  F   LIG    1       -2.461  -0.180  -1.518  0.00  0.00    -0.180 F 
ATOM     27  F   LIG    1       -3.616   1.788  -1.631  0.00  0.00    -0.180 F 
ATOM     28  F   LIG    1       -3.219   0.812   0.396  0.00  0.00    -0.180 F 
ENDBRANCH  23  25
ENDBRANCH  17  19
ENDBRANCH  16  17
ENDBRANCH   3  16
TORSDOF 7
