REMARK  Name = ZINCrH000004rTpq.0
REMARK                            x       y       z     vdW  Elec       q    Type
REMARK                         _______ _______ _______ _____ _____    ______ ____
ROOT
ATOM      1  N   LIG    1       -0.595   1.682   1.220  0.00  0.00    -0.740 N 
ATOM      2  H   LIG    1       -1.454   2.122   1.127  0.00  0.00    +0.400 HD
ATOM      3  C   LIG    1       -0.127   1.369   2.444  0.00  0.00    +0.700 C 
ATOM      4  N   LIG    1       -0.853   1.667   3.540  0.00  0.00    -0.680 N 
ATOM      5  H   LIG    1       -1.675   2.175   3.454  0.00  0.00    +0.410 HD
ATOM      6  O   LIG    1        0.950   0.817   2.561  0.00  0.00    -0.570 OA
ENDROOT
BRANCH   4   7
ATOM      7  C   LIG    1       -0.421   1.244   4.802  0.00  0.00    +0.210 A 
ATOM      8  C   LIG    1       -0.673   2.026   5.922  0.00  0.00    -0.060 A 
ATOM      9  C   LIG    1       -0.246   1.608   7.168  0.00  0.00    +0.070 A 
ATOM     10  C   LIG    1        0.432   0.412   7.303  0.00  0.00    -0.100 A 
ATOM     11  C   LIG    1        0.686  -0.374   6.188  0.00  0.00    +0.150 A 
ATOM     12  C   LIG    1        0.255   0.039   4.937  0.00  0.00    -0.010 A 
BRANCH  11  13
ATOM     13  O   LIG    1        1.353  -1.550   6.323  0.00  0.00    -0.300 OA
BRANCH  13  14
ATOM     14  C   LIG    1        1.764  -1.916   7.642  0.00  0.00    +0.210 C 
BRANCH  14  15
ATOM     15  C   LIG    1        2.494  -3.259   7.595  0.00  0.00    +0.160 C 
ATOM     16  C   LIG    1        3.043  -3.606   8.992  0.00  0.00    +0.010 C 
ATOM     17  C   LIG    1        2.382  -4.963   9.334  0.00  0.00    +0.000 C 
ATOM     18  C   LIG    1        1.985  -5.493   7.932  0.00  0.00    +0.200 C 
ATOM     19  O   LIG    1        1.577  -4.301   7.222  0.00  0.00    -0.360 OA
ENDBRANCH  14  15
ENDBRANCH  13  14
ENDBRANCH  11  13
ENDBRANCH   4   7
BRANCH   1  20
ATOM     20  C   LIG    1        0.194   1.358   0.029  0.00  0.00    +0.310 C 
BRANCH  20  21
ATOM     21  C   LIG    1       -0.558   1.816  -1.222  0.00  0.00    +0.200 C 
BRANCH  21  22
ATOM     22  O   LIG    1       -0.667   3.241  -1.217  0.00  0.00    -0.310 OA
BRANCH  22  28
ATOM     23  C   LIG    1       -2.265   7.271  -3.458  0.00  0.00    +0.090 C 
ATOM     24  C   LIG    1       -2.112   5.774  -3.393  0.00  0.00    -0.050 A 
ATOM     25  C   LIG    1       -2.628   4.982  -4.402  0.00  0.00    -0.040 A 
ATOM     26  C   LIG    1       -2.488   3.607  -4.345  0.00  0.00    +0.050 A 
ATOM     27  C   LIG    1       -1.827   3.022  -3.283  0.00  0.00    -0.090 A 
ATOM     28  C   LIG    1       -1.313   3.815  -2.266  0.00  0.00    +0.130 A 
ATOM     29  C   LIG    1       -1.454   5.193  -2.325  0.00  0.00    -0.020 A 
ENDBRANCH  22  28
ENDBRANCH  21  22
ENDBRANCH  20  21
ENDBRANCH   1  20
TORSDOF 8
