REMARK  Name = ZINCrH00000tj170.0
REMARK                            x       y       z     vdW  Elec       q    Type
REMARK                         _______ _______ _______ _____ _____    ______ ____
ROOT
ATOM      1  C   LIG    1       -3.665   1.409   0.452  0.00  0.00    +0.480 C 
ATOM      2  O   LIG    1       -3.772   2.610   0.527  0.00  0.00    -0.480 OA
ENDROOT
BRANCH   1   3
ATOM      3  C   LIG    1       -4.863   0.567   0.097  0.00  0.00    -0.030 C 
ATOM      4  C   LIG    1       -4.571  -0.261  -1.172  0.00  0.00    +0.050 C 
ATOM      5  C   LIG    1       -5.916  -0.270  -1.938  0.00  0.00    +0.010 C 
ATOM      6  C   LIG    1       -6.458   1.161  -1.694  0.00  0.00    +0.010 C 
ATOM      7  C   LIG    1       -6.063   1.470  -0.235  0.00  0.00    +0.050 C 
BRANCH   3   8
ATOM      8  C   LIG    1       -5.213  -0.363   1.261  0.00  0.00    +0.090 C 
BRANCH   8   9
ATOM      9  C   LIG    1       -5.428   0.455   2.509  0.00  0.00    +0.500 C 
ATOM     10  N   LIG    1       -5.641  -0.161   3.689  0.00  0.00    -0.730 N 
ATOM     11  H   LIG    1       -5.654  -1.130   3.735  0.00  0.00    +0.400 HD
ATOM     12  O   LIG    1       -5.411   1.666   2.451  0.00  0.00    -0.520 OA
BRANCH  10  13
ATOM     13  C   LIG    1       -5.850   0.633   4.902  0.00  0.00    +0.230 C 
ATOM     14  C   LIG    1       -4.495   1.008   5.507  0.00  0.00    +0.030 C 
ATOM     15  C   LIG    1       -6.653  -0.185   5.915  0.00  0.00    +0.030 C 
ENDBRANCH  10  13
ENDBRANCH   8   9
ENDBRANCH   3   8
ENDBRANCH   1   3
BRANCH   1  16
ATOM     16  O   LIG    1       -2.479   0.825   0.683  0.00  0.00    -0.330 OA
BRANCH  16  17
ATOM     17  C   LIG    1       -1.368   1.698   1.020  0.00  0.00    +0.260 C 
BRANCH  17  20
ATOM     18  N   LIG    1        1.034   1.472   1.563  0.00  0.00    -0.670 N 
ATOM     19  H   LIG    1        1.087   2.441   1.593  0.00  0.00    +0.420 HD
ATOM     20  C   LIG    1       -0.129   0.871   1.243  0.00  0.00    +0.520 C 
ATOM     21  O   LIG    1       -0.176  -0.336   1.130  0.00  0.00    -0.490 OA
BRANCH  18  25
ATOM     22  C   LIG    1        5.166   0.821   4.147  0.00  0.00    +0.100 C 
ATOM     23  C   LIG    1        4.185   0.361   3.100  0.00  0.00    -0.040 A 
ATOM     24  C   LIG    1        3.072   1.128   2.813  0.00  0.00    +0.000 A 
ATOM     25  C   LIG    1        2.165   0.700   1.852  0.00  0.00    +0.160 A 
ATOM     26  C   LIG    1        2.385  -0.491   1.175  0.00  0.00    +0.030 A 
ATOM     27  C   LIG    1        3.503  -1.251   1.462  0.00  0.00    +0.070 A 
ATOM     28  C   LIG    1        4.402  -0.826   2.423  0.00  0.00    -0.110 A 
ATOM     29 BR   LIG    1        5.929  -1.869   2.814  0.00  0.00    -0.050 Br
ENDBRANCH  18  25
ENDBRANCH  17  20
ENDBRANCH  16  17
ENDBRANCH   1  16
TORSDOF 8
