REMARK  Name = ZINCqH0000037ZmP.0
REMARK                            x       y       z     vdW  Elec       q    Type
REMARK                         _______ _______ _______ _____ _____    ______ ____
ROOT
ATOM      1  N   LIG    1        2.088   4.348   0.005  0.00  0.00    -0.650 N 
ATOM      2  H   LIG    1        2.989   3.990  -0.005  0.00  0.00    +0.410 HD
ATOM      3  C   LIG    1        1.030   3.513   0.011  0.00  0.00    +0.520 C 
ATOM      4  O   LIG    1       -0.097   3.961   0.024  0.00  0.00    -0.470 OA
ENDROOT
BRANCH   1  10
ATOM      5  N   LIG    1        2.856   6.684   0.011  0.00  0.00    -0.340 N 
ATOM      6  N   LIG    1        2.224   7.934   0.023  0.00  0.00    -0.280 NA
ATOM      7  C   LIG    1        0.929   7.743   0.033  0.00  0.00    +0.100 A 
ATOM      8  C   LIG    1        0.684   6.367   0.024  0.00  0.00    -0.080 A 
ATOM      9  C   LIG    1       -0.120   8.824   0.048  0.00  0.00    +0.160 C 
ATOM     10  C   LIG    1        1.886   5.728   0.015  0.00  0.00    +0.310 A 
BRANCH   5  15
ATOM     11  C   LIG    1        8.456   5.768  -0.046  0.00  0.00    +0.100 C 
ATOM     12  C   LIG    1        6.969   6.011  -0.031  0.00  0.00    -0.090 A 
ATOM     13  C   LIG    1        6.440   7.094  -0.708  0.00  0.00    +0.040 A 
ATOM     14  C   LIG    1        5.078   7.320  -0.696  0.00  0.00    +0.040 A 
ATOM     15  C   LIG    1        4.239   6.457  -0.004  0.00  0.00    +0.150 A 
ATOM     16  C   LIG    1        4.773   5.373   0.679  0.00  0.00    -0.020 A 
ATOM     17  C   LIG    1        6.136   5.150   0.659  0.00  0.00    +0.050 A 
ENDBRANCH   5  15
ENDBRANCH   1  10
BRANCH   3  18
ATOM     18  C   LIG    1        1.248   2.022   0.001  0.00  0.00    +0.270 C 
BRANCH  18  19
ATOM     19  O   LIG    1       -0.016   1.356   0.009  0.00  0.00    -0.280 OA
BRANCH  19  20
ATOM     20  C   LIG    1        0.002  -0.004   0.002  0.00  0.00    +0.090 A 
ATOM     21  C   LIG    1        1.211  -0.681  -0.019  0.00  0.00    +0.000 A 
ATOM     22  C   LIG    1        1.229  -2.064  -0.021  0.00  0.00    +0.030 A 
ATOM     23  C   LIG    1        0.040  -2.772  -0.014  0.00  0.00    +0.100 A 
ATOM     24  C   LIG    1       -1.170  -2.099   0.002  0.00  0.00    +0.010 A 
ATOM     25  F   LIG    1        0.060  -4.123  -0.022  0.00  0.00    -0.130 F 
ATOM     26  C   LIG    1       -1.191  -0.716   0.010  0.00  0.00    +0.110 A 
ATOM     27  F   LIG    1       -2.371  -0.058   0.024  0.00  0.00    -0.120 F 
ENDBRANCH  19  20
ENDBRANCH  18  19
ENDBRANCH   3  18
TORSDOF 5
