REMARK  Name = ZINCrD00000bS4Dx.0
REMARK                            x       y       z     vdW  Elec       q    Type
REMARK                         _______ _______ _______ _____ _____    ______ ____
ROOT
ATOM      1  C   LIG    1        3.399   2.406  -0.629  0.00  0.00    +0.240 C 
ATOM      2  C   LIG    1        2.775   3.695  -0.031  0.00  0.00    +0.030 C 
ATOM      3  C   LIG    1        1.268   3.363   0.009  0.00  0.00    +0.260 C 
ATOM      4  N   LIG    1        1.143   1.898   0.001  0.00  0.00    -0.620 N 
ATOM      5  C   LIG    1       -0.014   1.209   0.009  0.00  0.00    +0.530 C 
ATOM      6  O   LIG    1        0.002  -0.004   0.002  0.00  0.00    -0.530 OA
ATOM      7  C   LIG    1        2.495   1.309  -0.009  0.00  0.00    +0.260 C 
ENDROOT
BRANCH   1   9
ATOM      8  C   LIG    1        5.783   2.838  -0.885  0.00  0.00    +0.540 C 
ATOM      9  N   LIG    1        4.789   2.246  -0.195  0.00  0.00    -0.720 N 
ATOM     10  H   LIG    1        4.994   1.713   0.590  0.00  0.00    +0.400 HD
ATOM     11  O   LIG    1        5.527   3.504  -1.866  0.00  0.00    -0.530 OA
BRANCH   8  15
ATOM     12  C   LIG    1       10.169   4.119   0.277  0.00  0.00    +0.060 C 
ATOM     13  C   LIG    1        8.943   3.795  -0.052  0.00  0.00    -0.150 C 
ATOM     14  C   LIG    1        8.227   3.410  -1.331  0.00  0.00    +0.110 C 
ATOM     15  C   LIG    1        7.213   2.673  -0.439  0.00  0.00    -0.110 C 
ATOM     16  C   LIG    1        7.585   1.215  -0.161  0.00  0.00    +0.070 C 
ATOM     17  C   LIG    1        7.626   3.642   0.682  0.00  0.00    +0.090 C 
ENDBRANCH   8  15
ENDBRANCH   1   9
BRANCH   5  18
ATOM     18  C   LIG    1       -1.330   1.944   0.019  0.00  0.00    +0.070 C 
BRANCH  18  19
ATOM     19  C   LIG    1       -2.479   0.934   0.019  0.00  0.00    +0.100 C 
BRANCH  19  20
ATOM     20  C   LIG    1       -3.794   1.670   0.029  0.00  0.00    -0.110 A 
ATOM     21  C   LIG    1       -4.393   1.995   1.232  0.00  0.00    +0.060 A 
ATOM     22  C   LIG    1       -5.597   2.674   1.244  0.00  0.00    -0.060 A 
ATOM     23  C   LIG    1       -6.209   3.021   0.049  0.00  0.00    +0.140 A 
ATOM     24  C   LIG    1       -5.608   2.688  -1.158  0.00  0.00    -0.070 A 
ATOM     25 CL   LIG    1       -6.371   3.120  -2.656  0.00  0.00    -0.050 Cl
ATOM     26  C   LIG    1       -4.402   2.014  -1.165  0.00  0.00    +0.070 A 
BRANCH  23  27
ATOM     27  O   LIG    1       -7.395   3.684   0.059  0.00  0.00    -0.310 OA
ATOM     28  C   LIG    1       -7.955   3.993   1.337  0.00  0.00    +0.250 C 
ENDBRANCH  23  27
ENDBRANCH  19  20
ENDBRANCH  18  19
ENDBRANCH   5  18
TORSDOF 6
