REMARK  Name = ZINCrH000004rkKx.0
REMARK                            x       y       z     vdW  Elec       q    Type
REMARK                         _______ _______ _______ _____ _____    ______ ____
ROOT
ATOM      1  N   LIG    1        0.696  -0.505   1.163  0.00  0.00    -0.560 N 
ATOM      2  C   LIG    1        1.757  -1.199   0.711  0.00  0.00    +0.710 C 
ATOM      3  N   LIG    1        1.829  -1.211  -0.625  0.00  0.00    -0.560 N 
ATOM      4  C   LIG    1        0.815  -0.521  -1.183  0.00  0.00    +0.540 C 
ATOM      5  O   LIG    1        0.608  -0.353  -2.366  0.00  0.00    -0.450 OA
ATOM      6  O   LIG    1        2.560  -1.753   1.436  0.00  0.00    -0.520 OA
ATOM      7  C   LIG    1       -0.014  -0.001  -0.026  0.00  0.00    +0.230 C 
ATOM      8  C   LIG    1       -0.040   1.529  -0.028  0.00  0.00    +0.090 C 
ENDROOT
BRANCH   1  13
ATOM      9  C   LIG    1       -0.759   0.317   6.584  0.00  0.00    +0.100 C 
ATOM     10  C   LIG    1       -0.372   0.099   5.144  0.00  0.00    -0.110 A 
ATOM     11  C   LIG    1        0.754  -0.642   4.837  0.00  0.00    +0.040 A 
ATOM     12  C   LIG    1        1.111  -0.845   3.518  0.00  0.00    +0.000 A 
ATOM     13  C   LIG    1        0.337  -0.303   2.500  0.00  0.00    +0.180 A 
ATOM     14  C   LIG    1       -0.790   0.446   2.812  0.00  0.00    -0.020 A 
ATOM     15  C   LIG    1       -1.145   0.639   4.133  0.00  0.00    +0.040 A 
ENDBRANCH   1  13
BRANCH   3  16
ATOM     16  C   LIG    1        2.880  -1.891  -1.386  0.00  0.00    +0.370 C 
BRANCH  16  17
ATOM     17  C   LIG    1        2.452  -3.306  -1.678  0.00  0.00    +0.500 C 
ATOM     18  N   LIG    1        3.266  -4.126  -2.373  0.00  0.00    -0.670 N 
ATOM     19  H   LIG    1        4.098  -3.787  -2.740  0.00  0.00    +0.420 HD
ATOM     20  O   LIG    1        1.376  -3.708  -1.289  0.00  0.00    -0.500 OA
BRANCH  18  21
ATOM     21  C   LIG    1        2.912  -5.467  -2.563  0.00  0.00    +0.150 A 
ATOM     22  C   LIG    1        1.579  -5.818  -2.727  0.00  0.00    +0.050 A 
ATOM     23  C   LIG    1        1.232  -7.142  -2.915  0.00  0.00    +0.030 A 
ATOM     24  C   LIG    1        2.211  -8.117  -2.942  0.00  0.00    -0.080 A 
ATOM     25  C   LIG    1        3.541  -7.772  -2.779  0.00  0.00    +0.050 A 
ATOM     26  C   LIG    1        1.829  -9.561  -3.147  0.00  0.00    +0.110 C 
ATOM     27  C   LIG    1        3.895  -6.449  -2.595  0.00  0.00    -0.060 A 
ATOM     28 CL   LIG    1        5.564  -6.016  -2.399  0.00  0.00    -0.060 Cl
ENDBRANCH  18  21
ENDBRANCH  16  17
ENDBRANCH   3  16
TORSDOF 4
