REMARK  Name = ZINCkj000005hGHS.0
REMARK                            x       y       z     vdW  Elec       q    Type
REMARK                         _______ _______ _______ _____ _____    ______ ____
ROOT
ATOM      1  C   LIG    1       -1.585   5.058   0.153  0.00  0.00    +0.400 C 
ENDROOT
BRANCH   1   4
ATOM      2  N   LIG    1       -3.842   6.236  -2.441  0.00  0.00    -0.280 N 
ATOM      3  C   LIG    1       -3.639   5.810  -1.173  0.00  0.00    +0.210 A 
ATOM      4  C   LIG    1       -2.314   5.557  -1.068  0.00  0.00    -0.100 A 
ATOM      5  N   LIG    1       -1.777   5.843  -2.259  0.00  0.00    -0.240 NA
ATOM      6  N   LIG    1       -2.710   6.237  -3.052  0.00  0.00    -0.020 NA
BRANCH   2   7
ATOM      7  C   LIG    1       -5.130   6.629  -3.018  0.00  0.00    +0.440 C 
BRANCH   7   8
ATOM      8  C   LIG    1       -5.022   8.021  -3.586  0.00  0.00    +0.450 C 
ATOM      9  O   LIG    1       -3.977   8.623  -3.516  0.00  0.00    -0.480 OA
BRANCH   8  11
ATOM     10  C   LIG    1       -5.910   9.934  -4.695  0.00  0.00    +0.290 C 
ATOM     11  O   LIG    1       -6.087   8.592  -4.170  0.00  0.00    -0.350 OA
ENDBRANCH   8  11
ENDBRANCH   7   8
ENDBRANCH   2   7
ENDBRANCH   1   4
BRANCH   1  12
ATOM     12  N   LIG    1       -1.460   3.596   0.085  0.00  0.00    -0.510 N 
ATOM     13  H   LIG    1       -2.379   3.181   0.049  0.00  0.00    +0.430 HD
ATOM     14  H   LIG    1       -0.943   3.340  -0.743  0.00  0.00    +0.430 HD
BRANCH  12  15
ATOM     15  C   LIG    1       -0.750   3.109   1.275  0.00  0.00    +0.170 C 
ATOM     16  C   LIG    1        0.686   3.639   1.264  0.00  0.00    +0.040 C 
ATOM     17  C   LIG    1        1.426   3.132   2.504  0.00  0.00    +0.040 C 
ATOM     18  C   LIG    1        1.446   1.602   2.495  0.00  0.00    +0.020 C 
ATOM     19  C   LIG    1        0.011   1.072   2.506  0.00  0.00    +0.010 C 
ATOM     20  C   LIG    1       -0.705   1.566   3.765  0.00  0.00    +0.030 C 
ATOM     21  C   LIG    1       -0.729   1.579   1.267  0.00  0.00    -0.010 C 
ATOM     22  C   LIG    1       -0.013   1.086   0.008  0.00  0.00    +0.030 C 
ENDBRANCH  12  15
ENDBRANCH   1  12
TORSDOF 6
