REMARK  Name = ZINCnE000001OTHs.0
REMARK                            x       y       z     vdW  Elec       q    Type
REMARK                         _______ _______ _______ _____ _____    ______ ____
ROOT
ATOM      1  S   LIG    1        1.153   3.699   0.029  0.00  0.00    +2.690 S 
ATOM      2  O   LIG    1        2.489   4.165   0.164  0.00  0.00    -0.950 OA
ATOM      3  O   LIG    1        0.128   3.994   0.967  0.00  0.00    -0.960 OA
ENDROOT
BRANCH   1   4
ATOM      4  C   LIG    1        1.247   1.942  -0.069  0.00  0.00    -0.690 A 
ATOM      5  C   LIG    1        2.469   1.311   0.041  0.00  0.00    +0.170 A 
ATOM      6  C   LIG    1        2.541  -0.082  -0.037  0.00  0.00    -0.150 A 
ATOM      7  C   LIG    1        1.374  -0.826  -0.225  0.00  0.00    +0.110 A 
ATOM      8  C   LIG    1        0.159  -0.182  -0.333  0.00  0.00    -0.130 A 
ATOM      9  C   LIG    1       -1.101  -0.983  -0.536  0.00  0.00    +0.100 C 
ATOM     10  C   LIG    1        0.095   1.198  -0.255  0.00  0.00    +0.000 A 
ATOM     11  C   LIG    1       -1.235   1.895  -0.380  0.00  0.00    +0.090 C 
BRANCH   6  12
ATOM     12  C   LIG    1        3.845  -0.764   0.079  0.00  0.00    +0.520 C 
ATOM     13  O   LIG    1        4.864  -0.110   0.244  0.00  0.00    -0.680 OA
ATOM     14  O   LIG    1        3.905  -1.983   0.011  0.00  0.00    -0.680 OA
ENDBRANCH   6  12
ENDBRANCH   1   4
BRANCH   1  15
ATOM     15  N   LIG    1        0.614   4.243  -1.440  0.00  0.00    -1.060 N 
ATOM     16  H   LIG    1       -0.228   4.721  -1.500  0.00  0.00    +0.420 HD
BRANCH  15  22
ATOM     17  C   LIG    1        4.973   4.263  -3.709  0.00  0.00    +0.100 C 
ATOM     18  C   LIG    1        3.487   4.015  -3.720  0.00  0.00    -0.060 A 
ATOM     19  C   LIG    1        2.871   3.559  -4.871  0.00  0.00    -0.010 A 
ATOM     20  C   LIG    1        1.507   3.330  -4.885  0.00  0.00    -0.070 A 
ATOM     21  C   LIG    1        0.756   3.555  -3.749  0.00  0.00    -0.020 A 
ATOM     22  C   LIG    1        1.371   4.013  -2.591  0.00  0.00    +0.150 A 
ATOM     23  C   LIG    1        0.841   2.833  -6.142  0.00  0.00    +0.100 C 
ATOM     24  C   LIG    1        2.740   4.247  -2.581  0.00  0.00    +0.010 A 
ENDBRANCH  15  22
ENDBRANCH   1  15
TORSDOF 4
