REMARK  Name = ZINCqH0000038K9e.0
REMARK                            x       y       z     vdW  Elec       q    Type
REMARK                         _______ _______ _______ _____ _____    ______ ____
ROOT
ATOM      1  C   LIG    1        0.002  -0.004   0.002  0.00  0.00    +0.520 C 
ATOM      2  N   LIG    1        0.585  -0.664  -1.018  0.00  0.00    -0.610 N 
ATOM      3  C   LIG    1        1.195   0.082  -2.124  0.00  0.00    +0.320 C 
ATOM      4  C   LIG    1        0.838  -0.575  -3.431  0.00  0.00    -0.090 A 
ATOM      5  C   LIG    1       -0.041   0.030  -4.301  0.00  0.00    +0.030 A 
ATOM      6  C   LIG    1       -0.347  -0.575  -5.508  0.00  0.00    +0.010 A 
ATOM      7  C   LIG    1        0.228  -1.787  -5.844  0.00  0.00    +0.020 A 
ATOM      8  C   LIG    1        1.106  -2.405  -4.976  0.00  0.00    +0.030 A 
ATOM      9  C   LIG    1        1.413  -1.805  -3.758  0.00  0.00    -0.030 A 
ATOM     10  C   LIG    1        2.340  -2.460  -2.807  0.00  0.00    -0.040 A 
ATOM     11  C   LIG    1        3.587  -2.913  -3.229  0.00  0.00    +0.030 A 
ATOM     12  C   LIG    1        4.451  -3.491  -2.320  0.00  0.00    +0.020 A 
ATOM     13  C   LIG    1        4.081  -3.620  -0.993  0.00  0.00    +0.020 A 
ATOM     14  C   LIG    1        2.839  -3.178  -0.569  0.00  0.00    +0.030 A 
ATOM     15  C   LIG    1        1.968  -2.605  -1.470  0.00  0.00    -0.090 A 
ATOM     16  C   LIG    1        0.606  -2.131  -1.028  0.00  0.00    +0.320 C 
ATOM     17  O   LIG    1       -0.506  -0.622   0.913  0.00  0.00    -0.520 OA
ENDROOT
BRANCH   1  18
ATOM     18  C   LIG    1       -0.018   1.503   0.010  0.00  0.00    +0.140 C 
BRANCH  18  26
ATOM     19  C   LIG    1        1.342   2.127   2.804  0.00  0.00    +0.150 C 
ATOM     20  C   LIG    1       -0.124   2.265   2.483  0.00  0.00    +0.090 A 
ATOM     21  N   LIG    1       -1.056   2.663   3.311  0.00  0.00    -0.300 NA
ATOM     22  N   LIG    1       -2.280   2.653   2.629  0.00  0.00    -0.370 N 
ATOM     23  C   LIG    1       -2.048   2.241   1.366  0.00  0.00    +0.100 A 
ATOM     24  C   LIG    1       -3.080   2.085   0.279  0.00  0.00    +0.140 C 
ATOM     25  C   LIG    1       -3.581   3.029   3.188  0.00  0.00    +0.350 C 
ATOM     26  C   LIG    1       -0.724   1.989   1.250  0.00  0.00    -0.220 A 
ENDBRANCH  18  26
ENDBRANCH   1  18
TORSDOF 2
