REMARK  Name = ZINCkj000005jk0K.0
REMARK                            x       y       z     vdW  Elec       q    Type
REMARK                         _______ _______ _______ _____ _____    ______ ____
ROOT
ATOM      1  C   LIG    1        2.902   8.360  -0.244  0.00  0.00    +0.040 C 
ATOM      2  C   LIG    1        3.293   6.931  -0.625  0.00  0.00    +0.000 C 
ATOM      3  C   LIG    1        2.507   5.902   0.219  0.00  0.00    +0.290 C 
ATOM      4  N   LIG    1        3.376   4.702   0.196  0.00  0.00    -0.620 N 
ATOM      5  C   LIG    1        4.759   5.202   0.304  0.00  0.00    +0.260 C 
ATOM      6  C   LIG    1        2.983   3.417   0.092  0.00  0.00    +0.710 C 
ATOM      7  O   LIG    1        3.814   2.525   0.080  0.00  0.00    -0.620 OA
ATOM      8  C   LIG    1        4.763   6.644  -0.239  0.00  0.00    -0.030 C 
ENDROOT
BRANCH   6   9
ATOM      9  N   LIG    1        1.686   3.122   0.002  0.00  0.00    -0.700 NA
ATOM     10  C   LIG    1        1.289   1.843   0.005  0.00  0.00    +0.500 A 
ATOM     11  C   LIG    1        2.119   0.729  -0.014  0.00  0.00    -0.130 A 
ATOM     12  C   LIG    1        1.310  -0.410  -0.003  0.00  0.00    +0.200 A 
ATOM     13  C   LIG    1        1.616  -1.782  -0.014  0.00  0.00    +0.030 A 
ATOM     14  C   LIG    1        0.602  -2.693   0.001  0.00  0.00    +0.100 A 
ATOM     15  C   LIG    1       -0.727  -2.246   0.028  0.00  0.00    +0.010 A 
ATOM     16  C   LIG    1       -1.002  -0.922   0.038  0.00  0.00    +0.290 A 
ATOM     17  N   LIG    1        0.001  -0.004   0.023  0.00  0.00    -0.260 N 
ATOM     18  N   LIG    1       -0.017   1.398   0.028  0.00  0.00    -0.480 N 
ATOM     19  H   LIG    1       -0.810   1.958   0.042  0.00  0.00    +0.450 HD
ENDBRANCH   6   9
BRANCH   8  20
ATOM     20  C   LIG    1        5.667   6.746  -1.469  0.00  0.00    +0.280 C 
BRANCH  20  21
ATOM     21  N   LIG    1        7.063   6.520  -1.070  0.00  0.00    -0.640 N 
ATOM     22  H   LIG    1        7.660   6.588  -1.881  0.00  0.00    +0.440 HD
ATOM     23  H   LIG    1        7.152   5.602  -0.663  0.00  0.00    +0.440 HD
ATOM     24  H   LIG    1        7.336   7.216  -0.392  0.00  0.00    +0.440 HD
ENDBRANCH  20  21
ENDBRANCH   8  20
TORSDOF 3
