REMARK  Name = ZINCpe00000c96gY.0
REMARK                            x       y       z     vdW  Elec       q    Type
REMARK                         _______ _______ _______ _____ _____    ______ ____
ROOT
ATOM      1  O   LIG    1       -5.844  -0.421  -3.925  0.00  0.00    -0.520 OA
ATOM      2  C   LIG    1       -5.211  -0.967  -3.046  0.00  0.00    +0.510 C 
ATOM      3  N   LIG    1       -4.480  -0.231  -2.186  0.00  0.00    -0.610 N 
ATOM      4  C   LIG    1       -4.439   1.233  -2.299  0.00  0.00    +0.300 C 
ATOM      5  C   LIG    1       -2.976   1.681  -2.375  0.00  0.00    +0.050 C 
ATOM      6  C   LIG    1       -2.212   1.122  -1.172  0.00  0.00    +0.130 C 
ATOM      7  C   LIG    1       -0.757   1.595  -1.230  0.00  0.00    +0.030 C 
ATOM      8  C   LIG    1       -0.013   1.086   0.008  0.00  0.00    +0.260 C 
ATOM      9  C   LIG    1       -0.733   1.582   1.266  0.00  0.00    +0.010 C 
ATOM     10  C   LIG    1       -2.191   1.108   1.226  0.00  0.00    +0.230 C 
ATOM     11  C   LIG    1       -2.252  -0.407  -1.205  0.00  0.00    -0.000 C 
ATOM     12  O   LIG    1       -2.816   1.590   0.035  0.00  0.00    -0.360 OA
ATOM     13  C   LIG    1       -3.707  -0.878  -1.117  0.00  0.00    +0.280 C 
ENDROOT
BRANCH   8  14
ATOM     14  N   LIG    1        1.361   1.595  -0.002  0.00  0.00    -0.290 N 
ATOM     15  C   LIG    1        1.764   2.799   0.464  0.00  0.00    +0.170 A 
ATOM     16  C   LIG    1        3.100   2.855   0.259  0.00  0.00    -0.020 A 
ATOM     17  N   LIG    1        3.446   1.698  -0.316  0.00  0.00    -0.260 NA
ATOM     18  N   LIG    1        2.393   0.970  -0.451  0.00  0.00    -0.080 NA
BRANCH  16  19
ATOM     19  C   LIG    1        4.019   3.998   0.608  0.00  0.00    +0.250 C 
ATOM     20  C   LIG    1        5.155   3.510   1.534  0.00  0.00    +0.030 C 
ATOM     21  C   LIG    1        5.372   4.686   2.513  0.00  0.00    +0.000 C 
ATOM     22  C   LIG    1        4.341   5.745   2.062  0.00  0.00    +0.210 C 
ATOM     23  O   LIG    1        3.313   4.994   1.379  0.00  0.00    -0.370 OA
ENDBRANCH  16  19
ENDBRANCH   8  14
BRANCH   2  24
ATOM     24  C   LIG    1       -5.242  -2.468  -2.917  0.00  0.00    +0.220 C 
BRANCH  24  25
ATOM     25  O   LIG    1       -6.080  -3.017  -3.936  0.00  0.00    -0.550 OA
ATOM     26  H   LIG    1       -6.147  -3.981  -3.913  0.00  0.00    +0.390 HD
ENDBRANCH  24  25
ENDBRANCH   2  24
TORSDOF 4
