REMARK  Name = ZINCtj00001tMwVP.1
REMARK                            x       y       z     vdW  Elec       q    Type
REMARK                         _______ _______ _______ _____ _____    ______ ____
ROOT
ATOM      1  N   LIG    1       -5.173   2.953   5.955  0.00  0.00    -0.720 N 
ATOM      2  H   LIG    1       -5.042   3.710   6.547  0.00  0.00    +0.410 HD
ATOM      3  C   LIG    1       -4.188   2.573   5.118  0.00  0.00    +0.510 C 
ATOM      4  O   LIG    1       -4.352   1.627   4.378  0.00  0.00    -0.530 OA
ENDROOT
BRANCH   3   5
ATOM      5  C   LIG    1       -2.881   3.324   5.101  0.00  0.00    +0.240 C 
ATOM      6  C   LIG    1       -3.120   4.788   4.676  0.00  0.00    +0.090 C 
ATOM      7  C   LIG    1       -1.891   5.097   3.780  0.00  0.00    +0.200 C 
ATOM      8  C   LIG    1       -1.665   3.733   3.082  0.00  0.00    +0.240 C 
ATOM      9  N   LIG    1       -1.973   2.725   4.113  0.00  0.00    -0.580 N 
ATOM     10  C   LIG    1       -1.503   1.462   4.142  0.00  0.00    +0.530 C 
ATOM     11  O   LIG    1       -1.824   0.716   5.042  0.00  0.00    -0.500 OA
BRANCH   7  12
ATOM     12  O   LIG    1       -0.758   5.461   4.571  0.00  0.00    -0.550 OA
ATOM     13  H   LIG    1        0.058   5.569   4.064  0.00  0.00    +0.390 HD
ENDBRANCH   7  12
BRANCH  10  14
ATOM     14  C   LIG    1       -0.579   0.977   3.054  0.00  0.00    +0.160 C 
BRANCH  14  15
ATOM     15  N   LIG    1       -0.589  -0.491   3.022  0.00  0.00    -0.620 N 
ATOM     16  H   LIG    1       -0.278  -0.849   3.913  0.00  0.00    +0.450 HD
ATOM     17  H   LIG    1        0.029  -0.816   2.295  0.00  0.00    +0.440 HD
ATOM     18  H   LIG    1       -1.526  -0.817   2.838  0.00  0.00    +0.450 HD
ENDBRANCH  14  15
BRANCH  14  19
ATOM     19  C   LIG    1        0.842   1.472   3.334  0.00  0.00    +0.210 C 
ATOM     20  F   LIG    1        1.273   0.975   4.569  0.00  0.00    -0.180 F 
ATOM     21  C   LIG    1        1.780   0.979   2.231  0.00  0.00    +0.080 C 
ENDBRANCH  14  19
ENDBRANCH  10  14
ENDBRANCH   3   5
BRANCH   1  22
ATOM     22  C   LIG    1       -6.443   2.223   5.971  0.00  0.00    +0.320 C 
BRANCH  22  26
ATOM     23  C   LIG    1       -9.065   3.985   8.853  0.00  0.00    +0.010 A 
ATOM     24  C   LIG    1       -9.071   4.436   7.532  0.00  0.00    +0.030 A 
ATOM     25  C   LIG    1       -8.223   3.863   6.607  0.00  0.00    +0.040 A 
ATOM     26  C   LIG    1       -7.367   2.844   6.987  0.00  0.00    -0.110 A 
ATOM     27  C   LIG    1       -7.360   2.389   8.293  0.00  0.00    +0.040 A 
ATOM     28  C   LIG    1       -8.199   2.957   9.229  0.00  0.00    +0.030 A 
BRANCH  23  31
ATOM     29  C   LIG    1      -10.814   2.425  10.790  0.00  0.00    +0.160 C 
ATOM     30  C   LIG    1      -10.758   3.929  10.722  0.00  0.00    +0.090 A 
ATOM     31  C   LIG    1       -9.971   4.595   9.850  0.00  0.00    -0.210 A 
ATOM     32  S   LIG    1      -10.210   6.320  10.117  0.00  0.00    +0.140 S 
ATOM     33  C   LIG    1      -11.341   5.982  11.354  0.00  0.00    +0.230 A 
ATOM     34  N   LIG    1      -11.473   4.706  11.506  0.00  0.00    -0.470 NA
ENDBRANCH  23  31
ENDBRANCH  22  26
ENDBRANCH   1  22
TORSDOF 8
