REMARK  Name = ZINCkj000005lz4a.1
REMARK                            x       y       z     vdW  Elec       q    Type
REMARK                         _______ _______ _______ _____ _____    ______ ____
ROOT
ATOM      1  N   LIG    1       -2.272  -2.984  -0.370  0.00  0.00    -0.380 N 
ATOM      2  C   LIG    1       -3.108  -2.916  -1.587  0.00  0.00    +0.250 C 
ATOM      3  C   LIG    1       -3.920  -4.235  -1.584  0.00  0.00    +0.080 C 
ATOM      4  C   LIG    1       -2.879  -5.242  -1.029  0.00  0.00    +0.090 C 
ATOM      5  C   LIG    1       -2.093  -4.401  -0.002  0.00  0.00    +0.230 C 
ATOM      6  H   LIG    1       -2.730  -2.493   0.383  0.00  0.00    +0.430 HD
ENDROOT
BRANCH   5   7
ATOM      7  C   LIG    1       -0.631  -4.762  -0.048  0.00  0.00    -0.150 A 
ATOM      8  C   LIG    1        0.026  -4.829  -1.262  0.00  0.00    +0.010 A 
ATOM      9  C   LIG    1        1.369  -5.156  -1.304  0.00  0.00    +0.030 A 
ATOM     10  C   LIG    1        2.051  -5.426  -0.133  0.00  0.00    +0.050 A 
ATOM     11  C   LIG    1        1.392  -5.365   1.081  0.00  0.00    +0.020 A 
ATOM     12  C   LIG    1        0.051  -5.033   1.123  0.00  0.00    +0.040 A 
ENDBRANCH   5   7
BRANCH   1  13
ATOM     13  C   LIG    1       -0.962  -2.374  -0.635  0.00  0.00    +0.320 C 
BRANCH  13  15
ATOM     14  O   LIG    1       -2.235  -0.393  -0.783  0.00  0.00    -0.490 OA
ATOM     15  C   LIG    1       -1.132  -0.891  -0.847  0.00  0.00    +0.540 C 
ATOM     16  N   LIG    1       -0.058  -0.120  -1.107  0.00  0.00    -0.570 N 
ATOM     17  C   LIG    1       -0.087   1.333  -1.332  0.00  0.00    +0.300 C 
ATOM     18  C   LIG    1        1.390   1.697  -1.580  0.00  0.00    +0.280 C 
ATOM     19  N   LIG    1        2.094   0.411  -1.468  0.00  0.00    -0.710 N 
ATOM     20  H   LIG    1        3.050   0.283  -1.572  0.00  0.00    +0.450 HD
ATOM     21  C   LIG    1        1.205  -0.555  -1.202  0.00  0.00    +0.700 C 
ATOM     22  O   LIG    1        1.517  -1.721  -1.058  0.00  0.00    -0.550 OA
ENDBRANCH  13  15
ENDBRANCH   1  13
TORSDOF 3
