REMARK  Name = ZINCkj000005lz4a.0
REMARK                            x       y       z     vdW  Elec       q    Type
REMARK                         _______ _______ _______ _____ _____    ______ ____
ROOT
ATOM      1  N   LIG    1       -2.346   4.334   0.037  0.00  0.00    -0.380 N 
ATOM      2  C   LIG    1       -3.033   4.035  -1.232  0.00  0.00    +0.260 C 
ATOM      3  C   LIG    1       -3.383   5.380  -1.895  0.00  0.00    +0.080 C 
ATOM      4  C   LIG    1       -3.380   6.369  -0.700  0.00  0.00    +0.090 C 
ATOM      5  C   LIG    1       -2.233   5.802   0.173  0.00  0.00    +0.230 C 
ATOM      6  H   LIG    1       -2.880   3.962   0.808  0.00  0.00    +0.430 HD
ENDROOT
BRANCH   5   7
ATOM      7  C   LIG    1       -2.417   6.211   1.612  0.00  0.00    -0.140 A 
ATOM      8  C   LIG    1       -3.379   5.593   2.389  0.00  0.00    -0.010 A 
ATOM      9  C   LIG    1       -3.545   5.965   3.710  0.00  0.00    +0.040 A 
ATOM     10  C   LIG    1       -2.756   6.963   4.251  0.00  0.00    +0.050 A 
ATOM     11  C   LIG    1       -1.798   7.585   3.472  0.00  0.00    +0.040 A 
ATOM     12  C   LIG    1       -1.628   7.209   2.153  0.00  0.00    +0.050 A 
ENDBRANCH   5   7
BRANCH   1  13
ATOM     13  C   LIG    1       -1.005   3.734   0.027  0.00  0.00    +0.320 C 
BRANCH  13  15
ATOM     14  O   LIG    1       -2.222   1.713   0.022  0.00  0.00    -0.490 OA
ATOM     15  C   LIG    1       -1.127   2.232   0.020  0.00  0.00    +0.540 C 
ATOM     16  N   LIG    1       -0.018   1.466   0.010  0.00  0.00    -0.570 N 
ATOM     17  C   LIG    1        0.002  -0.004   0.002  0.00  0.00    +0.300 C 
ATOM     18  C   LIG    1        1.503  -0.353  -0.014  0.00  0.00    +0.280 C 
ATOM     19  N   LIG    1        2.169   0.958  -0.013  0.00  0.00    -0.710 N 
ATOM     20  H   LIG    1        3.129   1.101  -0.022  0.00  0.00    +0.450 HD
ATOM     21  C   LIG    1        1.241   1.923   0.001  0.00  0.00    +0.700 C 
ATOM     22  O   LIG    1        1.516   3.107   0.005  0.00  0.00    -0.560 OA
ENDBRANCH  13  15
ENDBRANCH   1  13
TORSDOF 3
