REMARK  Name = ZINCpk00000dFiWJ.0
REMARK                            x       y       z     vdW  Elec       q    Type
REMARK                         _______ _______ _______ _____ _____    ______ ____
ROOT
ATOM      1  C   LIG    1        3.473   7.010  -2.004  0.00  0.00    +0.190 A 
ATOM      2  N   LIG    1        2.184   7.229  -1.944  0.00  0.00    -0.290 NA
ATOM      3  N   LIG    1        1.622   6.324  -1.218  0.00  0.00    -0.270 NA
ATOM      4  C   LIG    1        2.523   5.495  -0.787  0.00  0.00    +0.150 A 
ATOM      5  C   LIG    1        2.346   4.288   0.095  0.00  0.00    +0.430 C 
ATOM      6  N   LIG    1        3.623   3.550   0.083  0.00  0.00    -0.620 N 
ATOM      7  C   LIG    1        4.871   4.321   0.185  0.00  0.00    +0.310 C 
ATOM      8  C   LIG    1        5.001   5.237  -1.037  0.00  0.00    +0.300 C 
ATOM      9  C   LIG    1        3.646   2.206  -0.025  0.00  0.00    +0.580 C 
ATOM     10  O   LIG    1        4.707   1.624  -0.142  0.00  0.00    -0.520 OA
ATOM     11  N   LIG    1        3.721   5.903  -1.277  0.00  0.00    -0.470 N 
ENDROOT
BRANCH   9  12
ATOM     12  C   LIG    1        2.384   1.442  -0.002  0.00  0.00    -0.170 A 
ATOM     13  C   LIG    1        1.259   1.961   0.645  0.00  0.00    +0.080 A 
ATOM     14  C   LIG    1        0.085   1.248   0.664  0.00  0.00    +0.010 A 
ATOM     15  C   LIG    1        0.004  -0.002   0.040  0.00  0.00    +0.180 A 
ATOM     16  C   LIG    1        1.124  -0.514  -0.602  0.00  0.00    -0.150 A 
ATOM     17  C   LIG    1        0.767  -1.863  -1.186  0.00  0.00    +0.110 C 
ATOM     18  C   LIG    1       -0.707  -2.071  -0.803  0.00  0.00    +0.280 C 
ATOM     19  N   LIG    1       -1.082  -0.871  -0.051  0.00  0.00    -0.560 N 
ATOM     20  C   LIG    1       -2.301  -0.640   0.476  0.00  0.00    +0.520 C 
ATOM     21  O   LIG    1       -2.490   0.343   1.161  0.00  0.00    -0.510 OA
ATOM     22  C   LIG    1       -3.430  -1.604   0.215  0.00  0.00    +0.110 C 
ATOM     23  C   LIG    1        2.304   0.195  -0.626  0.00  0.00    +0.130 A 
ENDBRANCH   9  12
BRANCH   1  25
ATOM     24  C   LIG    1        4.637   7.305  -4.174  0.00  0.00    +0.040 C 
ATOM     25  C   LIG    1        4.487   7.840  -2.748  0.00  0.00    +0.140 C 
ENDBRANCH   1  25
TORSDOF 2
