REMARK  Name = ZINCrH000004jqQC.0
REMARK                            x       y       z     vdW  Elec       q    Type
REMARK                         _______ _______ _______ _____ _____    ______ ____
ROOT
ATOM      1  C   LIG    1        3.401  -4.343   4.011  0.00  0.00    +0.160 A 
ATOM      2  C   LIG    1        2.116  -4.411   4.537  0.00  0.00    +0.020 A 
ATOM      3  C   LIG    1        1.138  -3.541   4.095  0.00  0.00    +0.060 A 
ATOM      4  C   LIG    1        1.430  -2.598   3.129  0.00  0.00    -0.020 A 
ATOM      5  C   LIG    1        2.719  -2.522   2.595  0.00  0.00    +0.010 A 
ATOM      6 CL   LIG    1        0.197  -1.507   2.578  0.00  0.00    -0.040 Cl
ATOM      7  C   LIG    1        3.704  -3.404   3.037  0.00  0.00    +0.050 A 
ENDROOT
BRANCH   5   8
ATOM      8  C   LIG    1        3.035  -1.514   1.560  0.00  0.00    +0.210 A 
ATOM      9  N   LIG    1        2.352  -1.276   0.461  0.00  0.00    -0.260 NA
ATOM     10  N   LIG    1        2.913  -0.328  -0.204  0.00  0.00    -0.290 NA
ATOM     11  C   LIG    1        3.973   0.091   0.429  0.00  0.00    +0.190 A 
ATOM     12  C   LIG    1        4.902   1.202   0.012  0.00  0.00    +0.150 C 
ATOM     13  C   LIG    1        6.350   0.727   0.166  0.00  0.00    +0.020 C 
ATOM     14  C   LIG    1        6.838   1.019   1.582  0.00  0.00    +0.020 C 
ATOM     15  C   LIG    1        5.691   0.888   2.583  0.00  0.00    +0.030 C 
ATOM     16  C   LIG    1        5.151  -0.545   2.566  0.00  0.00    +0.300 C 
ATOM     17  N   LIG    1        4.093  -0.652   1.561  0.00  0.00    -0.460 N 
ENDBRANCH   5   8
BRANCH   1  19
ATOM     18  C   LIG    1        5.668  -4.816   4.556  0.00  0.00    +0.610 C 
ATOM     19  N   LIG    1        4.388  -5.227   4.462  0.00  0.00    -0.660 N 
ATOM     20  H   LIG    1        4.151  -6.135   4.705  0.00  0.00    +0.420 HD
ATOM     21  O   LIG    1        5.951  -3.652   4.346  0.00  0.00    -0.530 OA
BRANCH  18  25
ATOM     22  N   LIG    1        8.667  -6.667   5.383  0.00  0.00    -0.460 N 
ATOM     23  C   LIG    1        7.710  -7.628   5.453  0.00  0.00    +0.410 A 
ATOM     24  N   LIG    1        6.554  -7.097   5.179  0.00  0.00    -0.470 NA
ATOM     25  C   LIG    1        6.726  -5.777   4.914  0.00  0.00    -0.070 A 
ATOM     26  C   LIG    1        8.056  -5.501   5.045  0.00  0.00    +0.240 A 
BRANCH  22  28
ATOM     27  C   LIG    1       10.398  -6.617   7.110  0.00  0.00    +0.040 C 
ATOM     28  C   LIG    1       10.100  -6.853   5.628  0.00  0.00    +0.300 C 
ENDBRANCH  22  28
ENDBRANCH  18  25
ENDBRANCH   1  19
TORSDOF 4
