REMARK  Name = ZINCvU0000000FM7.0
REMARK                            x       y       z     vdW  Elec       q    Type
REMARK                         _______ _______ _______ _____ _____    ______ ____
ROOT
ATOM      1  C   LIG    1        2.401  -3.104   4.345  0.00  0.00    +0.550 C 
ENDROOT
BRANCH   1   2
ATOM      2  C   LIG    1        3.088  -4.193   3.519  0.00  0.00    +0.110 C 
ATOM      3 CL   LIG    1        1.873  -5.434   3.033  0.00  0.00    -0.080 Cl
ATOM      4 CL   LIG    1        4.380  -4.971   4.506  0.00  0.00    -0.050 Cl
ATOM      5 CL   LIG    1        3.818  -3.457   2.044  0.00  0.00    -0.060 Cl
ENDBRANCH   1   2
BRANCH   1   6
ATOM      6  N   LIG    1        1.351  -2.471   3.543  0.00  0.00    -0.720 N 
ATOM      7  H   LIG    1        0.743  -3.019   3.022  0.00  0.00    +0.410 HD
ATOM      8  C   LIG    1        1.229  -1.129   3.530  0.00  0.00    +0.650 C 
ATOM      9  O   LIG    1        1.991  -0.444   4.183  0.00  0.00    -0.550 OA
BRANCH   8  10
ATOM     10  O   LIG    1        0.264  -0.548   2.793  0.00  0.00    -0.340 OA
BRANCH  10  11
ATOM     11  C   LIG    1        0.192   0.902   2.826  0.00  0.00    +0.210 C 
ATOM     12  C   LIG    1       -0.734   1.341   3.962  0.00  0.00    +0.020 C 
ATOM     13  C   LIG    1       -2.133   0.766   3.731  0.00  0.00    -0.020 C 
ATOM     14  C   LIG    1       -2.682   1.280   2.398  0.00  0.00    +0.000 C 
ATOM     15  C   LIG    1       -1.756   0.841   1.262  0.00  0.00    +0.020 C 
ATOM     16  C   LIG    1       -2.058  -0.762   3.696  0.00  0.00    +0.020 C 
ATOM     17  C   LIG    1       -0.357   1.415   1.493  0.00  0.00    +0.010 C 
BRANCH  17  18
ATOM     18  C   LIG    1        0.569   0.977   0.357  0.00  0.00    -0.020 C 
ATOM     19  C   LIG    1        0.020   1.490  -0.976  0.00  0.00    +0.010 C 
ATOM     20  C   LIG    1        1.968   1.551   0.588  0.00  0.00    +0.030 C 
ENDBRANCH  17  18
ENDBRANCH  10  11
ENDBRANCH   8  10
ENDBRANCH   1   6
BRANCH   1  21
ATOM     21  N   LIG    1        1.807  -3.701   5.544  0.00  0.00    -0.730 N 
ATOM     22  H   LIG    1        1.302  -4.526   5.475  0.00  0.00    +0.420 HD
BRANCH  21  28
ATOM     23  C   LIG    1        1.512  -3.709   7.946  0.00  0.00    +0.130 A 
ATOM     24  C   LIG    1        1.676  -3.092   9.174  0.00  0.00    -0.010 A 
ATOM     25  C   LIG    1        2.292  -1.857   9.252  0.00  0.00    +0.110 A 
ATOM     26  C   LIG    1        2.746  -1.234   8.104  0.00  0.00    -0.030 A 
ATOM     27  C   LIG    1        2.592  -1.846   6.874  0.00  0.00    +0.070 A 
ATOM     28  C   LIG    1        1.970  -3.083   6.788  0.00  0.00    +0.180 A 
BRANCH  26  29
ATOM     29  N   LIG    1        3.405   0.088   8.193  0.00  0.00    +0.030 N 
ATOM     30  O   LIG    1        3.806   0.638   7.183  0.00  0.00    -0.150 OA
ATOM     31  O   LIG    1        3.547   0.626   9.277  0.00  0.00    -0.170 OA
ENDBRANCH  26  29
BRANCH  23  33
ATOM     32  C   LIG    1        0.463  -5.508   9.096  0.00  0.00    +0.250 C 
ATOM     33  O   LIG    1        0.907  -4.925   7.869  0.00  0.00    -0.310 OA
ENDBRANCH  23  33
ENDBRANCH  21  28
ENDBRANCH   1  21
TORSDOF 9
