REMARK  Name = ZINCah0000001hIE.0
REMARK                            x       y       z     vdW  Elec       q    Type
REMARK                         _______ _______ _______ _____ _____    ______ ____
ROOT
ATOM      1  N   LIG    1       -0.675   1.545   3.712  0.00  0.00    -0.750 N 
ATOM      2  H   LIG    1       -1.472   2.092   3.633  0.00  0.00    +0.400 HD
ATOM      3  C   LIG    1       -0.198   1.219   4.929  0.00  0.00    +0.700 C 
ATOM      4  N   LIG    1       -0.829   1.654   6.038  0.00  0.00    -0.750 N 
ATOM      5  H   LIG    1       -1.626   2.201   5.960  0.00  0.00    +0.400 HD
ATOM      6  O   LIG    1        0.801   0.533   5.028  0.00  0.00    -0.590 OA
ENDROOT
BRANCH   1   7
ATOM      7  C   LIG    1        0.011   1.072   2.506  0.00  0.00    +0.280 C 
BRANCH   7   9
ATOM      8  C   LIG    1       -0.013   1.086   0.008  0.00  0.00    +0.030 C 
ATOM      9  C   LIG    1       -0.729   1.579   1.267  0.00  0.00    +0.000 C 
ENDBRANCH   7   9
ENDBRANCH   1   7
BRANCH   4  10
ATOM     10  C   LIG    1       -0.311   1.299   7.362  0.00  0.00    +0.280 C 
BRANCH  10  11
ATOM     11  C   LIG    1       -1.205   1.915   8.441  0.00  0.00    +0.000 C 
ATOM     12  C   LIG    1       -0.664   1.545   9.823  0.00  0.00    +0.030 C 
ENDBRANCH  10  11
ENDBRANCH   4  10
TORSDOF 4
