REMARK  Name = ZINCrg00000Bs9bP.0
REMARK                            x       y       z     vdW  Elec       q    Type
REMARK                         _______ _______ _______ _____ _____    ______ ____
ROOT
ATOM      1  C   LIG    1       -0.711  -2.926  -1.304  0.00  0.00    +0.270 C 
ENDROOT
BRANCH   1   2
ATOM      2  C   LIG    1       -1.266  -2.249  -0.050  0.00  0.00    +0.230 C 
ATOM      3  C   LIG    1       -0.698  -2.934   1.211  0.00  0.00    +0.080 C 
ATOM      4  C   LIG    1       -1.910  -2.936   2.180  0.00  0.00    -0.010 C 
ATOM      5  C   LIG    1       -3.091  -3.155   1.204  0.00  0.00    +0.290 C 
ATOM      6  N   LIG    1       -2.728  -2.397  -0.007  0.00  0.00    -0.610 N 
ATOM      7  C   LIG    1       -3.593  -1.914  -0.920  0.00  0.00    +0.540 C 
ATOM      8  O   LIG    1       -3.191  -1.220  -1.830  0.00  0.00    -0.520 OA
BRANCH   4   9
ATOM      9  C   LIG    1       -1.806  -4.085   3.186  0.00  0.00    +0.470 C 
ATOM     10  F   LIG    1       -1.777  -5.304   2.500  0.00  0.00    -0.180 F 
ATOM     11  F   LIG    1       -2.912  -4.057   4.042  0.00  0.00    -0.180 F 
ATOM     12  F   LIG    1       -0.633  -3.943   3.935  0.00  0.00    -0.180 F 
ENDBRANCH   4   9
BRANCH   7  13
ATOM     13  C   LIG    1       -5.061  -2.238  -0.812  0.00  0.00    +0.050 C 
BRANCH  13  14
ATOM     14  C   LIG    1       -5.816  -1.572  -1.964  0.00  0.00    +0.250 C 
ATOM     15  F   LIG    1       -7.179  -1.872  -1.863  0.00  0.00    -0.210 F 
ENDBRANCH  13  14
ENDBRANCH   7  13
ENDBRANCH   1   2
BRANCH   1  18
ATOM     16  O   LIG    1        0.845  -3.680  -3.373  0.00  0.00    -0.520 OA
ATOM     17  C   LIG    1        1.419  -3.097  -2.477  0.00  0.00    +0.530 C 
ATOM     18  N   LIG    1        0.730  -2.678  -1.397  0.00  0.00    -0.730 N 
ATOM     19  H   LIG    1        1.189  -2.213  -0.680  0.00  0.00    +0.400 HD
BRANCH  17  20
ATOM     20  C   LIG    1        2.901  -2.842  -2.572  0.00  0.00    +0.000 C 
ATOM     21  C   LIG    1        3.435  -3.417  -3.887  0.00  0.00    +0.080 C 
ATOM     22  C   LIG    1        4.886  -2.963  -4.091  0.00  0.00    +0.320 C 
ATOM     23  N   LIG    1        5.642  -3.241  -2.870  0.00  0.00    -0.370 N 
ATOM     24  N   LIG    1        7.029  -3.302  -2.705  0.00  0.00    -0.310 NA
ATOM     25  C   LIG    1        7.243  -3.581  -1.444  0.00  0.00    +0.420 A 
ATOM     26  N   LIG    1        6.069  -3.696  -0.819  0.00  0.00    -0.540 NA
ATOM     27  C   LIG    1        5.099  -3.493  -1.664  0.00  0.00    +0.270 A 
ATOM     28  C   LIG    1        3.614  -3.521  -1.395  0.00  0.00    +0.190 C 
ENDBRANCH  17  20
ENDBRANCH   1  18
TORSDOF 6
