REMARK  Name = ZINCqH00000391Id.0
REMARK                            x       y       z     vdW  Elec       q    Type
REMARK                         _______ _______ _______ _____ _____    ______ ____
ROOT
ATOM      1  C   LIG    1       -4.691  -0.746  -2.159  0.00  0.00    +0.530 C 
ATOM      2  N   LIG    1       -3.835  -0.681  -1.120  0.00  0.00    -0.610 N 
ATOM      3  C   LIG    1       -4.091  -1.443   0.110  0.00  0.00    +0.260 C 
ATOM      4  C   LIG    1       -4.050  -0.483   1.303  0.00  0.00    +0.010 C 
ATOM      5  C   LIG    1       -2.720   0.274   1.298  0.00  0.00    +0.030 C 
ATOM      6  C   LIG    1       -2.604   1.096   0.012  0.00  0.00    +0.030 C 
ATOM      7  C   LIG    1       -2.628   0.154  -1.195  0.00  0.00    +0.300 C 
ATOM      8  O   LIG    1       -4.520  -0.041  -3.131  0.00  0.00    -0.510 OA
ENDROOT
BRANCH   1   9
ATOM      9  C   LIG    1       -5.861  -1.695  -2.113  0.00  0.00    +0.020 C 
ATOM     10  C   LIG    1       -5.351  -3.129  -1.941  0.00  0.00    +0.050 C 
ATOM     11  C   LIG    1       -6.540  -4.093  -1.976  0.00  0.00    +0.220 C 
ATOM     12  O   LIG    1       -7.250  -3.929  -3.206  0.00  0.00    -0.370 OA
ATOM     13  C   LIG    1       -7.790  -2.620  -3.398  0.00  0.00    +0.220 C 
ATOM     14  C   LIG    1       -6.652  -1.597  -3.421  0.00  0.00    +0.070 C 
BRANCH   9  16
ATOM     15  N   LIG    1       -7.411  -1.073  -0.109  0.00  0.00    -0.390 NA
ATOM     16  C   LIG    1       -6.736  -1.344  -0.982  0.00  0.00    +0.200 C 
ENDBRANCH   9  16
ENDBRANCH   1   9
BRANCH   6  17
ATOM     17  C   LIG    1       -1.309   1.867   0.023  0.00  0.00    -0.080 A 
ATOM     18  C   LIG    1       -0.105   1.193   0.102  0.00  0.00    +0.050 A 
ATOM     19  C   LIG    1        1.084   1.899   0.106  0.00  0.00    +0.020 A 
ATOM     20  C   LIG    1        1.067   3.279   0.037  0.00  0.00    +0.070 A 
ATOM     21  C   LIG    1       -0.137   3.954  -0.036  0.00  0.00    -0.180 A 
ATOM     22  C   LIG    1       -1.325   3.248  -0.040  0.00  0.00    +0.070 A 
BRANCH  21  23
ATOM     23  C   LIG    1       -0.155   5.459  -0.112  0.00  0.00    +0.510 C 
ATOM     24  F   LIG    1       -0.857   5.972   0.984  0.00  0.00    -0.180 F 
ATOM     25  F   LIG    1       -0.782   5.859  -1.296  0.00  0.00    -0.180 F 
ATOM     26  F   LIG    1        1.158   5.942  -0.093  0.00  0.00    -0.180 F 
ENDBRANCH  21  23
ENDBRANCH   6  17
TORSDOF 4
