REMARK  Name = ZINCpe000000Ugpa.0
REMARK                            x       y       z     vdW  Elec       q    Type
REMARK                         _______ _______ _______ _____ _____    ______ ____
ROOT
ATOM      1  C   LIG    1       -1.058   3.224   3.006  0.00  0.00    +0.220 C 
ENDROOT
BRANCH   1   2
ATOM      2  N   LIG    1       -0.503   4.523   3.408  0.00  0.00    -0.520 NA
ATOM      3  C   LIG    1        0.896   4.389   3.836  0.00  0.00    +0.190 C 
ATOM      4  C   LIG    1        1.460   5.772   4.169  0.00  0.00    +0.220 C 
ATOM      5  N   LIG    1        0.646   6.388   5.226  0.00  0.00    -0.480 N 
ATOM      6  C   LIG    1       -0.753   6.523   4.798  0.00  0.00    +0.220 C 
ATOM      7  C   LIG    1       -1.317   5.139   4.465  0.00  0.00    +0.190 C 
BRANCH   5   8
ATOM      8  C   LIG    1        1.171   7.618   5.606  0.00  0.00    +0.310 A 
ATOM      9  C   LIG    1        2.489   7.699   6.045  0.00  0.00    -0.050 A 
ATOM     10  C   LIG    1        2.999   8.929   6.419  0.00  0.00    +0.090 A 
ATOM     11  C   LIG    1        2.171  10.041   6.342  0.00  0.00    -0.070 A 
ATOM     12  C   LIG    1        0.873   9.888   5.898  0.00  0.00    +0.290 A 
ATOM     13  N   LIG    1        0.414   8.703   5.542  0.00  0.00    -0.520 NA
ENDBRANCH   5   8
ENDBRANCH   1   2
BRANCH   1  15
ATOM     14  N   LIG    1       -0.698   1.558   1.213  0.00  0.00    -0.620 N 
ATOM     15  C   LIG    1       -0.353   2.738   1.767  0.00  0.00    +0.520 C 
ATOM     16  O   LIG    1        0.526   3.408   1.267  0.00  0.00    -0.490 OA
ATOM     17  C   LIG    1       -1.760   0.749   1.817  0.00  0.00    +0.300 C 
BRANCH  14  18
ATOM     18  C   LIG    1       -0.013   1.086   0.008  0.00  0.00    +0.460 C 
BRANCH  18  22
ATOM     19  C   LIG    1       -1.403   2.732  -2.863  0.00  0.00    +0.170 A 
ATOM     20  N   LIG    1       -2.099   1.637  -2.797  0.00  0.00    -0.380 NA
ATOM     21  O   LIG    1       -1.735   0.964  -1.856  0.00  0.00    +0.080 OA
ATOM     22  C   LIG    1       -0.742   1.585  -1.213  0.00  0.00    +0.150 A 
ATOM     23  N   LIG    1       -0.526   2.714  -1.843  0.00  0.00    -0.450 NA
BRANCH  19  25
ATOM     24  C   LIG    1       -2.569   4.856  -3.392  0.00  0.00    +0.040 C 
ATOM     25  C   LIG    1       -1.554   3.825  -3.890  0.00  0.00    +0.160 C 
ENDBRANCH  19  25
ENDBRANCH  18  22
ENDBRANCH  14  18
ENDBRANCH   1  15
TORSDOF 6
