REMARK  Name = ZINCqH0000006ZUL.0
REMARK                            x       y       z     vdW  Elec       q    Type
REMARK                         _______ _______ _______ _____ _____    ______ ____
ROOT
ATOM      1  C   LIG    1       -4.052   7.195  -4.419  0.00  0.00    +0.230 A 
ATOM      2  N   LIG    1       -3.646   6.174  -5.130  0.00  0.00    -0.370 NA
ATOM      3  O   LIG    1       -3.061   5.378  -4.427  0.00  0.00    +0.100 OA
ATOM      4  C   LIG    1       -3.033   5.820  -3.161  0.00  0.00    +0.220 A 
ATOM      5  N   LIG    1       -3.667   6.976  -3.144  0.00  0.00    -0.450 NA
ENDROOT
BRANCH   1   9
ATOM      6  C   LIG    1       -6.205  10.576  -5.853  0.00  0.00    +0.130 A 
ATOM      7  C   LIG    1       -5.870  10.486  -4.510  0.00  0.00    -0.030 A 
ATOM      8  C   LIG    1       -5.171   9.390  -4.043  0.00  0.00    +0.080 A 
ATOM      9  C   LIG    1       -4.802   8.373  -4.921  0.00  0.00    -0.030 A 
ATOM     10  C   LIG    1       -5.134   8.466  -6.272  0.00  0.00    +0.000 A 
ATOM     11  C   LIG    1       -5.837   9.562  -6.734  0.00  0.00    +0.100 A 
BRANCH   6  13
ATOM     12  C   LIG    1       -7.237  12.659  -5.350  0.00  0.00    +0.240 C 
ATOM     13  O   LIG    1       -6.893  11.656  -6.309  0.00  0.00    -0.300 OA
ENDBRANCH   6  13
BRANCH  11  14
ATOM     14  O   LIG    1       -6.167   9.653  -8.051  0.00  0.00    -0.300 OA
ATOM     15  C   LIG    1       -5.758   8.577  -8.898  0.00  0.00    +0.250 C 
ENDBRANCH  11  14
ENDBRANCH   1   9
BRANCH   4  16
ATOM     16  C   LIG    1       -2.414   5.138  -2.002  0.00  0.00    +0.050 A 
ATOM     17  C   LIG    1       -2.455   5.710  -0.725  0.00  0.00    -0.010 A 
ATOM     18  C   LIG    1       -1.867   5.042   0.329  0.00  0.00    +0.320 A 
ATOM     19  N   LIG    1       -1.274   3.877   0.149  0.00  0.00    -0.520 NA
ATOM     20  C   LIG    1       -1.207   3.302  -1.040  0.00  0.00    +0.330 A 
ATOM     21  C   LIG    1       -1.773   3.906  -2.154  0.00  0.00    +0.000 A 
BRANCH  20  22
ATOM     22  O   LIG    1       -0.582   2.105  -1.172  0.00  0.00    -0.290 OA
BRANCH  22  23
ATOM     23  C   LIG    1       -0.019   1.534   0.011  0.00  0.00    +0.180 C 
ATOM     24  C   LIG    1        1.518   1.476  -0.004  0.00  0.00    +0.010 C 
ATOM     25  C   LIG    1        1.394   0.090   0.649  0.00  0.00    +0.030 C 
ATOM     26  C   LIG    1        0.002  -0.004   0.002  0.00  0.00    +0.030 C 
ENDBRANCH  22  23
ENDBRANCH  20  22
ENDBRANCH   4  16
TORSDOF 6
