REMARK  Name = ZINCvU0000000E2l.0
REMARK                            x       y       z     vdW  Elec       q    Type
REMARK                         _______ _______ _______ _____ _____    ______ ____
ROOT
ATOM      1  C   LIG    1       -0.534   2.966   0.869  0.00  0.00    +0.190 C 
ENDROOT
BRANCH   1   2
ATOM      2  C   LIG    1       -1.539   2.953   1.991  0.00  0.00    -0.090 A 
ATOM      3  C   LIG    1       -2.380   1.868   2.153  0.00  0.00    +0.070 A 
ATOM      4  C   LIG    1       -3.300   1.854   3.185  0.00  0.00    -0.010 A 
ATOM      5  C   LIG    1       -3.384   2.929   4.051  0.00  0.00    +0.010 A 
ATOM      6  C   LIG    1       -2.546   4.016   3.885  0.00  0.00    +0.000 A 
ATOM      7  C   LIG    1       -1.624   4.028   2.856  0.00  0.00    +0.010 A 
ENDBRANCH   1   2
BRANCH   1  10
ATOM      8  N   LIG    1       -1.223   4.612  -0.844  0.00  0.00    -0.670 N 
ATOM      9  H   LIG    1       -0.718   5.283  -0.360  0.00  0.00    +0.410 HD
ATOM     10  C   LIG    1       -1.224   3.333  -0.420  0.00  0.00    +0.520 C 
ATOM     11  O   LIG    1       -1.781   2.477  -1.075  0.00  0.00    -0.490 OA
BRANCH   8  16
ATOM     12  C   LIG    1       -3.857   4.678  -3.414  0.00  0.00    +0.150 A 
ATOM     13  C   LIG    1       -3.388   5.688  -4.242  0.00  0.00    -0.090 A 
ATOM     14  C   LIG    1       -2.205   6.337  -3.941  0.00  0.00    +0.070 A 
ATOM     15  C   LIG    1       -1.489   5.986  -2.813  0.00  0.00    -0.050 A 
ATOM     16  C   LIG    1       -1.951   4.971  -1.984  0.00  0.00    +0.190 A 
ATOM     17  C   LIG    1       -3.139   4.319  -2.284  0.00  0.00    -0.010 A 
BRANCH  12  19
ATOM     18  C   LIG    1       -5.708   4.463  -4.890  0.00  0.00    +0.250 C 
ATOM     19  O   LIG    1       -5.021   4.042  -3.710  0.00  0.00    -0.310 OA
ENDBRANCH  12  19
ENDBRANCH   8  16
ENDBRANCH   1  10
BRANCH   1  20
ATOM     20  N   LIG    1        0.071   1.634   0.738  0.00  0.00    -0.510 NA
ATOM     21  C   LIG    1        0.819   1.516  -0.521  0.00  0.00    +0.200 C 
BRANCH  20  22
ATOM     22  C   LIG    1        0.930   1.330   1.890  0.00  0.00    +0.240 C 
ATOM     23  C   LIG    1        0.062   1.115   3.131  0.00  0.00    +0.080 C 
BRANCH  22  24
ATOM     24  C   LIG    1        1.724   0.080   1.610  0.00  0.00    +0.090 A 
ATOM     25  N   LIG    1        2.974  -0.047   1.849  0.00  0.00    -0.460 NA
ATOM     26  C   LIG    1        3.555  -1.224   1.547  0.00  0.00    +0.080 A 
ATOM     27  C   LIG    1        4.895  -1.632   1.703  0.00  0.00    +0.070 A 
ATOM     28  C   LIG    1        5.283  -2.884   1.330  0.00  0.00    +0.030 A 
ATOM     29  C   LIG    1        4.370  -3.778   0.790  0.00  0.00    +0.040 A 
ATOM     30  C   LIG    1        3.055  -3.407   0.626  0.00  0.00    +0.060 A 
ATOM     31  C   LIG    1        2.640  -2.131   1.002  0.00  0.00    -0.190 A 
ATOM     32  S   LIG    1        1.066  -1.345   0.940  0.00  0.00    +0.150 S 
ENDBRANCH  22  24
ENDBRANCH  20  22
ENDBRANCH   1  20
TORSDOF 7
