REMARK  Name = ZINCvU0000000G1A.0
REMARK                            x       y       z     vdW  Elec       q    Type
REMARK                         _______ _______ _______ _____ _____    ______ ____
ROOT
ATOM      1  C   LIG    1       -1.808   2.206  -1.414  0.00  0.00    +0.040 C 
ATOM      2  C   LIG    1       -1.295   2.059   0.019  0.00  0.00    +0.280 C 
ENDROOT
BRANCH   2   3
ATOM      3  C   LIG    1       -1.102   3.425   0.626  0.00  0.00    -0.090 A 
ATOM      4  C   LIG    1        0.037   4.153   0.335  0.00  0.00    +0.010 A 
ATOM      5  C   LIG    1        0.216   5.407   0.883  0.00  0.00    +0.030 A 
ATOM      6  C   LIG    1       -0.747   5.934   1.741  0.00  0.00    -0.050 A 
ATOM      7  C   LIG    1       -1.889   5.192   2.036  0.00  0.00    +0.030 A 
ATOM      8  C   LIG    1       -2.061   3.942   1.478  0.00  0.00    +0.030 A 
BRANCH   6   9
ATOM      9  C   LIG    1       -0.556   7.278   2.340  0.00  0.00    -0.040 A 
ATOM     10  C   LIG    1       -1.521   7.803   3.198  0.00  0.00    +0.060 A 
ATOM     11  C   LIG    1       -1.347   9.055   3.757  0.00  0.00    +0.030 A 
ATOM     12  C   LIG    1       -0.217   9.794   3.469  0.00  0.00    +0.070 A 
ATOM     13  C   LIG    1        0.757   9.279   2.610  0.00  0.00    -0.020 A 
ATOM     14  C   LIG    1        0.587   8.014   2.049  0.00  0.00    +0.080 A 
BRANCH  13  15
ATOM     15  C   LIG    1        1.928  10.046   2.311  0.00  0.00    +0.250 C 
ATOM     16  N   LIG    1        2.858  10.655   2.074  0.00  0.00    -0.410 NA
ENDBRANCH  13  15
ENDBRANCH   6   9
ENDBRANCH   2   3
BRANCH   2  17
ATOM     17  N   LIG    1       -0.016   1.344   0.009  0.00  0.00    -0.720 N 
ATOM     18  H   LIG    1        0.817   1.840   0.004  0.00  0.00    +0.400 HD
ATOM     19  C   LIG    1        0.002  -0.004   0.002  0.00  0.00    +0.560 C 
ATOM     20  O   LIG    1       -1.042  -0.626   0.009  0.00  0.00    -0.530 OA
BRANCH  19  21
ATOM     21  C   LIG    1        1.292  -0.726  -0.014  0.00  0.00    -0.130 A 
ATOM     22  C   LIG    1        2.493  -0.015  -0.028  0.00  0.00    +0.030 A 
ATOM     23  C   LIG    1        3.694  -0.694  -0.039  0.00  0.00    +0.010 A 
ATOM     24  C   LIG    1        3.709  -2.078  -0.046  0.00  0.00    +0.040 A 
ATOM     25  C   LIG    1        2.522  -2.789  -0.037  0.00  0.00    -0.080 A 
ATOM     26  C   LIG    1        1.315  -2.122  -0.022  0.00  0.00    +0.090 A 
BRANCH  25  27
ATOM     27  C   LIG    1        2.548  -4.295  -0.046  0.00  0.00    +0.010 C 
ATOM     28  C   LIG    1        3.273  -4.788  -1.302  0.00  0.00    +0.030 C 
ATOM     29  C   LIG    1        3.362  -6.317  -1.261  0.00  0.00    -0.010 C 
ATOM     30  C   LIG    1        4.073  -6.744   0.026  0.00  0.00    +0.210 C 
ATOM     31  O   LIG    1        3.365  -6.228   1.154  0.00  0.00    -0.380 OA
ATOM     32  C   LIG    1        3.291  -4.801   1.194  0.00  0.00    +0.220 C 
ENDBRANCH  25  27
ENDBRANCH  19  21
ENDBRANCH   2  17
TORSDOF 6
