REMARK  Name = ZINCrH000004sYsp.1
REMARK                            x       y       z     vdW  Elec       q    Type
REMARK                         _______ _______ _______ _____ _____    ______ ____
ROOT
ATOM      1  C   LIG    1        2.475   1.070  -0.015  0.00  0.00    +0.560 C 
ATOM      2  N   LIG    1        3.632   1.760  -0.023  0.00  0.00    -0.710 N 
ATOM      3  H   LIG    1        3.619   2.730  -0.018  0.00  0.00    +0.400 HD
ATOM      4  O   LIG    1        2.491  -0.145  -0.022  0.00  0.00    -0.520 OA
ENDROOT
BRANCH   1  11
ATOM      5  C   LIG    1       -4.964   3.754   0.064  0.00  0.00    +0.370 C 
ATOM      6  N   LIG    1       -3.656   3.096   0.050  0.00  0.00    -0.510 N 
ATOM      7  C   LIG    1       -2.535   3.850   0.044  0.00  0.00    +0.550 A 
ATOM      8  C   LIG    1       -1.229   3.162   0.029  0.00  0.00    -0.160 A 
ATOM      9  C   LIG    1       -0.031   3.871   0.022  0.00  0.00    +0.140 A 
ATOM     10  C   LIG    1        1.167   3.190   0.008  0.00  0.00    +0.030 A 
ATOM     11  C   LIG    1        1.182   1.792   0.000  0.00  0.00    -0.060 A 
ATOM     12  C   LIG    1       -0.013   1.076   0.008  0.00  0.00    +0.070 A 
ATOM     13  C   LIG    1       -1.220   1.756   0.017  0.00  0.00    +0.170 A 
ATOM     14  N   LIG    1       -2.432   1.080   0.030  0.00  0.00    -0.580 N 
ATOM     15  H   LIG    1       -2.440   0.110   0.025  0.00  0.00    +0.450 HD
ATOM     16  O   LIG    1       -2.600   5.064   0.051  0.00  0.00    -0.470 OA
ATOM     17  C   LIG    1       -3.593   1.755   0.043  0.00  0.00    +0.530 A 
ATOM     18  S   LIG    1       -5.057   0.867   0.051  0.00  0.00    -0.530 S 
ENDBRANCH   1  11
BRANCH   2  19
ATOM     19  C   LIG    1        4.911   1.045  -0.038  0.00  0.00    +0.320 C 
BRANCH  19  20
ATOM     20  C   LIG    1        5.972   1.927  -0.644  0.00  0.00    -0.090 A 
ATOM     21  C   LIG    1        6.000   3.277  -0.349  0.00  0.00    +0.030 A 
ATOM     22  C   LIG    1        6.976   4.086  -0.901  0.00  0.00    +0.040 A 
ATOM     23  C   LIG    1        7.918   3.546  -1.757  0.00  0.00    -0.030 A 
ATOM     24  C   LIG    1        7.887   2.195  -2.056  0.00  0.00    +0.040 A 
ATOM     25 CL   LIG    1        9.140   4.562  -2.457  0.00  0.00    -0.060 Cl
ATOM     26  C   LIG    1        6.914   1.387  -1.499  0.00  0.00    +0.050 A 
ENDBRANCH  19  20
BRANCH  19  27
ATOM     27  C   LIG    1        5.308   0.679   1.393  0.00  0.00    -0.060 C 
ATOM     28  C   LIG    1        5.682  -0.778   1.672  0.00  0.00    +0.040 C 
ATOM     29  C   LIG    1        4.353  -0.217   2.184  0.00  0.00    +0.030 C 
ENDBRANCH  19  27
ENDBRANCH   2  19
TORSDOF 4
