REMARK  Name = ZINCkj000005j7wB.0
REMARK                            x       y       z     vdW  Elec       q    Type
REMARK                         _______ _______ _______ _____ _____    ______ ____
ROOT
ATOM      1  C   LIG    1        3.604   0.180  -0.031  0.00  0.00    +0.620 C 
ATOM      2  N   LIG    1        4.011  -1.105  -0.042  0.00  0.00    -0.610 N 
ATOM      3  C   LIG    1        3.169  -2.325  -0.041  0.00  0.00    +0.270 C 
ATOM      4  C   LIG    1        3.911  -3.313   0.888  0.00  0.00    -0.020 C 
ATOM      5  C   LIG    1        5.371  -2.842   0.864  0.00  0.00    -0.080 C 
ATOM      6  C   LIG    1        6.410  -3.922   0.566  0.00  0.00    +0.030 C 
ATOM      7  C   LIG    1        7.314  -3.212   1.590  0.00  0.00    +0.030 C 
ATOM      8  C   LIG    1        6.028  -2.658   2.231  0.00  0.00    +0.040 C 
ATOM      9  C   LIG    1        5.404  -1.616  -0.064  0.00  0.00    +0.300 C 
ATOM     10  O   LIG    1        4.424   1.078  -0.034  0.00  0.00    -0.510 OA
ENDROOT
BRANCH   1  13
ATOM     11  C   LIG    1        0.002  -0.004   0.002  0.00  0.00    -0.030 A 
ATOM     12  N   LIG    1        1.213  -0.439  -0.012  0.00  0.00    -0.450 NA
ATOM     13  C   LIG    1        2.166   0.496  -0.016  0.00  0.00    +0.000 A 
ATOM     14  C   LIG    1        1.687   1.760  -0.005  0.00  0.00    -0.030 A 
ATOM     15  S   LIG    1       -0.021   1.704   0.011  0.00  0.00    +0.250 S 
BRANCH  11  17
ATOM     16  C   LIG    1       -1.843  -0.878   1.409  0.00  0.00    +0.050 C 
ATOM     17  C   LIG    1       -1.225  -0.879   0.010  0.00  0.00    +0.280 C 
BRANCH  17  18
ATOM     18  N   LIG    1       -2.202  -0.361  -0.957  0.00  0.00    -0.830 NA
ATOM     19  H   LIG    1       -1.841  -0.412  -1.898  0.00  0.00    +0.350 HD
ATOM     20  H   LIG    1       -2.475   0.582  -0.725  0.00  0.00    +0.350 HD
ENDBRANCH  17  18
ENDBRANCH  11  17
ENDBRANCH   1  13
BRANCH   4  21
ATOM     21  C   LIG    1        3.801  -4.740   0.345  0.00  0.00    +0.280 C 
BRANCH  21  22
ATOM     22  N   LIG    1        2.403  -5.183   0.413  0.00  0.00    -0.640 N 
ATOM     23  H   LIG    1        2.330  -6.124   0.056  0.00  0.00    +0.440 HD
ATOM     24  H   LIG    1        1.827  -4.567  -0.142  0.00  0.00    +0.430 HD
ATOM     25  H   LIG    1        2.089  -5.162   1.372  0.00  0.00    +0.440 HD
ENDBRANCH  21  22
ENDBRANCH   4  21
TORSDOF 5
