REMARK  Name = ZINCvU00000005jz.0
REMARK                            x       y       z     vdW  Elec       q    Type
REMARK                         _______ _______ _______ _____ _____    ______ ____
ROOT
ATOM      1  C   LIG    1       -4.794  -0.312  -0.367  0.00  0.00    +0.090 C 
ATOM      2  C   LIG    1       -5.904  -1.058  -0.178  0.00  0.00    -0.180 C 
ATOM      3  C   LIG    1       -6.270  -2.193  -1.112  0.00  0.00    +0.080 C 
ATOM      4  C   LIG    1       -6.577  -3.442  -0.272  0.00  0.00    +0.010 C 
ATOM      5  C   LIG    1       -7.754  -3.162   0.666  0.00  0.00    +0.090 C 
ATOM      6  C   LIG    1       -7.385  -2.019   1.589  0.00  0.00    -0.180 C 
ATOM      7  C   LIG    1       -7.555  -2.102   2.927  0.00  0.00    +0.080 C 
ATOM      8  C   LIG    1       -6.829  -0.806   0.950  0.00  0.00    +0.430 C 
ATOM      9  O   LIG    1       -7.112   0.320   1.324  0.00  0.00    -0.430 OA
ENDROOT
BRANCH   1  12
ATOM     10  C   LIG    1       -3.391   2.790   1.208  0.00  0.00    +0.100 A 
ATOM     11  C   LIG    1       -3.771   1.868   0.254  0.00  0.00    -0.040 A 
ATOM     12  C   LIG    1       -4.392   0.676   0.645  0.00  0.00    -0.040 A 
ATOM     13  C   LIG    1       -4.632   0.429   2.001  0.00  0.00    +0.010 A 
ATOM     14  C   LIG    1       -4.254   1.357   2.947  0.00  0.00    +0.040 A 
ATOM     15  C   LIG    1       -3.635   2.537   2.558  0.00  0.00    +0.080 A 
BRANCH  10  17
ATOM     16  C   LIG    1       -2.566   4.141  -0.566  0.00  0.00    +0.240 C 
ATOM     17  O   LIG    1       -2.785   3.948   0.833  0.00  0.00    -0.310 OA
ENDBRANCH  10  17
BRANCH  15  18
ATOM     18  O   LIG    1       -3.265   3.448   3.496  0.00  0.00    -0.490 OA
ATOM     19  H   LIG    1       -3.947   4.103   3.698  0.00  0.00    +0.390 HD
ENDBRANCH  15  18
ENDBRANCH   1  12
BRANCH   7  20
ATOM     20  C   LIG    1       -8.279  -3.243   3.506  0.00  0.00    -0.040 A 
ATOM     21  C   LIG    1       -9.390  -3.777   2.845  0.00  0.00    +0.020 A 
ATOM     22  C   LIG    1      -10.063  -4.851   3.386  0.00  0.00    +0.030 A 
ATOM     23  C   LIG    1       -9.649  -5.396   4.594  0.00  0.00    +0.080 A 
ATOM     24  C   LIG    1       -8.545  -4.866   5.262  0.00  0.00    +0.100 A 
ATOM     25  C   LIG    1       -7.861  -3.794   4.723  0.00  0.00    -0.040 A 
BRANCH  24  26
ATOM     26  O   LIG    1       -8.143  -5.404   6.444  0.00  0.00    -0.310 OA
ATOM     27  C   LIG    1       -7.005  -4.811   7.073  0.00  0.00    +0.240 C 
ENDBRANCH  24  26
BRANCH  23  28
ATOM     28  O   LIG    1      -10.320  -6.451   5.126  0.00  0.00    -0.490 OA
ATOM     29  H   LIG    1      -11.045  -6.199   5.714  0.00  0.00    +0.390 HD
ENDBRANCH  23  28
ENDBRANCH   7  20
BRANCH   4  30
ATOM     30  C   LIG    1       -6.934  -4.601  -1.204  0.00  0.00    -0.060 C 
ATOM     31  C   LIG    1       -7.232  -5.850  -0.372  0.00  0.00    +0.030 C 
ATOM     32  C   LIG    1       -5.758  -4.882  -2.142  0.00  0.00    +0.030 C 
ATOM     33  C   LIG    1       -8.168  -4.231  -2.029  0.00  0.00    +0.030 C 
ENDBRANCH   4  30
TORSDOF 7
