REMARK  Name = ZINCtV00000L6lcc.0
REMARK                            x       y       z     vdW  Elec       q    Type
REMARK                         _______ _______ _______ _____ _____    ______ ____
ROOT
ATOM      1  C   LIG    1       -0.033  -6.101  -0.754  0.00  0.00    +0.190 A 
ATOM      2  C   LIG    1       -1.063  -6.956  -0.638  0.00  0.00    -0.100 A 
ATOM      3  S   LIG    1       -0.423  -8.534  -0.186  0.00  0.00    +0.090 S 
ATOM      4  C   LIG    1        1.210  -7.873  -0.188  0.00  0.00    +0.320 A 
ATOM      5  N   LIG    1        1.164  -6.615  -0.506  0.00  0.00    -0.510 NA
ENDROOT
BRANCH   1   9
ATOM      6  C   LIG    1       -2.198  -1.698  -2.067  0.00  0.00    +0.120 C 
ATOM      7  C   LIG    1       -1.184  -2.751  -1.703  0.00  0.00    +0.030 A 
ATOM      8  C   LIG    1       -1.456  -4.037  -1.409  0.00  0.00    -0.040 A 
ATOM      9  C   LIG    1       -0.223  -4.677  -1.127  0.00  0.00    -0.110 A 
ATOM     10  C   LIG    1        0.755  -3.742  -1.269  0.00  0.00    +0.060 A 
ATOM     11  C   LIG    1        2.232  -3.969  -1.073  0.00  0.00    +0.140 C 
ATOM     12  N   LIG    1        0.164  -2.563  -1.616  0.00  0.00    -0.430 N 
BRANCH  12  13
ATOM     13  C   LIG    1        0.865  -1.300  -1.862  0.00  0.00    +0.280 C 
BRANCH  13  14
ATOM     14  C   LIG    1        0.971  -0.513  -0.554  0.00  0.00    +0.160 C 
ATOM     15  C   LIG    1        1.807   0.765  -0.778  0.00  0.00    +0.020 C 
ATOM     16  C   LIG    1        1.046   1.812   0.079  0.00  0.00    +0.010 C 
ATOM     17  C   LIG    1       -0.416   1.328  -0.093  0.00  0.00    +0.200 C 
ATOM     18  O   LIG    1       -0.334  -0.106  -0.125  0.00  0.00    -0.370 OA
ENDBRANCH  13  14
ENDBRANCH  12  13
ENDBRANCH   1   9
BRANCH   4  19
ATOM     19  N   LIG    1        2.363  -8.585   0.103  0.00  0.00    -0.630 N 
ATOM     20  H   LIG    1        3.232  -8.171  -0.018  0.00  0.00    +0.420 HD
BRANCH  19  21
ATOM     21  C   LIG    1        2.274  -9.898   0.572  0.00  0.00    +0.220 A 
ATOM     22  C   LIG    1        1.185 -10.291   1.341  0.00  0.00    -0.020 A 
ATOM     23  C   LIG    1        1.101 -11.590   1.802  0.00  0.00    +0.100 A 
ATOM     24  C   LIG    1        2.098 -12.499   1.501  0.00  0.00    +0.000 A 
ATOM     25  C   LIG    1        3.183 -12.111   0.736  0.00  0.00    +0.110 A 
ATOM     26  C   LIG    1        3.271 -10.816   0.266  0.00  0.00    -0.220 A 
BRANCH  26  27
ATOM     27  C   LIG    1        4.451 -10.396  -0.573  0.00  0.00    +0.510 C 
ATOM     28  F   LIG    1        5.133  -9.357   0.069  0.00  0.00    -0.180 F 
ATOM     29  F   LIG    1        4.001  -9.957  -1.823  0.00  0.00    -0.170 F 
ATOM     30  F   LIG    1        5.312 -11.485  -0.744  0.00  0.00    -0.170 F 
ENDBRANCH  26  27
ENDBRANCH  19  21
ENDBRANCH   4  19
TORSDOF 6
