REMARK  Name = ZINCrg00000SjSJn.0
REMARK                            x       y       z     vdW  Elec       q    Type
REMARK                         _______ _______ _______ _____ _____    ______ ____
ROOT
ATOM      1  C   LIG    1       -7.376   4.880  -0.127  0.00  0.00    +0.220 A 
ATOM      2  C   LIG    1       -6.215   5.521  -0.534  0.00  0.00    -0.070 A 
ATOM      3  C   LIG    1       -5.001   4.867  -0.456  0.00  0.00    +0.100 A 
ATOM      4  C   LIG    1       -4.945   3.563   0.020  0.00  0.00    +0.080 A 
ATOM      5  C   LIG    1       -6.108   2.922   0.427  0.00  0.00    +0.180 A 
ATOM      6  C   LIG    1       -7.320   3.580   0.353  0.00  0.00    -0.690 A 
ENDROOT
BRANCH   4   7
ATOM      7  N   LIG    1       -3.716   2.897   0.094  0.00  0.00    -0.650 N 
ATOM      8  H   LIG    1       -2.909   3.390   0.314  0.00  0.00    +0.420 HD
ATOM      9  C   LIG    1       -3.652   1.571  -0.141  0.00  0.00    +0.580 C 
ATOM     10  O   LIG    1       -4.673   0.938  -0.334  0.00  0.00    -0.490 OA
BRANCH   9  11
ATOM     11  C   LIG    1       -2.352   0.892  -0.163  0.00  0.00    +0.080 C 
ATOM     12  N   LIG    1       -1.271   1.573   0.049  0.00  0.00    -0.200 NA
ATOM     13  N   LIG    1       -0.013   0.962   0.029  0.00  0.00    -0.560 N 
ATOM     14  H   LIG    1        0.743   1.401   0.449  0.00  0.00    +0.440 HD
ATOM     15  C   LIG    1        0.154  -0.236  -0.566  0.00  0.00    +0.500 C 
ATOM     16  C   LIG    1       -1.023  -0.921  -1.212  0.00  0.00    +0.090 C 
ATOM     17  O   LIG    1        1.247  -0.761  -0.580  0.00  0.00    -0.510 OA
ATOM     18  C   LIG    1       -2.293  -0.589  -0.426  0.00  0.00    +0.120 C 
ENDBRANCH   9  11
ENDBRANCH   4   7
BRANCH   6  19
ATOM     19  S   LIG    1       -8.795   2.767   0.870  0.00  0.00    +2.700 S 
ATOM     20  O   LIG    1       -8.404   1.482   1.333  0.00  0.00    -0.950 OA
ATOM     21  O   LIG    1       -9.745   2.962  -0.169  0.00  0.00    -0.940 OA
BRANCH  19  22
ATOM     22  N   LIG    1       -9.370   3.586   2.189  0.00  0.00    -0.990 NA
ATOM     23  C   LIG    1       -8.956   3.203   3.546  0.00  0.00    +0.290 C 
ATOM     24  C   LIG    1       -8.406   4.448   4.259  0.00  0.00    +0.000 C 
ATOM     25  C   LIG    1       -9.455   5.561   4.212  0.00  0.00    +0.010 C 
ATOM     26  C   LIG    1       -9.747   5.929   2.756  0.00  0.00    +0.010 C 
ATOM     27  C   LIG    1      -10.308   4.705   2.026  0.00  0.00    +0.290 C 
ENDBRANCH  19  22
ENDBRANCH   6  19
BRANCH   1  29
ATOM     28  C   LIG    1       -8.554   6.864  -0.704  0.00  0.00    +0.250 C 
ATOM     29  O   LIG    1       -8.570   5.527  -0.200  0.00  0.00    -0.310 OA
ENDBRANCH   1  29
TORSDOF 5
