REMARK  Name = ZINCpe000000ZHOH.0
REMARK                            x       y       z     vdW  Elec       q    Type
REMARK                         _______ _______ _______ _____ _____    ______ ____
ROOT
ATOM      1  N   LIG    1       -3.726   1.078  -3.111  0.00  0.00    -0.590 N 
ATOM      2  C   LIG    1       -3.807  -0.377  -2.913  0.00  0.00    +0.320 C 
ATOM      3  C   LIG    1       -3.336  -0.702  -1.492  0.00  0.00    +0.170 C 
ATOM      4  N   LIG    1       -2.005  -0.119  -1.275  0.00  0.00    -0.530 NA
ATOM      5  C   LIG    1       -2.045   1.347  -1.367  0.00  0.00    +0.180 C 
ATOM      6  C   LIG    1       -2.463   1.756  -2.783  0.00  0.00    +0.290 C 
ENDROOT
BRANCH   1  11
ATOM      7  O   LIG    1       -5.484   5.051  -4.588  0.00  0.00    -0.520 OA
ATOM      8  C   LIG    1       -5.641   3.870  -4.341  0.00  0.00    +0.610 A 
ATOM      9  N   LIG    1       -4.627   3.111  -3.867  0.00  0.00    -0.670 N 
ATOM     10  H   LIG    1       -3.757   3.516  -3.721  0.00  0.00    +0.410 HD
ATOM     11  C   LIG    1       -4.802   1.785  -3.590  0.00  0.00    +0.670 A 
ATOM     12  N   LIG    1       -5.930   1.148  -3.758  0.00  0.00    -0.570 NA
ATOM     13  C   LIG    1       -7.039   1.783  -4.223  0.00  0.00    +0.340 A 
ATOM     14  N   LIG    1       -8.274   1.425  -4.484  0.00  0.00    -0.290 NA
ATOM     15  N   LIG    1       -8.982   2.536  -4.958  0.00  0.00    -0.450 N 
ATOM     16  H   LIG    1       -9.916   2.532  -5.221  0.00  0.00    +0.450 HD
ATOM     17  C   LIG    1       -8.176   3.608  -4.994  0.00  0.00    +0.370 A 
ATOM     18  C   LIG    1       -6.938   3.216  -4.547  0.00  0.00    -0.380 A 
ENDBRANCH   1  11
BRANCH   4  19
ATOM     19  C   LIG    1       -1.444  -0.551   0.012  0.00  0.00    +0.210 C 
BRANCH  19  20
ATOM     20  C   LIG    1       -0.959  -1.998  -0.103  0.00  0.00    +0.200 C 
BRANCH  20  21
ATOM     21  O   LIG    1        0.104  -2.069  -1.055  0.00  0.00    -0.300 OA
BRANCH  21  22
ATOM     22  C   LIG    1        0.652  -3.292  -1.278  0.00  0.00    +0.130 A 
ATOM     23  C   LIG    1        0.180  -4.401  -0.590  0.00  0.00    -0.090 A 
ATOM     24  C   LIG    1        0.736  -5.644  -0.822  0.00  0.00    +0.040 A 
ATOM     25  C   LIG    1        1.768  -5.783  -1.731  0.00  0.00    -0.040 A 
ATOM     26  C   LIG    1        2.244  -4.679  -2.414  0.00  0.00    +0.050 A 
ATOM     27  C   LIG    1        1.689  -3.434  -2.189  0.00  0.00    -0.020 A 
ENDBRANCH  21  22
ENDBRANCH  20  21
ENDBRANCH  19  20
ENDBRANCH   4  19
TORSDOF 5
