REMARK  Name = ZINCpk00000y6uOE.0
REMARK                            x       y       z     vdW  Elec       q    Type
REMARK                         _______ _______ _______ _____ _____    ______ ____
ROOT
ATOM      1  C   LIG    1       -0.860   3.126   1.287  0.00  0.00    -0.080 C 
ATOM      2  C   LIG    1       -0.723   1.613   1.275  0.00  0.00    +0.030 C 
ATOM      3  C   LIG    1        0.010   1.117   0.035  0.00  0.00    +0.210 C 
ATOM      4  O   LIG    1       -0.692   1.585  -1.122  0.00  0.00    -0.370 OA
ATOM      5  C   LIG    1       -0.613   2.999  -1.273  0.00  0.00    +0.230 C 
ATOM      6  C   LIG    1       -2.121   3.487   2.112  0.00  0.00    +0.300 C 
ATOM      7  N   LIG    1       -3.214   3.577   1.129  0.00  0.00    -0.610 N 
ATOM      8  C   LIG    1       -4.513   3.303   1.357  0.00  0.00    +0.580 C 
ATOM      9  O   LIG    1       -4.859   2.846   2.429  0.00  0.00    -0.530 OA
ATOM     10  C   LIG    1       -2.631   4.019  -0.148  0.00  0.00    +0.270 C 
ATOM     11  C   LIG    1       -1.126   3.745  -0.074  0.00  0.00    -0.020 C 
ENDROOT
BRANCH   8  12
ATOM     12  C   LIG    1       -5.518   3.558   0.305  0.00  0.00    -0.150 A 
ATOM     13  C   LIG    1       -6.718   2.842   0.294  0.00  0.00    +0.110 A 
ATOM     14  C   LIG    1       -7.654   3.087  -0.685  0.00  0.00    -0.010 A 
ATOM     15  C   LIG    1       -7.402   4.036  -1.670  0.00  0.00    +0.170 A 
ATOM     16  C   LIG    1       -6.206   4.746  -1.665  0.00  0.00    -0.010 A 
ATOM     17  C   LIG    1       -5.267   4.511  -0.686  0.00  0.00    +0.080 A 
BRANCH  15  18
ATOM     18  N   LIG    1       -8.353   4.277  -2.666  0.00  0.00    -0.400 N 
ATOM     19  C   LIG    1       -8.230   5.183  -3.681  0.00  0.00    +0.150 A 
ATOM     20  C   LIG    1       -9.346   5.122  -4.436  0.00  0.00    -0.040 A 
ATOM     21  C   LIG    1      -10.193   4.151  -3.863  0.00  0.00    -0.040 A 
ATOM     22  C   LIG    1       -9.561   3.650  -2.782  0.00  0.00    +0.150 A 
ENDBRANCH  15  18
ENDBRANCH   8  12
BRANCH   1  26
ATOM     23  N   LIG    1        0.779   3.357   3.125  0.00  0.00    -0.850 N 
ATOM     24  H   LIG    1        1.564   3.763   3.525  0.00  0.00    +0.410 HD
ATOM     25  H   LIG    1        0.296   2.662   3.600  0.00  0.00    +0.400 HD
ATOM     26  C   LIG    1        0.359   3.757   1.908  0.00  0.00    +0.530 C 
ATOM     27  O   LIG    1        0.962   4.625   1.314  0.00  0.00    -0.530 OA
ENDBRANCH   1  26
TORSDOF 3
