REMARK  Name = ZINCrD0000072FNJ.0
REMARK                            x       y       z     vdW  Elec       q    Type
REMARK                         _______ _______ _______ _____ _____    ______ ____
ROOT
ATOM      1  C   LIG    1        0.217   6.259   0.033  0.00  0.00    +0.060 C 
ENDROOT
BRANCH   1   8
ATOM      2  C   LIG    1        0.391  12.274  -1.135  0.00  0.00    +0.300 C 
ATOM      3  N   LIG    1       -0.188  10.933  -1.016  0.00  0.00    -0.740 N 
ATOM      4  H   LIG    1       -1.122  10.787  -1.230  0.00  0.00    +0.400 HD
ATOM      5  C   LIG    1        0.578   9.902  -0.607  0.00  0.00    +0.690 C 
ATOM      6  N   LIG    1        0.046   8.669  -0.498  0.00  0.00    -0.680 N 
ATOM      7  H   LIG    1       -0.889   8.523  -0.712  0.00  0.00    +0.410 HD
ATOM      8  C   LIG    1        0.812   7.638  -0.089  0.00  0.00    +0.550 C 
ATOM      9  O   LIG    1        1.980   7.820   0.179  0.00  0.00    -0.440 OA
ATOM     10  O   LIG    1        1.750  10.085  -0.338  0.00  0.00    -0.520 OA
ENDBRANCH   1   8
BRANCH   1  11
ATOM     11  C   LIG    1       -0.547   6.155   1.328  0.00  0.00    -0.110 A 
ATOM     12  C   LIG    1        0.106   6.340   2.533  0.00  0.00    +0.040 A 
ATOM     13  C   LIG    1       -0.596   6.249   3.720  0.00  0.00    +0.010 A 
ATOM     14  C   LIG    1       -1.948   5.964   3.704  0.00  0.00    +0.030 A 
ATOM     15  C   LIG    1       -2.600   5.774   2.500  0.00  0.00    +0.010 A 
ATOM     16  C   LIG    1       -1.899   5.869   1.312  0.00  0.00    +0.060 A 
ENDBRANCH   1  11
BRANCH   1  17
ATOM     17  S   LIG    1        1.541   5.026   0.013  0.00  0.00    +0.160 S 
BRANCH  17  18
ATOM     18  C   LIG    1        0.583   3.547   0.016  0.00  0.00    +0.120 A 
ATOM     19  N   LIG    1       -0.728   3.471   0.028  0.00  0.00    -0.270 NA
ATOM     20  N   LIG    1       -1.085   2.235   0.019  0.00  0.00    -0.260 NA
ATOM     21  C   LIG    1       -0.018   1.473   0.010  0.00  0.00    +0.220 A 
ATOM     22  O   LIG    1        1.060   2.288   0.004  0.00  0.00    -0.200 OA
BRANCH  21  23
ATOM     23  C   LIG    1        0.002  -0.004   0.002  0.00  0.00    -0.040 A 
ATOM     24  C   LIG    1        1.219  -0.689  -0.019  0.00  0.00    +0.050 A 
ATOM     25  C   LIG    1        1.230  -2.068  -0.021  0.00  0.00    +0.010 A 
ATOM     26  C   LIG    1        0.040  -2.773  -0.014  0.00  0.00    -0.060 A 
ATOM     27  C   LIG    1       -1.170  -2.101   0.002  0.00  0.00    +0.020 A 
ATOM     28  C   LIG    1        0.060  -4.280  -0.021  0.00  0.00    +0.100 C 
ATOM     29  C   LIG    1       -1.196  -0.722   0.010  0.00  0.00    +0.080 A 
ENDBRANCH  21  23
ENDBRANCH  17  18
ENDBRANCH   1  17
TORSDOF 5
