REMARK  Name = ZINCpk00000ebcha.0
REMARK                            x       y       z     vdW  Elec       q    Type
REMARK                         _______ _______ _______ _____ _____    ______ ____
ROOT
ATOM      1  N   LIG    1        2.407   1.107  -0.015  0.00  0.00    -0.600 N 
ATOM      2  C   LIG    1        2.559  -0.355  -0.018  0.00  0.00    +0.270 C 
ATOM      3  C   LIG    1        4.072  -0.658  -0.066  0.00  0.00    +0.010 C 
ATOM      4  C   LIG    1        4.671   0.649  -0.650  0.00  0.00    +0.080 C 
ATOM      5  C   LIG    1        3.746   1.722  -0.025  0.00  0.00    +0.270 C 
ENDROOT
BRANCH   1  13
ATOM      6  C   LIG    1        0.669   6.277   0.027  0.00  0.00    +0.210 C 
ATOM      7  C   LIG    1       -0.311   5.133   0.031  0.00  0.00    +0.200 A 
ATOM      8  N   LIG    1       -1.618   5.233   0.044  0.00  0.00    -0.260 NA
ATOM      9  N   LIG    1       -2.153   4.063   0.043  0.00  0.00    -0.250 NA
ATOM     10  C   LIG    1       -1.198   3.146   0.029  0.00  0.00    +0.110 A 
ATOM     11  C   LIG    1       -1.199   1.738   0.017  0.00  0.00    +0.190 A 
ATOM     12  C   LIG    1       -0.013   1.076   0.008  0.00  0.00    -0.020 A 
ATOM     13  C   LIG    1        1.198   1.796   0.000  0.00  0.00    +0.440 A 
ATOM     14  N   LIG    1        1.200   3.108   0.007  0.00  0.00    -0.340 NA
ATOM     15  N   LIG    1       -0.002   3.819   0.022  0.00  0.00    -0.270 N 
ENDBRANCH   1  13
BRANCH   4  16
ATOM     16  C   LIG    1        6.098   0.838  -0.202  0.00  0.00    -0.240 A 
ATOM     17  C   LIG    1        7.165   1.046  -1.009  0.00  0.00    +0.240 A 
ATOM     18  N   LIG    1        8.256   1.164  -0.224  0.00  0.00    -0.360 N 
ATOM     19  N   LIG    1        7.847   1.024   1.108  0.00  0.00    -0.290 NA
ATOM     20  C   LIG    1        6.552   0.834   1.120  0.00  0.00    +0.240 A 
BRANCH  18  21
ATOM     21  C   LIG    1        9.627   1.398  -0.684  0.00  0.00    +0.250 C 
ATOM     22  C   LIG    1        9.604   2.306  -1.916  0.00  0.00    +0.050 C 
ATOM     23  C   LIG    1       10.278   0.062  -1.048  0.00  0.00    +0.040 C 
ENDBRANCH  18  21
ENDBRANCH   4  16
BRANCH   3  24
ATOM     24  C   LIG    1        4.361  -1.845  -0.987  0.00  0.00    +0.190 C 
BRANCH  24  25
ATOM     25  O   LIG    1        3.901  -3.049  -0.370  0.00  0.00    -0.570 OA
ATOM     26  H   LIG    1        4.052  -3.844  -0.899  0.00  0.00    +0.380 HD
ENDBRANCH  24  25
ENDBRANCH   3  24
TORSDOF 5
