REMARK  Name = ZINCb70000002u54.0
REMARK                            x       y       z     vdW  Elec       q    Type
REMARK                         _______ _______ _______ _____ _____    ______ ____
ROOT
ATOM      1  C   LIG    1       -0.016   1.342   0.009  0.00  0.00    +0.670 C 
ATOM      2  N   LIG    1       -1.192   2.000   0.019  0.00  0.00    -0.610 N 
ATOM      3  C   LIG    1       -2.527   1.374   0.015  0.00  0.00    +0.290 C 
ATOM      4  C   LIG    1       -3.464   2.439   0.642  0.00  0.00    +0.070 C 
ATOM      5  C   LIG    1       -2.872   3.751   0.062  0.00  0.00    +0.180 C 
ATOM      6  C   LIG    1       -1.357   3.461   0.027  0.00  0.00    +0.310 C 
ATOM      7  O   LIG    1        1.028   1.964   0.003  0.00  0.00    -0.550 OA
ENDROOT
BRANCH   5   8
ATOM      8  N   LIG    1       -3.163   4.888   0.946  0.00  0.00    -0.630 N 
ATOM      9  H   LIG    1       -2.829   4.685   1.876  0.00  0.00    +0.440 HD
ATOM     10  H   LIG    1       -4.160   5.046   0.974  0.00  0.00    +0.440 HD
ATOM     11  H   LIG    1       -2.701   5.714   0.595  0.00  0.00    +0.440 HD
ENDBRANCH   5   8
BRANCH   1  12
ATOM     12  O   LIG    1        0.002  -0.004   0.002  0.00  0.00    -0.360 OA
BRANCH  12  14
ATOM     13  C   LIG    1        1.125  -2.165  -0.020  0.00  0.00    +0.070 C 
ATOM     14  C   LIG    1        1.305  -0.646  -0.014  0.00  0.00    +0.240 C 
ENDBRANCH  12  14
ENDBRANCH   1  12
TORSDOF 3
