REMARK  Name = ZINCrH000004kLmc.0
REMARK                            x       y       z     vdW  Elec       q    Type
REMARK                         _______ _______ _______ _____ _____    ______ ____
ROOT
ATOM      1  C   LIG    1       -2.091   8.327  -1.898  0.00  0.00    +0.420 C 
ATOM      2  O   LIG    1       -1.221   8.951  -2.472  0.00  0.00    -0.420 OA
ENDROOT
BRANCH   1   7
ATOM      3  C   LIG    1       -4.944   7.929  -4.088  0.00  0.00    -0.220 A 
ATOM      4  C   LIG    1       -5.359   7.278  -2.939  0.00  0.00    +0.130 A 
ATOM      5  N   LIG    1       -4.376   7.345  -2.028  0.00  0.00    -0.510 N 
ATOM      6  H   LIG    1       -4.410   6.963  -1.137  0.00  0.00    +0.420 HD
ATOM      7  C   LIG    1       -3.312   8.045  -2.558  0.00  0.00    -0.090 A 
ATOM      8  C   LIG    1       -6.691   6.600  -2.746  0.00  0.00    +0.160 C 
ATOM      9  C   LIG    1       -3.642   8.416  -3.843  0.00  0.00    -0.010 A 
ATOM     10  C   LIG    1       -2.779   9.194  -4.804  0.00  0.00    +0.140 C 
BRANCH   3  11
ATOM     11  C   LIG    1       -5.717   8.085  -5.332  0.00  0.00    +0.550 C 
ATOM     12  O   LIG    1       -5.630   7.249  -6.209  0.00  0.00    -0.490 OA
BRANCH  11  14
ATOM     13  C   LIG    1       -7.251   9.243  -6.748  0.00  0.00    +0.250 C 
ATOM     14  O   LIG    1       -6.519   9.155  -5.497  0.00  0.00    -0.350 OA
ENDBRANCH  11  14
ENDBRANCH   3  11
ENDBRANCH   1   7
BRANCH   1  15
ATOM     15  C   LIG    1       -1.872   7.854  -0.484  0.00  0.00    +0.090 C 
ATOM     16  C   LIG    1       -2.492   8.857   0.491  0.00  0.00    +0.070 C 
BRANCH  15  17
ATOM     17  N   LIG    1       -0.431   7.744  -0.223  0.00  0.00    -0.500 NA
ATOM     18  C   LIG    1        0.207   6.821  -1.170  0.00  0.00    +0.270 C 
ATOM     19  C   LIG    1       -0.172   5.403  -0.851  0.00  0.00    -0.060 C 
ATOM     20  C   LIG    1       -0.692   5.041   0.301  0.00  0.00    -0.090 C 
ATOM     21  C   LIG    1       -0.954   6.016   1.415  0.00  0.00    +0.030 C 
ATOM     22  C   LIG    1       -0.177   7.311   1.161  0.00  0.00    +0.230 C 
BRANCH  20  23
ATOM     23  C   LIG    1       -1.028   3.617   0.511  0.00  0.00    -0.050 A 
ATOM     24  C   LIG    1       -0.018   2.655   0.532  0.00  0.00    +0.010 A 
ATOM     25  C   LIG    1       -0.339   1.327   0.729  0.00  0.00    +0.000 A 
ATOM     26  C   LIG    1       -1.658   0.950   0.904  0.00  0.00    +0.000 A 
ATOM     27  C   LIG    1       -2.664   1.898   0.879  0.00  0.00    +0.000 A 
ATOM     28  C   LIG    1       -2.357   3.230   0.689  0.00  0.00    +0.010 A 
ENDBRANCH  20  23
ENDBRANCH  15  17
ENDBRANCH   1  15
TORSDOF 6
