REMARK  Name = ZINCtV000002P9Uy.0
REMARK                            x       y       z     vdW  Elec       q    Type
REMARK                         _______ _______ _______ _____ _____    ______ ____
ROOT
ATOM      1  O   LIG    1       -2.398  -0.666  -2.184  0.00  0.00    -0.480 OA
ATOM      2  C   LIG    1       -1.875  -0.225  -1.181  0.00  0.00    +0.510 C 
ENDROOT
BRANCH   2   3
ATOM      3  C   LIG    1       -0.565   0.451  -1.267  0.00  0.00    -0.170 A 
ATOM      4  C   LIG    1        0.046   0.962  -0.120  0.00  0.00    +0.330 A 
ATOM      5  N   LIG    1        1.218   1.560  -0.188  0.00  0.00    -0.480 NA
ATOM      6  C   LIG    1        1.860   1.710  -1.329  0.00  0.00    +0.320 A 
ATOM      7  C   LIG    1        1.320   1.234  -2.524  0.00  0.00    -0.100 A 
ATOM      8  C   LIG    1        0.081   0.593  -2.499  0.00  0.00    +0.150 A 
BRANCH   7   9
ATOM      9  C   LIG    1        2.053   1.407  -3.803  0.00  0.00    -0.040 A 
ATOM     10  C   LIG    1        1.508   0.924  -4.991  0.00  0.00    +0.040 A 
ATOM     11  C   LIG    1        2.192   1.091  -6.178  0.00  0.00    +0.040 A 
ATOM     12  C   LIG    1        3.420   1.728  -6.188  0.00  0.00    -0.030 A 
ATOM     13  C   LIG    1        3.967   2.206  -5.010  0.00  0.00    +0.040 A 
ATOM     14 CL   LIG    1        4.278   1.930  -7.684  0.00  0.00    -0.060 Cl
ATOM     15  C   LIG    1        3.290   2.048  -3.818  0.00  0.00    +0.050 A 
ENDBRANCH   7   9
ENDBRANCH   2   3
BRANCH   2  16
ATOM     16  O   LIG    1       -2.490  -0.352   0.011  0.00  0.00    -0.280 OA
BRANCH  16  17
ATOM     17  C   LIG    1       -3.739  -0.888   0.007  0.00  0.00    +0.080 A 
ATOM     18  C   LIG    1       -4.851  -0.060  -0.044  0.00  0.00    +0.020 A 
ATOM     19  C   LIG    1       -6.119  -0.608  -0.049  0.00  0.00    +0.020 A 
ATOM     20  C   LIG    1       -6.281  -1.980  -0.003  0.00  0.00    +0.020 A 
ATOM     21  C   LIG    1       -5.175  -2.808   0.048  0.00  0.00    +0.030 A 
ATOM     22  C   LIG    1       -3.905  -2.266   0.047  0.00  0.00    -0.070 A 
BRANCH  22  23
ATOM     23  C   LIG    1       -2.699  -3.169   0.096  0.00  0.00    +0.130 C 
BRANCH  23  24
ATOM     24  C   LIG    1       -2.247  -3.326   1.525  0.00  0.00    -0.080 A 
ATOM     25  C   LIG    1       -1.318  -2.451   2.057  0.00  0.00    +0.010 A 
ATOM     26  C   LIG    1       -0.907  -2.593   3.369  0.00  0.00    +0.000 A 
ATOM     27  C   LIG    1       -1.417  -3.616   4.146  0.00  0.00    +0.000 A 
ATOM     28  C   LIG    1       -2.342  -4.494   3.613  0.00  0.00    +0.000 A 
ATOM     29  C   LIG    1       -2.757  -4.349   2.302  0.00  0.00    +0.010 A 
ENDBRANCH  23  24
ENDBRANCH  22  23
ENDBRANCH  16  17
ENDBRANCH   2  16
TORSDOF 6
