REMARK  Name = ZINCrH000004saz8.0
REMARK                            x       y       z     vdW  Elec       q    Type
REMARK                         _______ _______ _______ _____ _____    ______ ____
ROOT
ATOM      1  C   LIG    1       -2.503  -2.824   0.083  0.00  0.00    -0.280 A 
ATOM      2  C   LIG    1       -2.591  -4.149  -0.331  0.00  0.00    +0.370 A 
ATOM      3  N   LIG    1       -3.878  -4.378  -0.665  0.00  0.00    -0.310 N 
ATOM      4  N   LIG    1       -4.604  -3.199  -0.463  0.00  0.00    -0.250 NA
ATOM      5  C   LIG    1       -3.802  -2.273  -0.015  0.00  0.00    +0.300 A 
ENDROOT
BRANCH   3   6
ATOM      6  C   LIG    1       -4.401  -5.591  -1.134  0.00  0.00    +0.090 A 
ATOM      7  C   LIG    1       -3.771  -6.264  -2.171  0.00  0.00    +0.070 A 
ATOM      8  C   LIG    1       -4.284  -7.464  -2.627  0.00  0.00    +0.040 A 
ATOM      9  C   LIG    1       -5.431  -7.988  -2.061  0.00  0.00    +0.080 A 
ATOM     10  C   LIG    1       -6.065  -7.318  -1.031  0.00  0.00    +0.010 A 
ATOM     11  C   LIG    1       -5.554  -6.120  -0.565  0.00  0.00    +0.120 A 
ATOM     12  F   LIG    1       -6.174  -5.465   0.441  0.00  0.00    -0.120 F 
ENDBRANCH   3   6
BRANCH   2  13
ATOM     13  N   LIG    1       -1.548  -5.065  -0.389  0.00  0.00    -0.400 N 
ATOM     14  C   LIG    1       -1.522  -6.285   0.227  0.00  0.00    +0.140 A 
ATOM     15  C   LIG    1       -0.350  -6.881  -0.068  0.00  0.00    -0.030 A 
ATOM     16  C   LIG    1        0.381  -5.997  -0.888  0.00  0.00    -0.040 A 
ATOM     17  C   LIG    1       -0.373  -4.895  -1.069  0.00  0.00    +0.200 A 
ENDBRANCH   2  13
BRANCH   1  20
ATOM     18  N   LIG    1       -1.357  -0.836   0.913  0.00  0.00    -0.660 N 
ATOM     19  H   LIG    1       -2.214  -0.383   0.947  0.00  0.00    +0.420 HD
ATOM     20  C   LIG    1       -1.292  -2.129   0.540  0.00  0.00    +0.580 C 
ATOM     21  O   LIG    1       -0.230  -2.722   0.583  0.00  0.00    -0.460 OA
BRANCH  18  27
ATOM     22  C   LIG    1        0.891   3.359   2.164  0.00  0.00    +0.100 C 
ATOM     23  C   LIG    1        0.912   1.884   1.858  0.00  0.00    -0.010 A 
ATOM     24  C   LIG    1        2.100   1.167   1.901  0.00  0.00    -0.070 A 
ATOM     25  C   LIG    1        2.086  -0.184   1.614  0.00  0.00    +0.300 A 
ATOM     26  N   LIG    1        0.961  -0.797   1.301  0.00  0.00    -0.480 NA
ATOM     27  C   LIG    1       -0.192  -0.148   1.249  0.00  0.00    +0.370 A 
ATOM     28  C   LIG    1       -0.252   1.213   1.526  0.00  0.00    -0.070 A 
ENDBRANCH  18  27
ENDBRANCH   1  20
TORSDOF 4
