REMARK  Name = ZINCrH000004l85H.0
REMARK                            x       y       z     vdW  Elec       q    Type
REMARK                         _______ _______ _______ _____ _____    ______ ____
ROOT
ATOM      1  C   LIG    1       -3.840  -0.647   0.019  0.00  0.00    +0.350 A 
ATOM      2  N   LIG    1       -2.560  -0.355   0.014  0.00  0.00    -0.340 NA
ATOM      3  N   LIG    1       -2.429   1.040   0.020  0.00  0.00    -0.330 N 
ATOM      4  C   LIG    1       -3.676   1.577   0.034  0.00  0.00    +0.260 A 
ATOM      5  C   LIG    1       -4.564   0.556   0.028  0.00  0.00    -0.120 A 
ENDROOT
BRANCH   3   6
ATOM      6  C   LIG    1       -1.224   1.754   0.017  0.00  0.00    +0.180 A 
ATOM      7  C   LIG    1       -1.239   3.143   0.029  0.00  0.00    +0.020 A 
ATOM      8  C   LIG    1       -0.049   3.845   0.021  0.00  0.00    +0.060 A 
ATOM      9  C   LIG    1        1.155   3.166   0.007  0.00  0.00    +0.050 A 
ATOM     10  C   LIG    1        1.173   1.783   0.000  0.00  0.00    -0.160 A 
ATOM     11  C   LIG    1       -0.013   1.076   0.008  0.00  0.00    +0.070 A 
BRANCH  10  12
ATOM     12  C   LIG    1        2.489   1.048  -0.016  0.00  0.00    +0.510 C 
ATOM     13  F   LIG    1        2.344  -0.180   0.639  0.00  0.00    -0.170 F 
ATOM     14  F   LIG    1        3.459   1.813   0.639  0.00  0.00    -0.170 F 
ATOM     15  F   LIG    1        2.883   0.827  -1.339  0.00  0.00    -0.170 F 
ENDBRANCH  10  12
ENDBRANCH   3   6
BRANCH   1  16
ATOM     16  N   LIG    1       -4.387  -1.934   0.015  0.00  0.00    -0.710 N 
ATOM     17  H   LIG    1       -3.804  -2.709   0.008  0.00  0.00    +0.410 HD
BRANCH  16  18
ATOM     18  C   LIG    1       -5.841  -2.112   0.021  0.00  0.00    +0.450 C 
BRANCH  18  22
ATOM     19  C   LIG    1       -6.606  -5.575   0.581  0.00  0.00    +0.180 A 
ATOM     20  N   LIG    1       -6.595  -5.491  -0.716  0.00  0.00    -0.360 NA
ATOM     21  O   LIG    1       -6.345  -4.355  -1.061  0.00  0.00    +0.100 OA
ATOM     22  C   LIG    1       -6.168  -3.583   0.015  0.00  0.00    +0.150 A 
ATOM     23  N   LIG    1       -6.327  -4.352   1.066  0.00  0.00    -0.430 NA
BRANCH  19  24
ATOM     24  C   LIG    1       -6.876  -6.816   1.391  0.00  0.00    +0.210 C 
ATOM     25  C   LIG    1       -5.835  -7.884   1.050  0.00  0.00    +0.050 C 
ATOM     26  C   LIG    1       -8.274  -7.344   1.066  0.00  0.00    +0.050 C 
BRANCH  24  28
ATOM     27  C   LIG    1       -7.039  -7.616   3.645  0.00  0.00    +0.210 C 
ATOM     28  O   LIG    1       -6.798  -6.502   2.783  0.00  0.00    -0.360 OA
ENDBRANCH  24  28
ENDBRANCH  19  24
ENDBRANCH  18  22
ENDBRANCH  16  18
ENDBRANCH   1  16
TORSDOF 7
