REMARK  Name = ZINCrH000004qzSy.0
REMARK                            x       y       z     vdW  Elec       q    Type
REMARK                         _______ _______ _______ _____ _____    ______ ____
ROOT
ATOM      1  C   LIG    1        1.528  -1.928  -0.790  0.00  0.00    +0.620 C 
ATOM      2  N   LIG    1        0.754  -2.830  -0.155  0.00  0.00    -0.640 N 
ATOM      3  H   LIG    1       -0.037  -2.538   0.325  0.00  0.00    +0.430 HD
ATOM      4  O   LIG    1        2.556  -2.284  -1.332  0.00  0.00    -0.480 OA
ENDROOT
BRANCH   1  12
ATOM      5  C   LIG    1        2.502   3.321  -2.392  0.00  0.00    +0.160 C 
ATOM      6  C   LIG    1        1.282   2.941  -1.593  0.00  0.00    +0.210 A 
ATOM      7  C   LIG    1        0.373   3.882  -1.235  0.00  0.00    -0.040 A 
ATOM      8  C   LIG    1       -0.753   3.499  -0.492  0.00  0.00    +0.240 A 
ATOM      9  N   LIG    1       -0.922   2.246  -0.141  0.00  0.00    -0.460 NA
ATOM     10  C   LIG    1       -0.032   1.308  -0.493  0.00  0.00    +0.460 A 
ATOM     11  N   LIG    1        0.023   0.002  -0.272  0.00  0.00    -0.500 NA
ATOM     12  C   LIG    1        1.125  -0.504  -0.829  0.00  0.00    +0.240 A 
ATOM     13  N   LIG    1        1.801   0.465  -1.419  0.00  0.00    -0.260 NA
ATOM     14  C   LIG    1       -1.772   4.534  -0.089  0.00  0.00    +0.170 C 
ATOM     15  N   LIG    1        1.077   1.648  -1.219  0.00  0.00    -0.330 N 
ENDBRANCH   1  12
BRANCH   2  16
ATOM     16  C   LIG    1        1.091  -4.189  -0.187  0.00  0.00    +0.140 A 
ATOM     17  C   LIG    1        2.424  -4.574  -0.195  0.00  0.00    +0.040 A 
ATOM     18  C   LIG    1        2.754  -5.916  -0.227  0.00  0.00    +0.050 A 
ATOM     19  C   LIG    1        1.760  -6.876  -0.250  0.00  0.00    +0.020 A 
ATOM     20  C   LIG    1        0.429  -6.500  -0.242  0.00  0.00    +0.040 A 
ATOM     21  C   LIG    1        0.089  -5.157  -0.205  0.00  0.00    +0.060 A 
BRANCH  21  22
ATOM     22  O   LIG    1       -1.218  -4.786  -0.192  0.00  0.00    -0.250 OA
BRANCH  22  23
ATOM     23  C   LIG    1       -1.817  -4.516  -1.381  0.00  0.00    +0.120 A 
ATOM     24  C   LIG    1       -1.070  -4.514  -2.551  0.00  0.00    -0.060 A 
ATOM     25  C   LIG    1       -1.683  -4.245  -3.759  0.00  0.00    +0.040 A 
ATOM     26  C   LIG    1       -3.037  -3.966  -3.803  0.00  0.00    -0.030 A 
ATOM     27  C   LIG    1       -3.782  -3.961  -2.638  0.00  0.00    +0.050 A 
ATOM     28  C   LIG    1       -3.175  -4.236  -1.427  0.00  0.00    -0.010 A 
ENDBRANCH  22  23
ENDBRANCH  21  22
ENDBRANCH   2  16
TORSDOF 4
