REMARK  Name = ZINCtV00000tRQUV.0
REMARK                            x       y       z     vdW  Elec       q    Type
REMARK                         _______ _______ _______ _____ _____    ______ ____
ROOT
ATOM      1  N   LIG    1       -4.637   4.388   0.513  0.00  0.00    -0.470 N 
ATOM      2  C   LIG    1       -4.333   5.098  -0.629  0.00  0.00    +0.100 A 
ATOM      3  C   LIG    1       -5.101   5.866  -1.500  0.00  0.00    -0.010 A 
ATOM      4  C   LIG    1       -4.507   6.471  -2.586  0.00  0.00    +0.040 A 
ATOM      5  C   LIG    1       -3.148   6.323  -2.823  0.00  0.00    -0.110 A 
ATOM      6  C   LIG    1       -2.375   5.573  -1.981  0.00  0.00    +0.050 A 
ATOM      7  C   LIG    1       -2.519   6.994  -4.017  0.00  0.00    +0.080 C 
ATOM      8  C   LIG    1       -2.957   4.952  -0.875  0.00  0.00    -0.080 A 
ATOM      9  C   LIG    1       -2.434   4.098   0.202  0.00  0.00    -0.120 A 
ATOM     10  C   LIG    1       -3.507   3.785   1.009  0.00  0.00    +0.130 A 
ENDROOT
BRANCH   9  11
ATOM     11  C   LIG    1       -1.033   3.656   0.380  0.00  0.00    -0.000 A 
ATOM     12  C   LIG    1       -0.445   2.797  -0.549  0.00  0.00    +0.010 A 
ATOM     13  C   LIG    1        0.859   2.384  -0.374  0.00  0.00    +0.000 A 
ATOM     14  C   LIG    1        1.589   2.829   0.714  0.00  0.00    +0.000 A 
ATOM     15  C   LIG    1        1.014   3.685   1.636  0.00  0.00    +0.000 A 
ATOM     16  C   LIG    1       -0.292   4.101   1.476  0.00  0.00    +0.020 A 
ENDBRANCH   9  11
BRANCH  10  17
ATOM     17  C   LIG    1       -3.450   2.939   2.218  0.00  0.00    -0.040 A 
ATOM     18  C   LIG    1       -3.920   3.427   3.439  0.00  0.00    +0.010 A 
ATOM     19  C   LIG    1       -3.868   2.629   4.563  0.00  0.00    +0.010 A 
ATOM     20  C   LIG    1       -3.342   1.352   4.485  0.00  0.00    +0.020 A 
ATOM     21  C   LIG    1       -2.869   0.864   3.279  0.00  0.00    +0.010 A 
ATOM     22  C   LIG    1       -2.920   1.649   2.146  0.00  0.00    +0.050 A 
ENDBRANCH  10  17
BRANCH   1  23
ATOM     23  C   LIG    1       -5.972   4.287   1.108  0.00  0.00    +0.320 C 
BRANCH  23  24
ATOM     24  C   LIG    1       -6.704   3.081   0.515  0.00  0.00    +0.090 C 
BRANCH  24  25
ATOM     25  C   LIG    1       -8.077   2.977   1.127  0.00  0.00    +0.470 C 
ATOM     26  O   LIG    1       -8.434   3.785   1.952  0.00  0.00    -0.510 OA
BRANCH  25  27
ATOM     27  O   LIG    1       -8.904   1.988   0.756  0.00  0.00    -0.360 OA
BRANCH  27  29
ATOM     28  C   LIG    1      -11.007   0.761   0.841  0.00  0.00    +0.070 C 
ATOM     29  C   LIG    1      -10.211   1.949   1.387  0.00  0.00    +0.200 C 
ENDBRANCH  27  29
ENDBRANCH  25  27
ENDBRANCH  24  25
ENDBRANCH  23  24
ENDBRANCH   1  23
TORSDOF 7
