REMARK  Name = ZINCqH0000008zLj.0
REMARK                            x       y       z     vdW  Elec       q    Type
REMARK                         _______ _______ _______ _____ _____    ______ ____
ROOT
ATOM      1  C   LIG    1        1.033  -2.109  -4.744  0.00  0.00    +0.280 A 
ATOM      2  C   LIG    1        2.375  -1.810  -4.932  0.00  0.00    -0.060 A 
ATOM      3  C   LIG    1        3.035  -2.266  -6.056  0.00  0.00    +0.040 A 
ATOM      4  C   LIG    1        2.365  -3.024  -7.005  0.00  0.00    -0.040 A 
ATOM      5  C   LIG    1        1.033  -3.331  -6.834  0.00  0.00    +0.120 A 
ATOM      6 CL   LIG    1        4.714  -1.887  -6.285  0.00  0.00    -0.060 Cl
ATOM      7  C   LIG    1        0.353  -2.882  -5.699  0.00  0.00    -0.210 A 
ENDROOT
BRANCH   7   8
ATOM      8  C   LIG    1       -1.071  -3.212  -5.509  0.00  0.00    +0.570 C 
ATOM      9  N   LIG    1       -1.484  -4.492  -5.598  0.00  0.00    -0.610 N 
ATOM     10  C   LIG    1       -0.513  -5.581  -5.775  0.00  0.00    +0.260 C 
ATOM     11  C   LIG    1       -0.747  -6.627  -4.675  0.00  0.00    +0.010 C 
ATOM     12  C   LIG    1       -2.209  -7.077  -4.709  0.00  0.00    +0.020 C 
ATOM     13  C   LIG    1       -3.120  -5.878  -4.435  0.00  0.00    +0.020 C 
ATOM     14  C   LIG    1       -2.913  -4.824  -5.527  0.00  0.00    +0.270 C 
ATOM     15  O   LIG    1       -1.873  -2.329  -5.271  0.00  0.00    -0.530 OA
ENDBRANCH   7   8
BRANCH   1  16
ATOM     16  N   LIG    1        0.367  -1.652  -3.614  0.00  0.00    -0.720 N 
ATOM     17  H   LIG    1       -0.548  -1.927  -3.446  0.00  0.00    +0.420 HD
BRANCH  16  18
ATOM     18  C   LIG    1        1.047  -0.756  -2.676  0.00  0.00    +0.280 C 
BRANCH  18  26
ATOM     19  C   LIG    1       -1.708   0.033   0.382  0.00  0.00    +0.050 C 
ATOM     20  C   LIG    1       -0.335   0.670   0.606  0.00  0.00    +0.210 C 
ATOM     21  C   LIG    1       -0.491   2.184   0.771  0.00  0.00    +0.020 C 
ATOM     22  C   LIG    1        0.893   2.830   0.856  0.00  0.00    +0.020 C 
ATOM     23  C   LIG    1        1.663   2.562  -0.440  0.00  0.00    +0.010 C 
ATOM     24  C   LIG    1        1.844   1.052  -0.619  0.00  0.00    +0.270 C 
ATOM     25  N   LIG    1        0.525   0.407  -0.556  0.00  0.00    -0.610 N 
ATOM     26  C   LIG    1        0.113  -0.411  -1.545  0.00  0.00    +0.510 C 
ATOM     27  O   LIG    1       -1.010  -0.868  -1.524  0.00  0.00    -0.520 OA
ENDBRANCH  18  26
ENDBRANCH  16  18
ENDBRANCH   1  16
TORSDOF 4
