REMARK  Name = ZINCqH0000007C0G.0
REMARK                            x       y       z     vdW  Elec       q    Type
REMARK                         _______ _______ _______ _____ _____    ______ ____
ROOT
ATOM      1  C   LIG    1        0.064  -4.532   1.631  0.00  0.00    +0.220 A 
ATOM      2  N   LIG    1       -0.091  -4.197   0.372  0.00  0.00    -0.260 NA
ATOM      3  N   LIG    1       -0.042  -2.919   0.248  0.00  0.00    -0.290 NA
ATOM      4  C   LIG    1        0.148  -2.359   1.422  0.00  0.00    +0.160 A 
ATOM      5  N   LIG    1        0.228  -3.365   2.342  0.00  0.00    -0.460 N 
ATOM      6  C   LIG    1        0.440  -3.230   3.785  0.00  0.00    +0.350 C 
ENDROOT
BRANCH   1  11
ATOM      7  C   LIG    1        0.278  -8.278   1.861  0.00  0.00    +0.130 A 
ATOM      8  C   LIG    1        0.077  -8.475   3.220  0.00  0.00    -0.070 A 
ATOM      9  C   LIG    1       -0.126  -7.394   4.058  0.00  0.00    +0.060 A 
ATOM     10  C   LIG    1       -0.131  -6.112   3.548  0.00  0.00    -0.020 A 
ATOM     11  C   LIG    1        0.070  -5.904   2.182  0.00  0.00    +0.020 A 
ATOM     12  C   LIG    1        0.269  -6.996   1.337  0.00  0.00    +0.040 A 
BRANCH   7  14
ATOM     13  C   LIG    1        0.467 -10.639   1.649  0.00  0.00    +0.250 C 
ATOM     14  O   LIG    1        0.476  -9.345   1.042  0.00  0.00    -0.310 OA
ENDBRANCH   7  14
ENDBRANCH   1  11
BRANCH   4  15
ATOM     15  S   LIG    1        0.281  -0.632   1.747  0.00  0.00    +0.020 S 
BRANCH  15  16
ATOM     16  C   LIG    1        0.085   0.019   0.070  0.00  0.00    +0.220 C 
BRANCH  16  17
ATOM     17  C   LIG    1        0.167   1.524   0.103  0.00  0.00    +0.060 A 
ATOM     18  C   LIG    1        1.295   2.254  -0.029  0.00  0.00    +0.120 A 
ATOM     19  N   LIG    1        0.936   3.572   0.057  0.00  0.00    -0.360 N 
ATOM     20  C   LIG    1        1.654   4.731  -0.006  0.00  0.00    +0.210 A 
ATOM     21  C   LIG    1        1.041   5.927   0.113  0.00  0.00    -0.100 A 
ATOM     22  C   LIG    1       -0.349   5.994   0.303  0.00  0.00    +0.050 A 
ATOM     23  C   LIG    1       -1.077   4.847   0.368  0.00  0.00    +0.080 A 
ATOM     24  C   LIG    1        1.851   7.196   0.040  0.00  0.00    +0.130 C 
ATOM     25  C   LIG    1       -0.422   3.606   0.243  0.00  0.00    +0.230 A 
ATOM     26  N   LIG    1       -0.865   2.357   0.261  0.00  0.00    -0.470 NA
ENDBRANCH  16  17
ENDBRANCH  15  16
ENDBRANCH   4  15
TORSDOF 5
