REMARK  Name = ZINCqH00000329g9.0
REMARK                            x       y       z     vdW  Elec       q    Type
REMARK                         _______ _______ _______ _____ _____    ______ ____
ROOT
ATOM      1  N   LIG    1        3.087   3.080  -3.140  0.00  0.00    -0.680 N 
ATOM      2  H   LIG    1        2.672   2.399  -3.692  0.00  0.00    +0.410 HD
ATOM      3  C   LIG    1        3.235   2.878  -1.816  0.00  0.00    +0.710 C 
ATOM      4  N   LIG    1        2.712   1.776  -1.239  0.00  0.00    -0.630 N 
ATOM      5  C   LIG    1        1.985   0.799  -2.037  0.00  0.00    +0.270 C 
ATOM      6  C   LIG    1        0.530   1.111  -2.260  0.00  0.00    +0.050 C 
ATOM      7  C   LIG    1       -0.353   1.127  -1.038  0.00  0.00    -0.260 C 
ATOM      8  C   LIG    1       -0.124  -0.213  -0.301  0.00  0.00    +0.030 C 
ATOM      9  C   LIG    1        1.055  -0.140   0.655  0.00  0.00    +0.030 C 
ATOM     10  C   LIG    1        1.547   1.283   0.909  0.00  0.00    -0.280 C 
ATOM     11  S   LIG    1        0.296   2.376   0.136  0.00  0.00    +1.230 S 
ATOM     12  O   LIG    1       -0.705   2.703   1.089  0.00  0.00    -0.850 OA
ATOM     13  C   LIG    1        2.880   1.540   0.220  0.00  0.00    +0.350 C 
ATOM     14  O   LIG    1        3.841   3.688  -1.141  0.00  0.00    -0.560 OA
ENDROOT
BRANCH   1  18
ATOM     15  C   LIG    1        4.410   6.641  -4.865  0.00  0.00    +0.090 A 
ATOM     16  C   LIG    1        3.914   6.640  -3.571  0.00  0.00    -0.020 A 
ATOM     17  C   LIG    1        3.470   5.462  -3.001  0.00  0.00    +0.060 A 
ATOM     18  C   LIG    1        3.532   4.276  -3.720  0.00  0.00    +0.160 A 
ATOM     19  C   LIG    1        4.030   4.276  -5.016  0.00  0.00    +0.010 A 
ATOM     20  C   LIG    1        4.468   5.456  -5.588  0.00  0.00    +0.090 A 
ATOM     21  F   LIG    1        4.952   5.457  -6.849  0.00  0.00    -0.130 F 
BRANCH  15  22
ATOM     22  O   LIG    1        4.841   7.802  -5.427  0.00  0.00    -0.310 OA
BRANCH  22  23
ATOM     23  C   LIG    1        4.753   8.982  -4.626  0.00  0.00    +0.190 C 
BRANCH  23  24
ATOM     24  C   LIG    1        5.280  10.179  -5.421  0.00  0.00    +0.040 C 
BRANCH  24  26
ATOM     25  C   LIG    1        6.121  11.313  -3.360  0.00  0.00    +0.030 C 
ATOM     26  C   LIG    1        5.185  11.442  -4.564  0.00  0.00    -0.020 C 
ATOM     27  C   LIG    1        5.594  12.657  -5.399  0.00  0.00    +0.030 C 
ENDBRANCH  24  26
ENDBRANCH  23  24
ENDBRANCH  22  23
ENDBRANCH  15  22
ENDBRANCH   1  18
TORSDOF 5
