REMARK  Name = ZINCvU0000000Jjd.0
REMARK                            x       y       z     vdW  Elec       q    Type
REMARK                         _______ _______ _______ _____ _____    ______ ____
ROOT
ATOM      1  O   LIG    1       10.143   3.006  -0.181  0.00  0.00    -0.520 OA
ATOM      2  C   LIG    1       10.755   1.960  -0.193  0.00  0.00    +0.520 C 
ATOM      3  N   LIG    1       10.093   0.790  -0.091  0.00  0.00    -0.680 N 
ATOM      4  H   LIG    1       10.586  -0.042  -0.023  0.00  0.00    +0.410 HD
ENDROOT
BRANCH   3   5
ATOM      5  C   LIG    1        8.696   0.777  -0.083  0.00  0.00    +0.180 A 
ATOM      6  C   LIG    1        7.990   1.716  -0.827  0.00  0.00    +0.020 A 
ATOM      7  C   LIG    1        6.612   1.706  -0.821  0.00  0.00    +0.100 A 
ATOM      8  C   LIG    1        5.925   0.751  -0.068  0.00  0.00    -0.050 A 
ATOM      9  C   LIG    1        6.638  -0.188   0.681  0.00  0.00    +0.080 A 
ATOM     10  C   LIG    1        8.016  -0.176   0.667  0.00  0.00    -0.010 A 
BRANCH   8  11
ATOM     11  C   LIG    1        4.449   0.737  -0.060  0.00  0.00    +0.300 A 
ATOM     12  N   LIG    1        3.686   1.571  -0.721  0.00  0.00    -0.470 NA
ATOM     13  C   LIG    1        2.387   1.261  -0.478  0.00  0.00    +0.030 A 
ATOM     14  C   LIG    1        1.171   1.799  -0.906  0.00  0.00    +0.080 A 
ATOM     15  C   LIG    1       -0.012   1.245  -0.470  0.00  0.00    +0.020 A 
ATOM     16  C   LIG    1       -0.003   0.157   0.389  0.00  0.00    +0.050 A 
ATOM     17  C   LIG    1        1.190  -0.385   0.820  0.00  0.00    +0.050 A 
ATOM     18  C   LIG    1        2.391   0.159   0.392  0.00  0.00    +0.010 A 
ATOM     19  O   LIG    1        3.689  -0.136   0.628  0.00  0.00    -0.210 OA
ENDBRANCH   8  11
ENDBRANCH   3   5
BRANCH   2  20
ATOM     20  C   LIG    1       12.257   1.966  -0.321  0.00  0.00    +0.070 C 
BRANCH  20  21
ATOM     21  C   LIG    1       12.753   3.410  -0.419  0.00  0.00    +0.080 C 
BRANCH  21  22
ATOM     22  C   LIG    1       14.278   3.417  -0.549  0.00  0.00    +0.000 C 
ATOM     23  C   LIG    1       14.761   4.849  -0.781  0.00  0.00    +0.120 C 
ATOM     24  C   LIG    1       16.259   4.911  -0.624  0.00  0.00    -0.120 A 
ATOM     25  C   LIG    1       16.995   5.801  -1.381  0.00  0.00    +0.050 A 
ATOM     26  C   LIG    1       18.368   5.873  -1.225  0.00  0.00    -0.010 A 
ATOM     27  C   LIG    1       19.006   5.053  -0.313  0.00  0.00    +0.040 A 
ATOM     28  C   LIG    1       18.276   4.157   0.442  0.00  0.00    -0.020 A 
ATOM     29  C   LIG    1       16.898   4.079   0.285  0.00  0.00    +0.160 A 
ATOM     30  N   LIG    1       16.160   3.164   1.041  0.00  0.00    -0.660 N 
ATOM     31  H   LIG    1       16.569   2.737   1.810  0.00  0.00    +0.410 HD
ATOM     32  C   LIG    1       14.890   2.869   0.713  0.00  0.00    +0.530 C 
ATOM     33  O   LIG    1       14.232   2.156   1.440  0.00  0.00    -0.520 OA
ENDBRANCH  21  22
ENDBRANCH  20  21
ENDBRANCH   2  20
TORSDOF 5
