REMARK  Name = ZINCvU0000000Dqz.0
REMARK                            x       y       z     vdW  Elec       q    Type
REMARK                         _______ _______ _______ _____ _____    ______ ____
ROOT
ATOM      1  C   LIG    1       -3.749   0.836  -3.396  0.00  0.00    +0.300 C 
ENDROOT
BRANCH   1   2
ATOM      2  C   LIG    1       -2.779  -0.184  -3.935  0.00  0.00    +0.110 A 
ATOM      3  C   LIG    1       -2.967  -0.701  -5.203  0.00  0.00    -0.030 A 
ATOM      4  C   LIG    1       -2.069  -1.639  -5.690  0.00  0.00    +0.070 A 
ATOM      5  C   LIG    1       -1.011  -2.021  -4.880  0.00  0.00    -0.030 A 
ATOM      6  C   LIG    1       -0.887  -1.460  -3.623  0.00  0.00    +0.270 A 
ATOM      7  N   LIG    1       -1.758  -0.567  -3.195  0.00  0.00    -0.450 NA
ENDBRANCH   1   2
BRANCH   1   9
ATOM      8  O   LIG    1       -5.187   0.292  -1.605  0.00  0.00    -0.500 OA
ATOM      9  C   LIG    1       -4.929   0.129  -2.779  0.00  0.00    +0.510 C 
ATOM     10  N   LIG    1       -5.696  -0.684  -3.531  0.00  0.00    -0.720 N 
ATOM     11  H   LIG    1       -5.489  -0.815  -4.470  0.00  0.00    +0.400 HD
BRANCH  10  12
ATOM     12  C   LIG    1       -6.843  -1.371  -2.931  0.00  0.00    +0.240 C 
ATOM     13  C   LIG    1       -6.372  -2.669  -2.271  0.00  0.00    +0.000 C 
ATOM     14  C   LIG    1       -7.569  -3.386  -1.645  0.00  0.00    +0.010 C 
ATOM     15  C   LIG    1       -8.595  -3.711  -2.732  0.00  0.00    +0.000 C 
ATOM     16  C   LIG    1       -9.066  -2.413  -3.393  0.00  0.00    +0.020 C 
ATOM     17  C   LIG    1       -7.869  -1.696  -4.019  0.00  0.00    +0.010 C 
ENDBRANCH  10  12
ENDBRANCH   1   9
BRANCH   1  18
ATOM     18  N   LIG    1       -3.083   1.653  -2.378  0.00  0.00    -0.580 N 
ATOM     19  C   LIG    1       -3.011   2.990  -2.530  0.00  0.00    +0.520 C 
ATOM     20  O   LIG    1       -2.375   3.656  -1.741  0.00  0.00    -0.520 OA
BRANCH  18  21
ATOM     21  C   LIG    1       -2.495   1.017  -1.197  0.00  0.00    +0.270 C 
ATOM     22  C   LIG    1       -0.989   1.283  -1.171  0.00  0.00    +0.010 C 
ATOM     23  C   LIG    1       -0.374   0.618   0.062  0.00  0.00    +0.010 C 
ATOM     24  C   LIG    1       -1.016   1.196   1.325  0.00  0.00    +0.000 C 
ATOM     25  C   LIG    1       -2.522   0.930   1.300  0.00  0.00    +0.010 C 
ATOM     26  C   LIG    1       -3.136   1.595   0.066  0.00  0.00    +0.000 C 
ENDBRANCH  18  21
BRANCH  19  27
ATOM     27  C   LIG    1       -3.721   3.658  -3.679  0.00  0.00    -0.020 C 
ATOM     28  C   LIG    1       -2.965   3.375  -4.979  0.00  0.00    +0.020 C 
ATOM     29  C   LIG    1       -3.686   4.052  -6.146  0.00  0.00    +0.010 C 
ATOM     30  C   LIG    1       -3.739   5.562  -5.905  0.00  0.00    +0.000 C 
ATOM     31  C   LIG    1       -4.495   5.846  -4.606  0.00  0.00    +0.010 C 
ATOM     32  C   LIG    1       -3.774   5.168  -3.438  0.00  0.00    +0.040 C 
ENDBRANCH  19  27
ENDBRANCH   1  18
TORSDOF 6
