REMARK  Name = ZINCnE000001KYJ3.0
REMARK                            x       y       z     vdW  Elec       q    Type
REMARK                         _______ _______ _______ _____ _____    ______ ____
ROOT
ATOM      1  C   LIG    1        1.181   1.784   0.000  0.00  0.00    +0.140 A 
ATOM      2  C   LIG    1       -0.013   1.076   0.008  0.00  0.00    -0.100 A 
ATOM      3  C   LIG    1       -1.217   1.747   0.017  0.00  0.00    +0.110 A 
ATOM      4  C   LIG    1       -1.242   3.143   0.031  0.00  0.00    -0.120 A 
ATOM      5  C   LIG    1       -0.048   3.861   0.023  0.00  0.00    +0.110 A 
ATOM      6  C   LIG    1        1.165   3.184   0.008  0.00  0.00    -0.100 A 
ENDROOT
BRANCH   6   7
ATOM      7  C   LIG    1        2.440   3.942  -0.002  0.00  0.00    -0.020 A 
ATOM      8  C   LIG    1        3.444   3.633   0.914  0.00  0.00    +0.020 A 
ATOM      9  C   LIG    1        4.630   4.338   0.898  0.00  0.00    +0.000 A 
ATOM     10  C   LIG    1        4.819   5.358  -0.018  0.00  0.00    -0.010 A 
ATOM     11  C   LIG    1        3.824   5.672  -0.925  0.00  0.00    +0.000 A 
ATOM     12  C   LIG    1        2.636   4.970  -0.922  0.00  0.00    +0.010 A 
ENDBRANCH   6   7
BRANCH   1  14
ATOM     13  C   LIG    1        2.305  -0.309  -0.022  0.00  0.00    +0.230 C 
ATOM     14  O   LIG    1        2.364   1.119  -0.015  0.00  0.00    -0.310 OA
ENDBRANCH   1  14
BRANCH   4  15
ATOM     15  C   LIG    1       -2.537   3.859   0.047  0.00  0.00    +0.490 C 
ATOM     16  O   LIG    1       -2.559   5.079   0.053  0.00  0.00    -0.560 OA
BRANCH  15  17
ATOM     17  N   LIG    1       -3.679   3.172   0.055  0.00  0.00    -0.700 NA
ATOM     18  C   LIG    1       -4.851   3.820   0.069  0.00  0.00    +0.330 A 
ATOM     19  C   LIG    1       -6.063   3.103   0.078  0.00  0.00    -0.050 A 
ATOM     20  C   LIG    1       -7.229   3.818   0.093  0.00  0.00    +0.010 A 
ATOM     21  C   LIG    1       -7.154   5.219   0.100  0.00  0.00    +0.060 A 
ATOM     22  N   LIG    1       -5.997   5.823   0.092  0.00  0.00    -0.230 NA
ATOM     23  N   LIG    1       -4.885   5.180   0.082  0.00  0.00    -0.310 NA
ENDBRANCH  15  17
ENDBRANCH   4  15
TORSDOF 4
