REMARK  Name = ZINCvU0000000EJB.0
REMARK                            x       y       z     vdW  Elec       q    Type
REMARK                         _______ _______ _______ _____ _____    ______ ____
ROOT
ATOM      1  C   LIG    1        4.250   4.935  -5.934  0.00  0.00    +0.110 C 
ENDROOT
BRANCH   1   2
ATOM      2  C   LIG    1        4.986   4.545  -7.191  0.00  0.00    +0.540 C 
ATOM      3  N   LIG    1        4.873   5.303  -8.300  0.00  0.00    -0.540 N 
ATOM      4  O   LIG    1        5.680   3.551  -7.203  0.00  0.00    -0.500 OA
BRANCH   3   5
ATOM      5  C   LIG    1        4.127   6.562  -8.254  0.00  0.00    +0.230 C 
ATOM      6  C   LIG    1        2.898   6.460  -9.159  0.00  0.00    +0.010 C 
ATOM      7  C   LIG    1        2.118   7.776  -9.112  0.00  0.00    +0.020 C 
ATOM      8  C   LIG    1        3.014   8.918  -9.595  0.00  0.00    +0.010 C 
ATOM      9  C   LIG    1        4.243   9.020  -8.690  0.00  0.00    +0.020 C 
ATOM     10  C   LIG    1        5.023   7.704  -8.737  0.00  0.00    +0.010 C 
ENDBRANCH   3   5
BRANCH   3  11
ATOM     11  C   LIG    1        5.469   4.886  -9.495  0.00  0.00    +0.150 A 
ATOM     12  C   LIG    1        5.249   5.597 -10.668  0.00  0.00    -0.030 A 
ATOM     13  C   LIG    1        5.843   5.185 -11.845  0.00  0.00    +0.030 A 
ATOM     14  C   LIG    1        6.647   4.061 -11.859  0.00  0.00    -0.020 A 
ATOM     15  C   LIG    1        6.864   3.347 -10.694  0.00  0.00    +0.030 A 
ATOM     16  C   LIG    1        6.277   3.756  -9.513  0.00  0.00    +0.010 A 
ENDBRANCH   3  11
ENDBRANCH   1   2
BRANCH   1  17
ATOM     17  S   LIG    1        4.482   3.653  -4.677  0.00  0.00    +0.150 S 
BRANCH  17  21
ATOM     18  C   LIG    1        2.585   4.670  -1.453  0.00  0.00    +0.180 A 
ATOM     19  N   LIG    1        2.324   5.672  -2.240  0.00  0.00    -0.270 NA
ATOM     20  N   LIG    1        2.894   5.485  -3.379  0.00  0.00    -0.290 NA
ATOM     21  C   LIG    1        3.544   4.347  -3.357  0.00  0.00    +0.120 A 
ATOM     22  O   LIG    1        3.367   3.809  -2.135  0.00  0.00    -0.200 OA
BRANCH  18  23
ATOM     23  C   LIG    1        2.106   4.503  -0.034  0.00  0.00    +0.250 C 
BRANCH  23  27
ATOM     24  C   LIG    1       -1.637   2.440  -0.032  0.00  0.00    +0.140 A 
ATOM     25  C   LIG    1       -0.449   1.726   0.045  0.00  0.00    -0.020 A 
ATOM     26  C   LIG    1        0.759   2.396   0.042  0.00  0.00    +0.070 A 
ATOM     27  C   LIG    1        0.786   3.776  -0.032  0.00  0.00    -0.140 A 
ATOM     28  C   LIG    1       -0.396   4.490  -0.103  0.00  0.00    +0.070 A 
ATOM     29  C   LIG    1       -1.607   3.825  -0.101  0.00  0.00    -0.080 A 
BRANCH  24  31
ATOM     30  C   LIG    1       -4.008   2.583  -0.116  0.00  0.00    +0.250 C 
ATOM     31  O   LIG    1       -2.826   1.784  -0.035  0.00  0.00    -0.320 OA
ENDBRANCH  24  31
ENDBRANCH  23  27
ENDBRANCH  18  23
ENDBRANCH  17  21
ENDBRANCH   1  17
TORSDOF 8
