REMARK  Name = ZINCkj000005j0xl.0
REMARK                            x       y       z     vdW  Elec       q    Type
REMARK                         _______ _______ _______ _____ _____    ______ ____
ROOT
ATOM      1  C   LIG    1        2.380   0.575   1.584  0.00  0.00    +0.510 C 
ATOM      2  N   LIG    1        2.028   1.842   1.290  0.00  0.00    -0.720 N 
ATOM      3  H   LIG    1        2.350   2.575   1.837  0.00  0.00    +0.410 HD
ATOM      4  O   LIG    1        1.974  -0.342   0.902  0.00  0.00    -0.500 OA
ENDROOT
BRANCH   1   6
ATOM      5  C   LIG    1        4.616   1.016   2.562  0.00  0.00    +0.090 C 
ATOM      6  C   LIG    1        3.280   0.297   2.761  0.00  0.00    +0.290 C 
BRANCH   6   7
ATOM      7  N   LIG    1        3.513  -1.145   2.868  0.00  0.00    -0.380 N 
ATOM      8  C   LIG    1        4.445  -1.861   2.217  0.00  0.00    +0.490 A 
ATOM      9  N   LIG    1        4.328  -3.111   2.586  0.00  0.00    -0.540 NA
ATOM     10  C   LIG    1        3.337  -3.231   3.467  0.00  0.00    +0.430 A 
ATOM     11  N   LIG    1        2.810  -2.053   3.676  0.00  0.00    -0.310 NA
ENDBRANCH   6   7
ENDBRANCH   1   6
BRANCH   2  12
ATOM     12  C   LIG    1        1.153   2.112   0.146  0.00  0.00    +0.290 C 
BRANCH  12  13
ATOM     13  C   LIG    1        0.819   3.604   0.100  0.00  0.00    +0.260 C 
BRANCH  13  14
ATOM     14  C   LIG    1        2.078   4.393  -0.151  0.00  0.00    -0.280 A 
ATOM     15  C   LIG    1        2.787   5.027   0.785  0.00  0.00    +0.090 A 
ATOM     16  C   LIG    1        3.910   5.687   0.317  0.00  0.00    +0.020 A 
ATOM     17  C   LIG    1        4.112   5.591  -0.998  0.00  0.00    +0.020 A 
ATOM     18  S   LIG    1        2.840   4.614  -1.720  0.00  0.00    +0.120 S 
ENDBRANCH  13  14
BRANCH  13  19
ATOM     19  N   LIG    1       -0.142   3.858  -0.982  0.00  0.00    -0.380 N 
ATOM     20  C   LIG    1       -0.450   5.293  -1.037  0.00  0.00    +0.330 C 
ATOM     21  C   LIG    1       -1.376   3.102  -0.729  0.00  0.00    +0.330 C 
ATOM     22  H   LIG    1        0.257   3.566  -1.861  0.00  0.00    +0.420 HD
ENDBRANCH  13  19
ENDBRANCH  12  13
ENDBRANCH   2  12
TORSDOF 6
