REMARK  Name = ZINCvU0000000JIG.0
REMARK                            x       y       z     vdW  Elec       q    Type
REMARK                         _______ _______ _______ _____ _____    ______ ____
ROOT
ATOM      1  C   LIG    1        2.695   6.777   1.524  0.00  0.00    +0.210 A 
ATOM      2  N   LIG    1        3.041   7.322   0.384  0.00  0.00    -0.300 NA
ATOM      3  N   LIG    1        3.786   8.476   0.662  0.00  0.00    -0.330 NA
ATOM      4  C   LIG    1        3.880   8.595   1.963  0.00  0.00    +0.420 A 
ATOM      5  N   LIG    1        3.208   7.548   2.533  0.00  0.00    -0.440 N 
ENDROOT
BRANCH   5   6
ATOM      6  C   LIG    1        3.070   7.306   3.908  0.00  0.00    +0.110 A 
ATOM      7  C   LIG    1        2.365   8.199   4.703  0.00  0.00    +0.060 A 
ATOM      8  C   LIG    1        2.225   7.956   6.056  0.00  0.00    +0.060 A 
ATOM      9  C   LIG    1        2.796   6.831   6.621  0.00  0.00    +0.060 A 
ATOM     10  C   LIG    1        3.504   5.941   5.832  0.00  0.00    -0.020 A 
ATOM     11 CL   LIG    1        4.220   4.529   6.544  0.00  0.00    -0.050 Cl
ATOM     12  C   LIG    1        3.642   6.177   4.477  0.00  0.00    +0.040 A 
ENDBRANCH   5   6
BRANCH   4  13
ATOM     13  N   LIG    1        4.545   9.606   2.645  0.00  0.00    -0.440 N 
ATOM     14  C   LIG    1        5.667   9.057   3.449  0.00  0.00    +0.190 C 
ATOM     15  C   LIG    1        6.573  10.293   3.683  0.00  0.00    +0.040 C 
ATOM     16  C   LIG    1        6.468  11.057   2.343  0.00  0.00    +0.030 C 
ATOM     17  C   LIG    1        5.157  10.567   1.702  0.00  0.00    +0.210 C 
ENDBRANCH   4  13
BRANCH   1  18
ATOM     18  S   LIG    1        1.744   5.308   1.724  0.00  0.00    +0.050 S 
BRANCH  18  19
ATOM     19  C   LIG    1        1.398   4.809   0.015  0.00  0.00    +0.260 C 
BRANCH  19  23
ATOM     20  C   LIG    1       -0.018   1.474   0.010  0.00  0.00    +0.270 A 
ATOM     21  N   LIG    1       -1.085   2.238   0.019  0.00  0.00    -0.280 NA
ATOM     22  N   LIG    1       -0.723   3.473   0.028  0.00  0.00    -0.240 NA
ATOM     23  C   LIG    1        0.578   3.545   0.016  0.00  0.00    +0.160 A 
ATOM     24  O   LIG    1        1.056   2.288   0.004  0.00  0.00    -0.210 OA
BRANCH  20  28
ATOM     25  C   LIG    1        1.564  -3.381  -0.030  0.00  0.00    +0.180 C 
ATOM     26  C   LIG    1        0.717  -2.134  -0.016  0.00  0.00    +0.000 A 
ATOM     27  C   LIG    1        1.185  -0.875  -0.013  0.00  0.00    -0.020 A 
ATOM     28  C   LIG    1        0.002  -0.004   0.002  0.00  0.00    -0.150 A 
ATOM     29  C   LIG    1       -1.071  -0.841   0.013  0.00  0.00    +0.090 A 
ATOM     30  C   LIG    1       -2.518  -0.418   0.037  0.00  0.00    +0.210 C 
ATOM     31  O   LIG    1       -0.624  -2.104  -0.004  0.00  0.00    -0.170 OA
ENDBRANCH  20  28
ENDBRANCH  19  23
ENDBRANCH  18  19
ENDBRANCH   1  18
TORSDOF 6
