REMARK  Name = ZINCrD000000A7ce.0
REMARK                            x       y       z     vdW  Elec       q    Type
REMARK                         _______ _______ _______ _____ _____    ______ ____
ROOT
ATOM      1  C   LIG    1        5.390  -1.333   4.079  0.00  0.00    +0.530 C 
ATOM      2  N   LIG    1        5.741  -2.506   4.641  0.00  0.00    -0.610 N 
ATOM      3  C   LIG    1        5.308  -3.779   4.050  0.00  0.00    +0.260 C 
ATOM      4  C   LIG    1        4.608  -4.611   5.129  0.00  0.00    +0.010 C 
ATOM      5  C   LIG    1        5.538  -4.762   6.335  0.00  0.00    +0.030 C 
ATOM      6  C   LIG    1        5.851  -3.381   6.916  0.00  0.00    +0.030 C 
ATOM      7  C   LIG    1        6.570  -2.535   5.854  0.00  0.00    +0.290 C 
ATOM      8  O   LIG    1        5.830  -0.292   4.520  0.00  0.00    -0.530 OA
ENDROOT
BRANCH   1  15
ATOM      9  O   LIG    1        1.099   0.637   2.738  0.00  0.00    -0.540 OA
ATOM     10  C   LIG    1        1.619   0.399   1.668  0.00  0.00    +0.550 C 
ATOM     11  N   LIG    1        2.931   0.094   1.609  0.00  0.00    -0.610 N 
ATOM     12  C   LIG    1        3.575  -0.196   0.321  0.00  0.00    +0.260 C 
ATOM     13  C   LIG    1        4.283  -1.551   0.418  0.00  0.00    +0.020 C 
ATOM     14  C   LIG    1        5.241  -1.538   1.611  0.00  0.00    +0.040 C 
ATOM     15  C   LIG    1        4.449  -1.313   2.901  0.00  0.00    -0.020 C 
ATOM     16  C   LIG    1        3.744   0.050   2.832  0.00  0.00    +0.310 C 
BRANCH  10  17
ATOM     17  C   LIG    1        0.799   0.447   0.404  0.00  0.00    -0.070 C 
ATOM     18  C   LIG    1       -0.683   0.800   0.537  0.00  0.00    +0.060 C 
ATOM     19  C   LIG    1       -0.265  -0.636   0.212  0.00  0.00    +0.060 C 
ENDBRANCH  10  17
ENDBRANCH   1  15
BRANCH   6  20
ATOM     20  C   LIG    1        6.741  -3.533   8.123  0.00  0.00    -0.060 A 
ATOM     21  C   LIG    1        7.979  -4.135   7.996  0.00  0.00    +0.040 A 
ATOM     22  C   LIG    1        8.799  -4.271   9.101  0.00  0.00    +0.030 A 
ATOM     23  C   LIG    1        8.377  -3.814  10.336  0.00  0.00    +0.070 A 
ATOM     24  C   LIG    1        7.133  -3.215  10.465  0.00  0.00    +0.070 A 
ATOM     25  F   LIG    1        6.719  -2.767  11.670  0.00  0.00    -0.130 F 
ATOM     26  F   LIG    1        9.176  -3.950  11.417  0.00  0.00    -0.130 F 
ATOM     27  C   LIG    1        6.316  -3.075   9.356  0.00  0.00    +0.030 A 
ENDBRANCH   6  20
TORSDOF 3
