REMARK  Name = ZINCpk00000ebuZg.0
REMARK                            x       y       z     vdW  Elec       q    Type
REMARK                         _______ _______ _______ _____ _____    ______ ____
ROOT
ATOM      1  C   LIG    1        2.640   5.498   0.006  0.00  0.00    +0.520 C 
ATOM      2  O   LIG    1        1.667   6.225   0.020  0.00  0.00    -0.500 OA
ENDROOT
BRANCH   1   3
ATOM      3  C   LIG    1        3.995   6.080  -0.003  0.00  0.00    -0.210 A 
ATOM      4  C   LIG    1        4.171   7.473   0.002  0.00  0.00    +0.160 A 
ATOM      5  C   LIG    1        5.447   7.969  -0.007  0.00  0.00    -0.050 A 
ATOM      6  C   LIG    1        6.524   7.085  -0.022  0.00  0.00    +0.350 A 
ATOM      7  N   LIG    1        6.330   5.773  -0.028  0.00  0.00    -0.530 NA
ATOM      8  C   LIG    1        5.121   5.254  -0.013  0.00  0.00    +0.380 A 
BRANCH   6   9
ATOM      9  N   LIG    1        7.816   7.584  -0.032  0.00  0.00    -0.480 N 
ATOM     10  C   LIG    1        8.022   8.488  -1.173  0.00  0.00    +0.180 C 
ATOM     11  C   LIG    1        9.440   9.062  -1.112  0.00  0.00    +0.240 C 
ATOM     12  O   LIG    1       10.384   7.987  -1.096  0.00  0.00    -0.380 OA
ATOM     13  C   LIG    1       10.212   7.087   0.002  0.00  0.00    +0.230 C 
ATOM     14  C   LIG    1        8.802   6.493  -0.048  0.00  0.00    +0.200 C 
ENDBRANCH   6   9
ENDBRANCH   1   3
BRANCH   1  15
ATOM     15  O   LIG    1        2.482   4.160   0.001  0.00  0.00    -0.330 OA
BRANCH  15  16
ATOM     16  C   LIG    1        1.120   3.657   0.011  0.00  0.00    +0.270 C 
BRANCH  16  18
ATOM     17  O   LIG    1        2.199   1.558  -0.011  0.00  0.00    -0.510 OA
ATOM     18  C   LIG    1        1.140   2.151   0.003  0.00  0.00    +0.520 C 
ATOM     19  N   LIG    1       -0.018   1.461   0.010  0.00  0.00    -0.720 N 
ATOM     20  H   LIG    1       -0.864   1.934   0.017  0.00  0.00    +0.410 HD
BRANCH  19  21
ATOM     21  C   LIG    1        0.002  -0.004   0.002  0.00  0.00    +0.370 C 
BRANCH  21  22
ATOM     22  C   LIG    1       -1.412  -0.526   0.013  0.00  0.00    -0.210 A 
ATOM     23  C   LIG    1       -2.143  -0.786  -1.072  0.00  0.00    +0.030 A 
ATOM     24  C   LIG    1       -3.419  -1.259  -0.815  0.00  0.00    +0.000 A 
ATOM     25  C   LIG    1       -3.723  -1.383   0.478  0.00  0.00    -0.030 A 
ATOM     26  S   LIG    1       -2.347  -0.891   1.457  0.00  0.00    +0.120 S 
ENDBRANCH  21  22
ENDBRANCH  19  21
ENDBRANCH  16  18
ENDBRANCH  15  16
ENDBRANCH   1  15
TORSDOF 7
