REMARK  Name = ZINCtj00001lxaCZ.0
REMARK                            x       y       z     vdW  Elec       q    Type
REMARK                         _______ _______ _______ _____ _____    ______ ____
ROOT
ATOM      1  N   LIG    1        7.740   4.806   2.950  0.00  0.00    -0.750 N 
ATOM      2  H   LIG    1        7.484   4.121   3.587  0.00  0.00    +0.400 HD
ATOM      3  C   LIG    1        7.422   4.667   1.648  0.00  0.00    +0.700 C 
ATOM      4  N   LIG    1        6.748   3.577   1.231  0.00  0.00    -0.740 N 
ATOM      5  H   LIG    1        6.492   2.892   1.868  0.00  0.00    +0.400 HD
ATOM      6  O   LIG    1        7.743   5.526   0.849  0.00  0.00    -0.580 OA
ENDROOT
BRANCH   1   7
ATOM      7  C   LIG    1        8.472   5.991   3.404  0.00  0.00    +0.320 C 
BRANCH   7  14
ATOM      8  C   LIG    1        9.475   7.140   5.423  0.00  0.00    +0.110 C 
ATOM      9  C   LIG    1        8.822   7.492   6.773  0.00  0.00    +0.280 C 
ATOM     10  N   LIG    1        7.766   6.487   7.020  0.00  0.00    -0.510 N 
ATOM     11  C   LIG    1        7.360   5.989   5.680  0.00  0.00    +0.280 C 
ATOM     12  H   LIG    1        8.129   5.729   7.577  0.00  0.00    +0.430 HD
ATOM     13  H   LIG    1        6.979   6.916   7.484  0.00  0.00    +0.440 HD
ATOM     14  C   LIG    1        8.704   5.901   4.913  0.00  0.00    +0.000 C 
BRANCH   8  20
ATOM     15  C   LIG    1       11.932   9.027   4.937  0.00  0.00    +0.330 C 
ATOM     16  N   LIG    1       11.995   7.639   5.402  0.00  0.00    -0.450 N 
ATOM     17  C   LIG    1       13.114   6.943   5.698  0.00  0.00    +0.420 A 
ATOM     18  N   LIG    1       12.772   5.742   6.078  0.00  0.00    -0.490 NA
ATOM     19  C   LIG    1       11.436   5.632   6.043  0.00  0.00    +0.170 A 
ATOM     20  C   LIG    1       10.931   6.806   5.618  0.00  0.00    -0.060 A 
ENDBRANCH   8  20
ENDBRANCH   7  14
ENDBRANCH   1   7
BRANCH   4  21
ATOM     21  C   LIG    1        6.402   3.427  -0.185  0.00  0.00    +0.340 C 
BRANCH  21  22
ATOM     22  C   LIG    1        5.657   2.132  -0.385  0.00  0.00    -0.090 A 
ATOM     23  C   LIG    1        6.353   0.972  -0.669  0.00  0.00    +0.010 A 
ATOM     24  C   LIG    1        5.673  -0.218  -0.854  0.00  0.00    +0.040 A 
ATOM     25  C   LIG    1        4.296  -0.252  -0.749  0.00  0.00    +0.010 A 
ATOM     26  C   LIG    1        3.594   0.913  -0.469  0.00  0.00    +0.170 A 
ATOM     27  C   LIG    1        4.280   2.107  -0.284  0.00  0.00    -0.010 A 
BRANCH  26  28
ATOM     28  N   LIG    1        2.199   0.884  -0.367  0.00  0.00    -0.560 N 
ATOM     29  C   LIG    1        1.374   2.025   0.047  0.00  0.00    +0.270 C 
ATOM     30  C   LIG    1       -0.063   1.679  -0.402  0.00  0.00    +0.060 C 
ATOM     31  C   LIG    1       -0.021   0.134  -0.431  0.00  0.00    +0.070 C 
ATOM     32  C   LIG    1        1.441  -0.194  -0.637  0.00  0.00    +0.520 C 
ATOM     33  O   LIG    1        1.869  -1.272  -0.992  0.00  0.00    -0.500 OA
ENDBRANCH  26  28
ENDBRANCH  21  22
ENDBRANCH   4  21
TORSDOF 6
