REMARK  Name = ZINCvU00000004Ez.0
REMARK                            x       y       z     vdW  Elec       q    Type
REMARK                         _______ _______ _______ _____ _____    ______ ____
ROOT
ATOM      1  C   LIG    1       -4.837   2.468  -0.079  0.00  0.00    -0.150 C 
ATOM      2  C   LIG    1       -5.345   3.734  -0.015  0.00  0.00    +0.200 C 
ENDROOT
BRANCH   1   3
ATOM      3  C   LIG    1       -3.417   2.259  -0.415  0.00  0.00    +0.330 A 
ATOM      4  N   LIG    1       -2.525   1.715   0.380  0.00  0.00    -0.470 NA
ATOM      5  C   LIG    1       -1.322   1.678  -0.243  0.00  0.00    +0.050 A 
ATOM      6  C   LIG    1       -0.059   1.214   0.136  0.00  0.00    +0.070 A 
ATOM      7  C   LIG    1        0.997   1.311  -0.741  0.00  0.00    +0.000 A 
ATOM      8  C   LIG    1        0.819   1.871  -1.998  0.00  0.00    +0.030 A 
ATOM      9  C   LIG    1       -0.418   2.339  -2.387  0.00  0.00    +0.000 A 
ATOM     10  C   LIG    1       -1.495   2.250  -1.517  0.00  0.00    +0.050 A 
ATOM     11  N   LIG    1       -2.826   2.615  -1.599  0.00  0.00    -0.600 N 
ATOM     12  H   LIG    1       -3.262   3.034  -2.357  0.00  0.00    +0.420 HD
ENDBRANCH   1   3
BRANCH   2  13
ATOM     13  C   LIG    1       -4.444   4.890  -0.096  0.00  0.00    -0.110 A 
ATOM     14  C   LIG    1       -3.165   4.828   0.471  0.00  0.00    +0.050 A 
ATOM     15  C   LIG    1       -2.324   5.917   0.388  0.00  0.00    +0.010 A 
ATOM     16  C   LIG    1       -2.745   7.073  -0.246  0.00  0.00    +0.040 A 
ATOM     17  C   LIG    1       -4.010   7.146  -0.805  0.00  0.00    +0.000 A 
ATOM     18  C   LIG    1       -4.861   6.065  -0.735  0.00  0.00    +0.040 A 
ENDBRANCH   2  13
BRANCH   1  19
ATOM     19  C   LIG    1       -5.708   1.313   0.186  0.00  0.00    +0.450 C 
ATOM     20  O   LIG    1       -6.848   1.486   0.576  0.00  0.00    -0.440 OA
BRANCH  19  23
ATOM     21  C   LIG    1       -5.180  -2.385   0.591  0.00  0.00    +0.140 A 
ATOM     22  C   LIG    1       -5.658  -1.103   0.786  0.00  0.00    -0.030 A 
ATOM     23  C   LIG    1       -5.199  -0.057  -0.020  0.00  0.00    -0.080 A 
ATOM     24  C   LIG    1       -4.263  -0.312  -1.026  0.00  0.00    -0.050 A 
ATOM     25  C   LIG    1       -3.784  -1.595  -1.213  0.00  0.00    +0.140 A 
ATOM     26  C   LIG    1       -4.242  -2.635  -0.408  0.00  0.00    +0.060 A 
BRANCH  21  28
ATOM     27  C   LIG    1       -6.587  -3.075   2.379  0.00  0.00    +0.250 C 
ATOM     28  O   LIG    1       -5.626  -3.403   1.375  0.00  0.00    -0.300 OA
ENDBRANCH  21  28
BRANCH  25  29
ATOM     29  O   LIG    1       -2.869  -1.843  -2.188  0.00  0.00    -0.300 OA
ATOM     30  C   LIG    1       -2.396  -0.720  -2.935  0.00  0.00    +0.230 C 
ENDBRANCH  25  29
BRANCH  26  31
ATOM     31  O   LIG    1       -3.774  -3.897  -0.599  0.00  0.00    -0.310 OA
ATOM     32  C   LIG    1       -4.492  -4.724  -1.516  0.00  0.00    +0.240 C 
ENDBRANCH  26  31
ENDBRANCH  19  23
ENDBRANCH   1  19
TORSDOF 7
