REMARK  Name = ZINCpk000000ndFm.1
REMARK                            x       y       z     vdW  Elec       q    Type
REMARK                         _______ _______ _______ _____ _____    ______ ____
ROOT
ATOM      1  N   LIG    1       -2.189   8.048   0.064  0.00  0.00    -0.720 N 
ATOM      2  H   LIG    1       -3.043   7.589   0.070  0.00  0.00    +0.410 HD
ATOM      3  C   LIG    1       -1.042   7.340   0.049  0.00  0.00    +0.560 C 
ATOM      4  O   LIG    1        0.028   7.915   0.042  0.00  0.00    -0.520 OA
ENDROOT
BRANCH   3   5
ATOM      5  C   LIG    1       -1.087   5.859   0.042  0.00  0.00    -0.060 A 
ATOM      6  C   LIG    1       -2.320   5.201   0.051  0.00  0.00    +0.040 A 
ATOM      7  C   LIG    1       -2.372   3.824   0.044  0.00  0.00    +0.140 A 
ATOM      8  C   LIG    1       -1.189   3.089   0.029  0.00  0.00    -0.160 A 
ATOM      9  C   LIG    1       -1.197   1.612   0.017  0.00  0.00    +0.550 A 
ATOM     10  N   LIG    1       -0.011   0.966   0.007  0.00  0.00    -0.610 N 
ATOM     11  H   LIG    1        0.002  -0.004   0.002  0.00  0.00    +0.450 HD
ATOM     12  C   LIG    1        1.149   1.640  -0.000  0.00  0.00    +0.540 A 
ATOM     13  N   LIG    1        1.213   2.982   0.006  0.00  0.00    -0.580 N 
ATOM     14  H   LIG    1        2.077   3.422  -0.000  0.00  0.00    +0.450 HD
ATOM     15  S   LIG    1        2.613   0.751  -0.018  0.00  0.00    -0.530 S 
ATOM     16  O   LIG    1       -2.244   0.994   0.018  0.00  0.00    -0.470 OA
ATOM     17  C   LIG    1        0.054   3.746   0.020  0.00  0.00    +0.170 A 
ATOM     18  C   LIG    1        0.100   5.130   0.027  0.00  0.00    +0.070 A 
ENDBRANCH   3   5
BRANCH   1  19
ATOM     19  C   LIG    1       -2.145   9.512   0.071  0.00  0.00    +0.270 C 
BRANCH  19  20
ATOM     20  C   LIG    1       -3.571  10.066   0.087  0.00  0.00    +0.290 C 
BRANCH  20  22
ATOM     21  C   LIG    1       -4.673  12.239   0.109  0.00  0.00    +0.650 C 
ATOM     22  N   LIG    1       -3.527  11.530   0.095  0.00  0.00    -0.710 N 
ATOM     23  H   LIG    1       -2.673  11.989   0.088  0.00  0.00    +0.410 HD
ATOM     24  O   LIG    1       -5.744  11.663   0.117  0.00  0.00    -0.560 OA
BRANCH  21  25
ATOM     25  O   LIG    1       -4.633  13.584   0.116  0.00  0.00    -0.360 OA
BRANCH  25  27
ATOM     26  C   LIG    1       -6.688  13.888   1.386  0.00  0.00    +0.040 C 
ATOM     27  C   LIG    1       -5.906  14.282   0.132  0.00  0.00    +0.140 C 
ATOM     28  C   LIG    1       -6.712  13.901  -1.112  0.00  0.00    +0.040 C 
ATOM     29  C   LIG    1       -5.660  15.792   0.137  0.00  0.00    +0.080 C 
ENDBRANCH  25  27
ENDBRANCH  21  25
ENDBRANCH  20  22
ENDBRANCH  19  20
ENDBRANCH   1  19
TORSDOF 6
