REMARK  Name = ZINCrH000004syAf.0
REMARK                            x       y       z     vdW  Elec       q    Type
REMARK                         _______ _______ _______ _____ _____    ______ ____
ROOT
ATOM      1  C   LIG    1        3.459   6.221  -0.164  0.00  0.00    +0.570 C 
ATOM      2  N   LIG    1        4.700   5.697  -0.156  0.00  0.00    -0.610 N 
ATOM      3  C   LIG    1        4.905   4.241  -0.159  0.00  0.00    +0.270 C 
ATOM      4  C   LIG    1        5.885   3.894  -1.291  0.00  0.00    +0.200 C 
ATOM      5  N   LIG    1        7.109   4.692  -1.133  0.00  0.00    -0.490 N 
ATOM      6  C   LIG    1        6.828   6.128  -1.264  0.00  0.00    +0.190 C 
ATOM      7  C   LIG    1        5.887   6.566  -0.138  0.00  0.00    +0.310 C 
ATOM      8  O   LIG    1        3.307   7.424  -0.257  0.00  0.00    -0.520 OA
ENDROOT
BRANCH   1  20
ATOM      9  C   LIG    1        1.389   6.364  -2.171  0.00  0.00    +0.140 C 
ATOM     10  C   LIG    1        1.264   5.390  -1.027  0.00  0.00    +0.220 A 
ATOM     11  N   LIG    1        0.211   4.618  -0.958  0.00  0.00    -0.470 NA
ATOM     12  C   LIG    1        0.050   3.735   0.036  0.00  0.00    +0.170 A 
ATOM     13  C   LIG    1       -1.088   2.915   0.091  0.00  0.00    +0.010 A 
ATOM     14  C   LIG    1       -1.230   2.020   1.111  0.00  0.00    +0.140 A 
ATOM     15  C   LIG    1       -0.264   1.911   2.112  0.00  0.00    +0.000 A 
ATOM     16  C   LIG    1        0.852   2.690   2.091  0.00  0.00    +0.100 A 
ATOM     17  F   LIG    1       -2.325   1.230   1.155  0.00  0.00    -0.130 F 
ATOM     18  C   LIG    1        1.032   3.619   1.052  0.00  0.00    -0.130 A 
ATOM     19  C   LIG    1        2.172   4.439   0.999  0.00  0.00    +0.140 A 
ATOM     20  C   LIG    1        2.282   5.335  -0.059  0.00  0.00    -0.180 A 
ENDBRANCH   1  20
BRANCH   5  21
ATOM     21  C   LIG    1        8.091   4.288  -2.043  0.00  0.00    +0.080 A 
ATOM     22  C   LIG    1        9.354   4.861  -2.002  0.00  0.00    +0.030 A 
ATOM     23  C   LIG    1       10.325   4.455  -2.898  0.00  0.00    +0.030 A 
ATOM     24  C   LIG    1       10.036   3.488  -3.842  0.00  0.00    +0.020 A 
ATOM     25  C   LIG    1        8.777   2.918  -3.891  0.00  0.00    +0.010 A 
ATOM     26  C   LIG    1        7.803   3.314  -2.994  0.00  0.00    +0.050 A 
ATOM     27  F   LIG    1        6.573   2.757  -3.040  0.00  0.00    -0.140 F 
ENDBRANCH   5  21
TORSDOF 2
