REMARK  Name = ZINCpk00000xXhDz.1
REMARK                            x       y       z     vdW  Elec       q    Type
REMARK                         _______ _______ _______ _____ _____    ______ ____
ROOT
ATOM      1  C   LIG    1       -3.155   2.505  -1.400  0.00  0.00    +0.490 C 
ATOM      2  N   LIG    1       -4.477   2.272  -1.512  0.00  0.00    -0.640 N 
ATOM      3  H   LIG    1       -4.859   1.459  -1.144  0.00  0.00    +0.410 HD
ATOM      4  O   LIG    1       -2.677   3.521  -1.860  0.00  0.00    -0.510 OA
ENDROOT
BRANCH   1  10
ATOM      5  C   LIG    1        1.231   1.468   2.669  0.00  0.00    +0.110 C 
ATOM      6  C   LIG    1       -0.223   1.771   2.415  0.00  0.00    +0.530 C 
ATOM      7  N   LIG    1       -0.746   1.583   1.187  0.00  0.00    -0.610 N 
ATOM      8  C   LIG    1       -0.013   1.086   0.008  0.00  0.00    +0.270 C 
ATOM      9  C   LIG    1       -0.806   1.621  -1.210  0.00  0.00    +0.080 C 
ATOM     10  C   LIG    1       -2.269   1.504  -0.705  0.00  0.00    +0.090 C 
ATOM     11  C   LIG    1       -2.143   1.837   0.797  0.00  0.00    +0.290 C 
ATOM     12  O   LIG    1       -0.922   2.186   3.314  0.00  0.00    -0.540 OA
BRANCH  10  13
ATOM     13  N   LIG    1       -2.776   0.139  -0.894  0.00  0.00    -0.820 NA
ATOM     14  H   LIG    1       -2.701  -0.145  -1.859  0.00  0.00    +0.360 HD
ATOM     15  H   LIG    1       -3.727   0.058  -0.566  0.00  0.00    +0.350 HD
ENDBRANCH  10  13
ENDBRANCH   1  10
BRANCH   2  16
ATOM     16  C   LIG    1       -5.305   3.207  -2.162  0.00  0.00    -0.000 A 
ATOM     17  C   LIG    1       -6.645   3.095  -2.348  0.00  0.00    +0.200 A 
ATOM     18  N   LIG    1       -7.060   4.204  -3.012  0.00  0.00    -0.370 N 
ATOM     19  N   LIG    1       -5.940   5.011  -3.245  0.00  0.00    -0.270 NA
ATOM     20  C   LIG    1       -4.891   4.417  -2.737  0.00  0.00    +0.250 A 
BRANCH  18  21
ATOM     21  C   LIG    1       -8.436   4.501  -3.418  0.00  0.00    +0.390 C 
BRANCH  21  22
ATOM     22  C   LIG    1       -8.840   5.848  -2.877  0.00  0.00    -0.110 A 
ATOM     23  C   LIG    1       -9.438   5.942  -1.634  0.00  0.00    +0.040 A 
ATOM     24  C   LIG    1       -9.804   7.178  -1.134  0.00  0.00    +0.030 A 
ATOM     25  C   LIG    1       -9.581   8.320  -1.883  0.00  0.00    -0.020 A 
ATOM     26  C   LIG    1       -8.988   8.224  -3.130  0.00  0.00    +0.030 A 
ATOM     27 CL   LIG    1      -10.047   9.872  -1.260  0.00  0.00    -0.060 Cl
ATOM     28  C   LIG    1       -8.618   6.989  -3.626  0.00  0.00    +0.070 A 
ENDBRANCH  21  22
ENDBRANCH  18  21
ENDBRANCH   2  16
TORSDOF 5
