REMARK  Name = ZINCrD00000l1tzl.0
REMARK                            x       y       z     vdW  Elec       q    Type
REMARK                         _______ _______ _______ _____ _____    ______ ____
ROOT
ATOM      1  C   LIG    1        2.871   4.196  -1.425  0.00  0.00    +0.190 A 
ATOM      2  N   LIG    1        2.551   5.234  -2.140  0.00  0.00    -0.370 NA
ATOM      3  O   LIG    1        3.041   5.157  -3.247  0.00  0.00    +0.090 OA
ATOM      4  C   LIG    1        3.748   4.019  -3.349  0.00  0.00    +0.240 A 
ATOM      5  N   LIG    1        3.646   3.404  -2.181  0.00  0.00    -0.450 NA
ENDROOT
BRANCH   4   6
ATOM      6  C   LIG    1        4.495   3.551  -4.526  0.00  0.00    +0.130 A 
ATOM      7  C   LIG    1        5.208   2.397  -4.599  0.00  0.00    +0.090 A 
ATOM      8  C   LIG    1        5.769   2.317  -5.896  0.00  0.00    -0.140 A 
ATOM      9  C   LIG    1        6.582   1.369  -6.536  0.00  0.00    +0.160 A 
ATOM     10  C   LIG    1        6.983   1.581  -7.838  0.00  0.00    +0.010 A 
ATOM     11  C   LIG    1        6.585   2.727  -8.519  0.00  0.00    +0.140 A 
ATOM     12  C   LIG    1        5.784   3.668  -7.903  0.00  0.00    +0.010 A 
ATOM     13  F   LIG    1        6.984   2.921  -9.795  0.00  0.00    -0.110 F 
ATOM     14  F   LIG    1        7.765   0.670  -8.456  0.00  0.00    -0.110 F 
ATOM     15  F   LIG    1        6.971   0.255  -5.879  0.00  0.00    -0.110 F 
ATOM     16  C   LIG    1        5.369   3.475  -6.590  0.00  0.00    +0.160 A 
ATOM     17  N   LIG    1        4.589   4.219  -5.732  0.00  0.00    -0.560 N 
ATOM     18  H   LIG    1        4.174   5.071  -5.940  0.00  0.00    +0.430 HD
ENDBRANCH   4   6
BRANCH   1  19
ATOM     19  C   LIG    1        2.452   3.933  -0.001  0.00  0.00    +0.230 C 
BRANCH  19  23
ATOM     20  C   LIG    1       -1.230   1.759   0.017  0.00  0.00    -0.130 A 
ATOM     21  C   LIG    1       -0.013   1.076   0.008  0.00  0.00    +0.080 A 
ATOM     22  C   LIG    1        1.172   1.783   0.000  0.00  0.00    +0.030 A 
ATOM     23  C   LIG    1        1.155   3.167   0.008  0.00  0.00    -0.070 A 
ATOM     24  C   LIG    1       -0.048   3.850   0.023  0.00  0.00    +0.020 A 
ATOM     25  C   LIG    1       -1.240   3.154   0.031  0.00  0.00    +0.040 A 
BRANCH  20  29
ATOM     26  N   LIG    1       -3.677   1.669   0.028  0.00  0.00    -0.850 N 
ATOM     27  H   LIG    1       -4.512   1.176   0.029  0.00  0.00    +0.410 HD
ATOM     28  H   LIG    1       -3.686   2.639   0.034  0.00  0.00    +0.400 HD
ATOM     29  C   LIG    1       -2.503   1.007   0.019  0.00  0.00    +0.560 C 
ATOM     30  O   LIG    1       -2.491  -0.208   0.012  0.00  0.00    -0.540 OA
ENDBRANCH  20  29
ENDBRANCH  19  23
ENDBRANCH   1  19
TORSDOF 4
