REMARK  Name = ZINCvU0000000FlH.0
REMARK                            x       y       z     vdW  Elec       q    Type
REMARK                         _______ _______ _______ _____ _____    ______ ____
ROOT
ATOM      1  C   LIG    1        1.233   1.755  -0.520  0.00  0.00    +0.340 C 
ATOM      2  N   LIG    1        2.081   0.802  -0.242  0.00  0.00    -0.470 NA
ATOM      3  C   LIG    1        1.428  -0.396  -0.265  0.00  0.00    -0.110 C 
ATOM      4  C   LIG    1        0.029  -0.074  -0.601  0.00  0.00    +0.480 C 
ATOM      5  O   LIG    1       -0.898  -0.853  -0.725  0.00  0.00    -0.410 OA
ATOM      6  C   LIG    1        1.964  -1.643  -0.025  0.00  0.00    +0.260 C 
ATOM      7  O   LIG    1       -0.003   1.268  -0.741  0.00  0.00    -0.290 OA
ENDROOT
BRANCH   1  11
ATOM      8  C   LIG    1        2.254   5.876  -0.709  0.00  0.00    +0.140 A 
ATOM      9  C   LIG    1        3.226   4.934  -0.405  0.00  0.00    -0.030 A 
ATOM     10  C   LIG    1        2.898   3.596  -0.337  0.00  0.00    +0.100 A 
ATOM     11  C   LIG    1        1.586   3.186  -0.586  0.00  0.00    -0.050 A 
ATOM     12  C   LIG    1        0.607   4.136  -0.892  0.00  0.00    +0.020 A 
ATOM     13  C   LIG    1        0.942   5.474  -0.953  0.00  0.00    +0.100 A 
BRANCH   8  14
ATOM     14  O   LIG    1        2.582   7.193  -0.769  0.00  0.00    -0.300 OA
BRANCH  14  16
ATOM     15  C   LIG    1        4.122   9.050  -0.622  0.00  0.00    +0.070 C 
ATOM     16  C   LIG    1        3.945   7.535  -0.509  0.00  0.00    +0.190 C 
ENDBRANCH  14  16
ENDBRANCH   8  14
BRANCH  13  17
ATOM     17  O   LIG    1       -0.008   6.401  -1.251  0.00  0.00    -0.300 OA
BRANCH  17  18
ATOM     18  C   LIG    1       -1.332   5.918  -1.489  0.00  0.00    +0.170 C 
ATOM     19  C   LIG    1       -2.255   7.097  -1.806  0.00  0.00    +0.070 C 
ENDBRANCH  17  18
ENDBRANCH  13  17
ENDBRANCH   1  11
BRANCH   6  20
ATOM     20  C   LIG    1        1.084  -2.809   0.088  0.00  0.00    -0.160 A 
ATOM     21  C   LIG    1       -0.163  -2.691   0.718  0.00  0.00    +0.130 A 
ATOM     22  C   LIG    1       -0.985  -3.784   0.815  0.00  0.00    -0.090 A 
ATOM     23  C   LIG    1       -0.579  -5.011   0.301  0.00  0.00    +0.170 A 
ATOM     24  C   LIG    1        0.660  -5.136  -0.318  0.00  0.00    -0.030 A 
ATOM     25  C   LIG    1        1.488  -4.049  -0.427  0.00  0.00    +0.110 A 
BRANCH  23  26
ATOM     26  O   LIG    1       -1.394  -6.091   0.406  0.00  0.00    -0.310 OA
BRANCH  26  27
ATOM     27  C   LIG    1       -2.652  -5.893   1.054  0.00  0.00    +0.190 C 
BRANCH  27  28
ATOM     28  C   LIG    1       -3.427  -7.212   1.076  0.00  0.00    +0.050 C 
BRANCH  28  29
ATOM     29  C   LIG    1       -4.775  -7.001   1.770  0.00  0.00    -0.020 C 
ATOM     30  C   LIG    1       -4.541  -6.644   3.239  0.00  0.00    +0.020 C 
ATOM     31  C   LIG    1       -5.601  -8.286   1.682  0.00  0.00    +0.030 C 
ENDBRANCH  28  29
ENDBRANCH  27  28
ENDBRANCH  26  27
ENDBRANCH  23  26
ENDBRANCH   6  20
TORSDOF 10
