REMARK  Name = ZINCrD000000fU4k.0
REMARK                            x       y       z     vdW  Elec       q    Type
REMARK                         _______ _______ _______ _____ _____    ______ ____
ROOT
ATOM      1  C   LIG    1        0.677   2.736  -0.184  0.00  0.00    -0.010 C 
ATOM      2  C   LIG    1        1.486   2.013   0.896  0.00  0.00    +0.010 C 
ATOM      3  C   LIG    1        2.930   2.520   0.867  0.00  0.00    +0.020 C 
ATOM      4  C   LIG    1        2.938   4.036   1.077  0.00  0.00    +0.150 C 
ATOM      5  N   LIG    1        2.152   4.682   0.018  0.00  0.00    -0.520 NA
ATOM      6  C   LIG    1        0.750   4.246   0.055  0.00  0.00    +0.200 C 
ENDROOT
BRANCH   1   7
ATOM      7  C   LIG    1       -0.781   2.279  -0.123  0.00  0.00    +0.270 C 
BRANCH   7   9
ATOM      8  C   LIG    1       -2.043   0.213  -0.403  0.00  0.00    +0.520 C 
ATOM      9  N   LIG    1       -0.865   0.863  -0.490  0.00  0.00    -0.730 N 
ATOM     10  H   LIG    1       -0.074   0.394  -0.797  0.00  0.00    +0.400 HD
ATOM     11  O   LIG    1       -3.051   0.821  -0.113  0.00  0.00    -0.540 OA
BRANCH   8  13
ATOM     12  C   LIG    1       -3.547  -1.756  -0.502  0.00  0.00    +0.050 C 
ATOM     13  C   LIG    1       -2.106  -1.270  -0.666  0.00  0.00    -0.090 C 
ATOM     14  C   LIG    1       -1.204  -2.003   0.328  0.00  0.00    +0.050 C 
ATOM     15  C   LIG    1       -1.631  -1.555  -2.092  0.00  0.00    +0.050 C 
ENDBRANCH   8  13
ENDBRANCH   7   9
ENDBRANCH   1   7
BRANCH   5  16
ATOM     16  C   LIG    1        2.251   6.145   0.107  0.00  0.00    +0.340 C 
BRANCH  16  17
ATOM     17  C   LIG    1        1.583   6.617   1.373  0.00  0.00    +0.170 A 
ATOM     18  N   LIG    1        0.306   6.845   1.520  0.00  0.00    -0.480 NA
ATOM     19  C   LIG    1        0.072   7.252   2.776  0.00  0.00    +0.140 A 
ATOM     20  C   LIG    1        1.247   7.278   3.432  0.00  0.00    +0.120 A 
ATOM     21  N   LIG    1        2.206   6.870   2.544  0.00  0.00    -0.450 N 
BRANCH  21  22
ATOM     22  C   LIG    1        3.639   6.735   2.813  0.00  0.00    +0.340 C 
BRANCH  22  23
ATOM     23  C   LIG    1        4.344   8.012   2.434  0.00  0.00    -0.120 A 
ATOM     24  C   LIG    1        4.956   8.124   1.200  0.00  0.00    +0.020 A 
ATOM     25  C   LIG    1        5.598   9.297   0.850  0.00  0.00    +0.010 A 
ATOM     26  C   LIG    1        5.637  10.355   1.739  0.00  0.00    +0.020 A 
ATOM     27  C   LIG    1        5.029  10.242   2.975  0.00  0.00    +0.010 A 
ATOM     28  C   LIG    1        4.382   9.070   3.323  0.00  0.00    +0.020 A 
ENDBRANCH  22  23
ENDBRANCH  21  22
ENDBRANCH  16  17
ENDBRANCH   5  16
TORSDOF 7
