REMARK  Name = ZINCvU00000006xV.0
REMARK                            x       y       z     vdW  Elec       q    Type
REMARK                         _______ _______ _______ _____ _____    ______ ____
ROOT
ATOM      1  N   LIG    1       -1.191   1.870   0.018  0.00  0.00    -0.660 N 
ATOM      2  H   LIG    1       -1.205   2.837   0.100  0.00  0.00    +0.410 HD
ATOM      3  C   LIG    1       -0.014   1.213   0.005  0.00  0.00    +0.600 C 
ATOM      4  O   LIG    1        0.003  -0.003   0.004  0.00  0.00    -0.520 OA
ENDROOT
BRANCH   1  11
ATOM      5  C   LIG    1       -3.549   3.054   1.081  0.00  0.00    +0.100 C 
ATOM      6  C   LIG    1       -3.567   1.700   0.420  0.00  0.00    -0.110 A 
ATOM      7  C   LIG    1       -4.751   0.998   0.317  0.00  0.00    +0.050 A 
ATOM      8  C   LIG    1       -4.768  -0.249  -0.292  0.00  0.00    +0.070 A 
ATOM      9  C   LIG    1       -3.595  -0.790  -0.798  0.00  0.00    +0.040 A 
ATOM     10  C   LIG    1       -2.411  -0.087  -0.700  0.00  0.00    +0.040 A 
ATOM     11  C   LIG    1       -2.392   1.158  -0.086  0.00  0.00    +0.170 A 
BRANCH   8  12
ATOM     12  O   LIG    1       -5.934  -0.940  -0.394  0.00  0.00    -0.230 OA
BRANCH  12  13
ATOM     13  C   LIG    1       -6.836  -0.533  -1.318  0.00  0.00    +0.500 A 
ATOM     14  N   LIG    1       -6.600   0.572  -2.007  0.00  0.00    -0.550 NA
ATOM     15  C   LIG    1       -7.458   0.995  -2.921  0.00  0.00    +0.360 A 
ATOM     16  C   LIG    1       -8.619   0.272  -3.144  0.00  0.00    -0.120 A 
ATOM     17  C   LIG    1       -8.837  -0.877  -2.401  0.00  0.00    +0.370 A 
ATOM     18  N   LIG    1       -7.935  -1.246  -1.506  0.00  0.00    -0.520 NA
ENDBRANCH  12  13
ENDBRANCH   8  12
ENDBRANCH   1  11
BRANCH   3  19
ATOM     19  C   LIG    1        1.250   1.967  -0.015  0.00  0.00    -0.240 A 
ATOM     20  C   LIG    1        2.516   1.448  -0.035  0.00  0.00    +0.130 A 
ATOM     21  N   LIG    1        3.394   2.471  -0.050  0.00  0.00    -0.400 N 
ATOM     22  C   LIG    1        2.730   3.665  -0.039  0.00  0.00    +0.030 A 
ATOM     23  C   LIG    1        3.374   5.027  -0.049  0.00  0.00    +0.140 C 
ATOM     24  C   LIG    1        2.868  -0.017  -0.042  0.00  0.00    +0.140 C 
ATOM     25  C   LIG    1        1.406   3.426  -0.023  0.00  0.00    -0.010 A 
BRANCH  21  26
ATOM     26  C   LIG    1        4.790   2.330  -0.073  0.00  0.00    +0.070 A 
ATOM     27  C   LIG    1        5.461   2.255  -1.285  0.00  0.00    +0.070 A 
ATOM     28  C   LIG    1        6.836   2.123  -1.305  0.00  0.00    +0.020 A 
ATOM     29  C   LIG    1        7.543   2.052  -0.119  0.00  0.00    +0.070 A 
ATOM     30  C   LIG    1        6.878   2.121   1.091  0.00  0.00    +0.000 A 
ATOM     31  C   LIG    1        5.503   2.260   1.119  0.00  0.00    +0.120 A 
ATOM     32  F   LIG    1        4.853   2.326   2.301  0.00  0.00    -0.130 F 
ENDBRANCH  21  26
ENDBRANCH   3  19
TORSDOF 5
