REMARK  Name = ZINCrH000004ukTg.0
REMARK                            x       y       z     vdW  Elec       q    Type
REMARK                         _______ _______ _______ _____ _____    ______ ____
ROOT
ATOM      1  O   LIG    1       -1.006   1.875   3.367  0.00  0.00    -0.560 OA
ATOM      2  C   LIG    1       -0.390   1.346   2.463  0.00  0.00    +0.720 C 
ATOM      3  N   LIG    1       -0.740   1.579   1.182  0.00  0.00    -0.570 N 
ATOM      4  C   LIG    1       -0.013   1.086   0.008  0.00  0.00    +0.260 C 
ATOM      5  C   LIG    1       -0.797   1.614  -1.199  0.00  0.00    -0.020 C 
ATOM      6  C   LIG    1       -1.948   2.388  -0.609  0.00  0.00    -0.130 A 
ATOM      7  C   LIG    1       -2.983   3.082  -1.207  0.00  0.00    +0.050 A 
ATOM      8  C   LIG    1       -3.931   3.722  -0.432  0.00  0.00    -0.010 A 
ATOM      9  C   LIG    1       -3.845   3.666   0.947  0.00  0.00    +0.040 A 
ATOM     10  C   LIG    1       -2.815   2.974   1.550  0.00  0.00    +0.010 A 
ATOM     11  C   LIG    1       -1.311   0.453  -2.046  0.00  0.00    +0.020 C 
ATOM     12  C   LIG    1       -0.120  -0.284  -2.666  0.00  0.00    +0.210 C 
ATOM     13  O   LIG    1        0.663   0.637  -3.429  0.00  0.00    -0.380 OA
ATOM     14  C   LIG    1        1.219   1.707  -2.663  0.00  0.00    +0.210 C 
ATOM     15  C   LIG    1        0.086   2.531  -2.043  0.00  0.00    +0.020 C 
ATOM     16  C   LIG    1       -1.853   2.326   0.774  0.00  0.00    +0.170 A 
ATOM     17  N   LIG    1        0.643   0.526   2.740  0.00  0.00    -0.740 N 
ATOM     18  H   LIG    1        1.181   0.162   2.019  0.00  0.00    +0.400 HD
ENDROOT
BRANCH  17  19
ATOM     19  C   LIG    1        0.956   0.186   4.130  0.00  0.00    +0.290 C 
BRANCH  19  20
ATOM     20  C   LIG    1        2.164  -0.752   4.167  0.00  0.00    +0.090 C 
BRANCH  20  21
ATOM     21  C   LIG    1        2.485  -1.102   5.597  0.00  0.00    -0.030 A 
ATOM     22  C   LIG    1        3.368  -0.320   6.318  0.00  0.00    -0.020 A 
ATOM     23  C   LIG    1        3.659  -0.638   7.634  0.00  0.00    +0.140 A 
ATOM     24  C   LIG    1        3.074  -1.745   8.224  0.00  0.00    -0.040 A 
ATOM     25  C   LIG    1        2.195  -2.531   7.499  0.00  0.00    +0.140 A 
ATOM     26  F   LIG    1        1.624  -3.612   8.073  0.00  0.00    -0.130 F 
ATOM     27  F   LIG    1        4.517   0.130   8.341  0.00  0.00    -0.130 F 
ATOM     28  C   LIG    1        1.901  -2.208   6.185  0.00  0.00    -0.020 A 
ENDBRANCH  20  21
ENDBRANCH  19  20
ENDBRANCH  17  19
TORSDOF 3
