REMARK  Name = ZINCrH00000tj16R.0
REMARK                            x       y       z     vdW  Elec       q    Type
REMARK                         _______ _______ _______ _____ _____    ______ ____
ROOT
ATOM      1  O   LIG    1       -1.782   1.447  -1.418  0.00  0.00    -0.480 OA
ATOM      2  C   LIG    1       -2.452   1.357  -0.410  0.00  0.00    +0.510 C 
ATOM      3  N   LIG    1       -3.334   2.327  -0.100  0.00  0.00    -0.680 N 
ATOM      4  H   LIG    1       -3.824   2.287   0.737  0.00  0.00    +0.410 HD
ENDROOT
BRANCH   3   5
ATOM      5  C   LIG    1       -3.544   3.393  -0.984  0.00  0.00    +0.120 A 
ATOM      6  C   LIG    1       -2.485   3.897  -1.727  0.00  0.00    +0.050 A 
ATOM      7  C   LIG    1       -2.693   4.944  -2.603  0.00  0.00    +0.020 A 
ATOM      8  C   LIG    1       -3.959   5.500  -2.732  0.00  0.00    +0.150 A 
ATOM      9  C   LIG    1       -5.017   4.999  -1.986  0.00  0.00    -0.010 A 
ATOM     10  C   LIG    1       -4.811   3.948  -1.114  0.00  0.00    +0.010 A 
BRANCH   8  11
ATOM     11  N   LIG    1       -4.169   6.566  -3.616  0.00  0.00    -0.560 N 
ATOM     12  C   LIG    1       -5.434   7.300  -3.744  0.00  0.00    +0.260 C 
ATOM     13  C   LIG    1       -5.340   8.052  -5.090  0.00  0.00    +0.060 C 
ATOM     14  C   LIG    1       -3.811   8.190  -5.268  0.00  0.00    +0.070 C 
ATOM     15  C   LIG    1       -3.236   7.053  -4.452  0.00  0.00    +0.510 C 
ATOM     16  O   LIG    1       -2.100   6.638  -4.542  0.00  0.00    -0.510 OA
ENDBRANCH   8  11
ENDBRANCH   3   5
BRANCH   2  17
ATOM     17  C   LIG    1       -2.297   0.161   0.493  0.00  0.00    +0.230 C 
BRANCH  17  18
ATOM     18  N   LIG    1       -1.205  -0.688  -0.001  0.00  0.00    -0.470 N 
ATOM     19  C   LIG    1       -0.887  -1.751   0.963  0.00  0.00    +0.200 C 
ATOM     20  C   LIG    1        0.599  -2.028   1.019  0.00  0.00    +0.040 C 
ATOM     21  C   LIG    1        1.191  -2.718  -0.196  0.00  0.00    +0.090 C 
ATOM     22  S   LIG    1        1.149  -1.583  -1.621  0.00  0.00    -0.140 S 
ATOM     23  C   LIG    1       -0.552  -1.718  -2.112  0.00  0.00    -0.100 A 
ATOM     24  C   LIG    1       -0.882  -2.281  -3.332  0.00  0.00    +0.080 A 
ATOM     25  C   LIG    1       -2.216  -2.359  -3.700  0.00  0.00    -0.010 A 
ATOM     26  C   LIG    1       -3.196  -1.878  -2.852  0.00  0.00    +0.040 A 
ATOM     27  C   LIG    1       -2.861  -1.320  -1.632  0.00  0.00    -0.050 A 
ATOM     28  C   LIG    1       -1.525  -1.242  -1.254  0.00  0.00    +0.150 A 
ENDBRANCH  17  18
ENDBRANCH   2  17
TORSDOF 4
