REMARK  Name = ZINCpk00001AZjbc.0
REMARK                            x       y       z     vdW  Elec       q    Type
REMARK                         _______ _______ _______ _____ _____    ______ ____
ROOT
ATOM      1  C   LIG    1        2.654   3.608  -0.004  0.00  0.00    +0.210 A 
ATOM      2  N   LIG    1        1.387   3.320   0.001  0.00  0.00    -0.440 NA
ATOM      3  C   LIG    1        1.252   1.966   0.001  0.00  0.00    -0.080 A 
ATOM      4  C   LIG    1        2.507   1.440  -0.015  0.00  0.00    +0.250 A 
ATOM      5  O   LIG    1        3.365   2.472  -0.017  0.00  0.00    -0.190 OA
ENDROOT
BRANCH   3   6
ATOM      6  C   LIG    1       -0.014   1.212   0.009  0.00  0.00    +0.610 C 
ATOM      7  N   LIG    1       -1.191   1.870   0.018  0.00  0.00    -0.710 N 
ATOM      8  H   LIG    1       -1.204   2.840   0.023  0.00  0.00    +0.410 HD
ATOM      9  O   LIG    1        0.002  -0.004   0.002  0.00  0.00    -0.530 OA
BRANCH   7  10
ATOM     10  C   LIG    1       -2.449   1.120   0.020  0.00  0.00    +0.260 C 
BRANCH  10  11
ATOM     11  C   LIG    1       -3.626   2.099   0.031  0.00  0.00    +0.130 C 
BRANCH  11  12
ATOM     12  C   LIG    1       -4.920   1.327   0.033  0.00  0.00    -0.200 A 
ATOM     13  C   LIG    1       -5.632   0.895   1.101  0.00  0.00    -0.020 A 
ATOM     14  O   LIG    1       -6.706   0.260   0.610  0.00  0.00    +0.100 OA
ATOM     15  N   LIG    1       -6.712   0.267  -0.599  0.00  0.00    -0.360 NA
ATOM     16  C   LIG    1       -5.285   1.089   2.554  0.00  0.00    +0.190 C 
ATOM     17  C   LIG    1       -5.677   0.893  -1.080  0.00  0.00    +0.030 A 
ATOM     18  C   LIG    1       -5.348   1.110  -2.535  0.00  0.00    +0.160 C 
ENDBRANCH  11  12
ENDBRANCH  10  11
ENDBRANCH   7  10
ENDBRANCH   3   6
BRANCH   1  19
ATOM     19  C   LIG    1        3.232   5.000  -0.001  0.00  0.00    +0.340 C 
BRANCH  19  23
ATOM     20  C   LIG    1        4.730   7.030   2.633  0.00  0.00    +0.160 C 
ATOM     21  C   LIG    1        5.565   5.728   2.516  0.00  0.00    -0.010 C 
ATOM     22  C   LIG    1        4.530   4.694   2.025  0.00  0.00    +0.180 C 
ATOM     23  N   LIG    1        3.434   5.444   1.384  0.00  0.00    -0.520 NA
ATOM     24  C   LIG    1        3.756   6.886   1.437  0.00  0.00    +0.220 C 
BRANCH  20  26
ATOM     25  C   LIG    1        6.077   8.693   3.714  0.00  0.00    +0.200 C 
ATOM     26  O   LIG    1        5.558   8.185   2.483  0.00  0.00    -0.380 OA
ENDBRANCH  20  26
ENDBRANCH  19  23
ENDBRANCH   1  19
TORSDOF 7
