REMARK  Name = ZINCvU0000000B5W.0
REMARK                            x       y       z     vdW  Elec       q    Type
REMARK                         _______ _______ _______ _____ _____    ______ ____
ROOT
ATOM      1  C   LIG    1        6.759  -1.832   0.037  0.00  0.00    +0.150 A 
ATOM      2  N   LIG    1        7.500  -0.766   0.235  0.00  0.00    -0.290 NA
ATOM      3  N   LIG    1        8.740  -1.101   0.298  0.00  0.00    -0.270 NA
ATOM      4  C   LIG    1        8.866  -2.389   0.146  0.00  0.00    +0.210 A 
ATOM      5  N   LIG    1        7.607  -2.904  -0.021  0.00  0.00    -0.420 N 
ENDROOT
BRANCH   5   6
ATOM      6  C   LIG    1        7.261  -4.250  -0.213  0.00  0.00    +0.110 A 
ATOM      7  C   LIG    1        7.492  -5.178   0.792  0.00  0.00    +0.050 A 
ATOM      8  C   LIG    1        7.145  -6.501   0.603  0.00  0.00    +0.050 A 
ATOM      9  C   LIG    1        6.577  -6.904  -0.593  0.00  0.00    -0.020 A 
ATOM     10  C   LIG    1        6.352  -5.981  -1.600  0.00  0.00    +0.060 A 
ATOM     11 CL   LIG    1        6.148  -8.569  -0.832  0.00  0.00    -0.050 Cl
ATOM     12  C   LIG    1        6.692  -4.656  -1.412  0.00  0.00    +0.060 A 
ENDBRANCH   5   6
BRANCH   4  13
ATOM     13  C   LIG    1       10.155  -3.168   0.159  0.00  0.00    +0.270 C 
ATOM     14  C   LIG    1       10.665  -3.289   1.596  0.00  0.00    +0.030 C 
BRANCH  13  15
ATOM     15  N   LIG    1       11.157  -2.470  -0.658  0.00  0.00    -0.530 NA
ATOM     16  C   LIG    1       12.345  -3.309  -0.866  0.00  0.00    +0.200 C 
ATOM     17  C   LIG    1       11.522  -1.181  -0.056  0.00  0.00    +0.200 C 
ENDBRANCH  13  15
ENDBRANCH   4  13
BRANCH   1  18
ATOM     18  S   LIG    1        5.005  -1.875  -0.118  0.00  0.00    +0.060 S 
BRANCH  18  19
ATOM     19  C   LIG    1        4.630  -0.114   0.072  0.00  0.00    +0.090 C 
BRANCH  19  20
ATOM     20  C   LIG    1        3.141   0.096  -0.028  0.00  0.00    +0.470 C 
ATOM     21  O   LIG    1        2.397  -0.860  -0.114  0.00  0.00    -0.430 OA
BRANCH  20  24
ATOM     22  C   LIG    1        2.459   1.754  -2.557  0.00  0.00    +0.150 C 
ATOM     23  C   LIG    1        2.292   2.180  -1.121  0.00  0.00    +0.150 A 
ATOM     24  C   LIG    1        2.609   1.409  -0.022  0.00  0.00    -0.270 A 
ATOM     25  C   LIG    1        2.282   2.229   1.161  0.00  0.00    -0.060 A 
ATOM     26  C   LIG    1        2.372   2.022   2.534  0.00  0.00    +0.040 A 
ATOM     27  C   LIG    1        1.968   3.014   3.402  0.00  0.00    +0.000 A 
ATOM     28  C   LIG    1        1.485   4.218   2.911  0.00  0.00    +0.030 A 
ATOM     29  C   LIG    1        1.391   4.435   1.553  0.00  0.00    +0.000 A 
ATOM     30  C   LIG    1        1.789   3.444   0.662  0.00  0.00    +0.090 A 
ATOM     31  N   LIG    1        1.812   3.371  -0.716  0.00  0.00    -0.570 N 
ATOM     32  H   LIG    1        1.523   4.080  -1.311  0.00  0.00    +0.420 HD
ENDBRANCH  20  24
ENDBRANCH  19  20
ENDBRANCH  18  19
ENDBRANCH   1  18
TORSDOF 7
