REMARK  Name = ZINCkj00000y7OiC.0
REMARK                            x       y       z     vdW  Elec       q    Type
REMARK                         _______ _______ _______ _____ _____    ______ ____
ROOT
ATOM      1  O   LIG    1       -0.174   3.391   2.245  0.00  0.00    -0.950 OA
ATOM      2  S   LIG    1        1.246   3.377   2.193  0.00  0.00    +2.680 S 
ATOM      3  O   LIG    1        2.064   3.266   3.349  0.00  0.00    -0.910 OA
ENDROOT
BRANCH   2   4
ATOM      4  N   LIG    1        1.665   2.119   1.201  0.00  0.00    -0.980 NA
ATOM      5  C   LIG    1        2.913   1.450   1.497  0.00  0.00    +0.260 C 
ATOM      6  C   LIG    1        3.211   0.313   0.529  0.00  0.00    +0.240 C 
ATOM      7  O   LIG    1        2.671   0.618  -0.756  0.00  0.00    -0.330 OA
ATOM      8  C   LIG    1        1.248   0.674  -0.776  0.00  0.00    +0.250 C 
ATOM      9  C   LIG    1        0.668  -0.610  -0.158  0.00  0.00    +0.240 C 
ATOM     10  N   LIG    1       -0.425  -0.214   0.746  0.00  0.00    -0.510 N 
ATOM     11  C   LIG    1       -0.570   1.251   0.714  0.00  0.00    +0.280 C 
ATOM     12  H   LIG    1       -1.285  -0.645   0.444  0.00  0.00    +0.440 HD
ATOM     13  H   LIG    1       -0.209  -0.511   1.686  0.00  0.00    +0.430 HD
ATOM     14  C   LIG    1        0.745   1.806   0.130  0.00  0.00    +0.240 C 
ENDBRANCH   2   4
BRANCH   2  15
ATOM     15  C   LIG    1        1.729   4.865   1.382  0.00  0.00    -0.680 A 
ATOM     16  C   LIG    1        0.768   5.715   0.868  0.00  0.00    +0.160 A 
ATOM     17  C   LIG    1        1.146   6.882   0.232  0.00  0.00    +0.040 A 
ATOM     18  C   LIG    1        2.487   7.201   0.110  0.00  0.00    +0.030 A 
ATOM     19  C   LIG    1        3.449   6.350   0.625  0.00  0.00    +0.040 A 
ATOM     20 CL   LIG    1        2.962   8.667  -0.689  0.00  0.00    -0.020 Cl
ATOM     21  C   LIG    1        3.070   5.185   1.266  0.00  0.00    +0.060 A 
ATOM     22 CL   LIG    1        4.277   4.121   1.918  0.00  0.00    -0.020 Cl
ENDBRANCH   2  15
TORSDOF 2
