REMARK  Name = ZINCpk00000y50JS.0
REMARK                            x       y       z     vdW  Elec       q    Type
REMARK                         _______ _______ _______ _____ _____    ______ ____
ROOT
ATOM      1  C   LIG    1       -0.237   1.273   0.582  0.00  0.00    +0.500 C 
ATOM      2  N   LIG    1       -1.323   1.912   0.102  0.00  0.00    -0.450 N 
ATOM      3  O   LIG    1       -0.331   0.128   0.972  0.00  0.00    -0.510 OA
ENDROOT
BRANCH   2   4
ATOM      4  C   LIG    1       -2.635   1.263   0.147  0.00  0.00    +0.300 C 
ATOM      5  C   LIG    1       -3.274   1.270  -1.253  0.00  0.00    +0.070 C 
ATOM      6  C   LIG    1       -4.766   0.902  -1.117  0.00  0.00    -0.310 C 
ATOM      7  S   LIG    1       -5.241   1.451   0.562  0.00  0.00    +2.390 S 
ATOM      8  O   LIG    1       -6.136   2.551   0.465  0.00  0.00    -0.930 OA
ATOM      9  O   LIG    1       -5.593   0.320   1.346  0.00  0.00    -0.930 OA
ATOM     10  C   LIG    1       -3.589   2.057   1.076  0.00  0.00    -0.310 C 
ENDBRANCH   2   4
BRANCH   2  11
ATOM     11  N   LIG    1       -1.199   3.166  -0.426  0.00  0.00    -0.300 NA
ATOM     12  C   LIG    1       -0.502   3.127  -1.719  0.00  0.00    +0.210 C 
ATOM     13  C   LIG    1       -0.516   4.067   0.513  0.00  0.00    +0.210 C 
ENDBRANCH   2  11
BRANCH   1  14
ATOM     14  C   LIG    1        1.094   1.977   0.627  0.00  0.00    +0.140 C 
BRANCH  14  19
ATOM     15  C   LIG    1        4.622  -1.913  -0.596  0.00  0.00    +0.160 A 
ATOM     16  C   LIG    1        3.769  -1.264  -1.484  0.00  0.00    -0.070 A 
ATOM     17  C   LIG    1        2.920  -0.290  -1.038  0.00  0.00    +0.090 A 
ATOM     18  C   LIG    1        2.908   0.055   0.312  0.00  0.00    -0.150 A 
ATOM     19  C   LIG    1        2.151   1.022   1.117  0.00  0.00    -0.160 A 
ATOM     20  C   LIG    1        2.586   0.881   2.377  0.00  0.00    +0.230 A 
ATOM     21  O   LIG    1        3.537  -0.068   2.435  0.00  0.00    -0.190 OA
ATOM     22  C   LIG    1        3.768  -0.593   1.215  0.00  0.00    +0.100 A 
ATOM     23  C   LIG    1        4.629  -1.577   0.746  0.00  0.00    -0.010 A 
BRANCH  15  25
ATOM     24  C   LIG    1        5.413  -3.173  -2.450  0.00  0.00    +0.250 C 
ATOM     25  O   LIG    1        5.462  -2.879  -1.053  0.00  0.00    -0.310 OA
ENDBRANCH  15  25
ENDBRANCH  14  19
ENDBRANCH   1  14
TORSDOF 5
