REMARK  Name = ZINCrD00000F5Ljk.0
REMARK                            x       y       z     vdW  Elec       q    Type
REMARK                         _______ _______ _______ _____ _____    ______ ____
ROOT
ATOM      1  C   LIG    1       -0.782   2.096  -0.068  0.00  0.00    +0.150 A 
ATOM      2  C   LIG    1        0.555   2.316  -0.145  0.00  0.00    +0.050 A 
ATOM      3  N   LIG    1        1.170   1.143  -0.324  0.00  0.00    -0.440 NA
ATOM      4  C   LIG    1        0.265   0.178  -0.365  0.00  0.00    +0.210 A 
ATOM      5  C   LIG    1        0.371  -1.222  -0.531  0.00  0.00    +0.190 A 
ATOM      6  C   LIG    1       -0.762  -1.982  -0.531  0.00  0.00    -0.090 A 
ATOM      7  C   LIG    1       -2.015  -1.366  -0.367  0.00  0.00    +0.060 A 
ATOM      8  C   LIG    1       -2.103  -0.030  -0.209  0.00  0.00    +0.150 A 
ATOM      9  N   LIG    1       -0.976   0.749  -0.206  0.00  0.00    -0.360 N 
ENDROOT
BRANCH   2  10
ATOM     10  C   LIG    1        1.233   3.659  -0.044  0.00  0.00    +0.080 C 
ATOM     11  C   LIG    1        2.202   3.654   1.141  0.00  0.00    +0.030 C 
ATOM     12  C   LIG    1        2.866   5.027   1.264  0.00  0.00    +0.020 C 
ATOM     13  C   LIG    1        3.664   5.320  -0.011  0.00  0.00    +0.270 C 
ATOM     14  N   LIG    1        2.770   5.184  -1.170  0.00  0.00    -0.610 N 
ATOM     15  C   LIG    1        2.649   6.184  -2.065  0.00  0.00    +0.510 C 
ATOM     16  O   LIG    1        3.345   7.172  -1.968  0.00  0.00    -0.550 OA
ATOM     17  C   LIG    1        1.647   6.074  -3.186  0.00  0.00    +0.080 C 
ATOM     18  C   LIG    1        2.012   3.936  -1.334  0.00  0.00    +0.290 C 
ENDBRANCH   2  10
BRANCH   1  19
ATOM     19  N   LIG    1       -1.776   3.066   0.112  0.00  0.00    -0.570 N 
ATOM     20  H   LIG    1       -1.659   3.545   0.992  0.00  0.00    +0.360 HD
BRANCH  19  21
ATOM     21  C   LIG    1       -3.115   2.472   0.010  0.00  0.00    +0.220 C 
BRANCH  21  23
ATOM     22  C   LIG    1       -4.630   4.058  -1.062  0.00  0.00    +0.040 C 
ATOM     23  C   LIG    1       -4.154   3.563   0.053  0.00  0.00    -0.140 C 
ATOM     24  C   LIG    1       -4.644   4.085   1.379  0.00  0.00    +0.080 C 
ENDBRANCH  21  23
ENDBRANCH  19  21
ENDBRANCH   1  19
BRANCH   5  25
ATOM     25  O   LIG    1        1.589  -1.805  -0.689  0.00  0.00    -0.290 OA
BRANCH  25  26
ATOM     26  C   LIG    1        1.613  -3.224  -0.852  0.00  0.00    +0.190 C 
BRANCH  26  27
ATOM     27  C   LIG    1        3.060  -3.695  -1.014  0.00  0.00    +0.260 C 
ATOM     28  F   LIG    1        3.767  -3.445   0.168  0.00  0.00    -0.210 F 
ENDBRANCH  26  27
ENDBRANCH  25  26
ENDBRANCH   5  25
TORSDOF 7
