REMARK  Name = ZINCvU0000000EmK.0
REMARK                            x       y       z     vdW  Elec       q    Type
REMARK                         _______ _______ _______ _____ _____    ______ ____
ROOT
ATOM      1  C   LIG    1        0.035  -0.003  -0.031  0.00  0.00    +0.150 A 
ATOM      2  C   LIG    1        1.265  -0.643  -0.160  0.00  0.00    -0.010 A 
ATOM      3  C   LIG    1        1.331  -2.007  -0.197  0.00  0.00    +0.140 A 
ATOM      4  C   LIG    1        0.160  -2.758  -0.106  0.00  0.00    -0.210 A 
ATOM      5  C   LIG    1        0.188  -4.233  -0.133  0.00  0.00    +0.440 A 
ATOM      6  C   LIG    1       -1.065  -4.906   0.260  0.00  0.00    -0.230 A 
ATOM      7  C   LIG    1       -2.193  -4.154   0.351  0.00  0.00    +0.150 A 
ATOM      8  O   LIG    1       -2.221  -2.848   0.086  0.00  0.00    -0.210 OA
ATOM      9  C   LIG    1       -3.473  -4.829   0.772  0.00  0.00    +0.180 C 
ATOM     10  O   LIG    1        1.184  -4.856  -0.458  0.00  0.00    -0.450 OA
ATOM     11  C   LIG    1       -1.089  -2.123   0.016  0.00  0.00    +0.160 A 
ATOM     12  C   LIG    1       -1.136  -0.735   0.062  0.00  0.00    +0.010 A 
ENDROOT
BRANCH   6  13
ATOM     13  C   LIG    1       -1.093  -6.361   0.547  0.00  0.00    -0.050 A 
ATOM     14  C   LIG    1       -1.651  -7.244  -0.373  0.00  0.00    +0.060 A 
ATOM     15  C   LIG    1       -1.669  -8.598  -0.104  0.00  0.00    -0.020 A 
ATOM     16  C   LIG    1       -1.145  -9.080   1.082  0.00  0.00    +0.060 A 
ATOM     17  C   LIG    1       -0.594  -8.210   2.005  0.00  0.00    -0.080 A 
ATOM     18  C   LIG    1       -0.563  -6.851   1.745  0.00  0.00    +0.150 A 
BRANCH  18  19
ATOM     19  O   LIG    1       -0.022  -5.995   2.651  0.00  0.00    -0.310 OA
ATOM     20  C   LIG    1        0.499  -6.567   3.853  0.00  0.00    +0.250 C 
ENDBRANCH  18  19
ENDBRANCH   6  13
BRANCH   1  21
ATOM     21  O   LIG    1       -0.016   1.354   0.009  0.00  0.00    -0.290 OA
BRANCH  21  22
ATOM     22  C   LIG    1        0.286   2.011  -1.127  0.00  0.00    +0.510 C 
ATOM     23  O   LIG    1        0.485   1.392  -2.154  0.00  0.00    -0.460 OA
BRANCH  22  29
ATOM     24  C   LIG    1        0.696   4.171  -2.305  0.00  0.00    +0.190 A 
ATOM     25  C   LIG    1        0.773   5.555  -2.293  0.00  0.00    -0.080 A 
ATOM     26  C   LIG    1        0.546   6.251  -1.122  0.00  0.00    +0.100 A 
ATOM     27  C   LIG    1        0.235   5.575   0.046  0.00  0.00    -0.030 A 
ATOM     28  C   LIG    1        0.149   4.199   0.052  0.00  0.00    +0.130 A 
ATOM     29  C   LIG    1        0.376   3.482  -1.126  0.00  0.00    -0.170 A 
BRANCH  24  31
ATOM     30  C   LIG    1        1.245   4.254  -4.615  0.00  0.00    +0.250 C 
ATOM     31  O   LIG    1        0.924   3.486  -3.454  0.00  0.00    -0.290 OA
ENDBRANCH  24  31
ENDBRANCH  22  29
ENDBRANCH  21  22
ENDBRANCH   1  21
TORSDOF 6
