REMARK  Name = ZINCrH000004joq4.0
REMARK                            x       y       z     vdW  Elec       q    Type
REMARK                         _______ _______ _______ _____ _____    ______ ____
ROOT
ATOM      1  N   LIG    1       -0.721   1.571  -1.179  0.00  0.00    -0.530 N 
ATOM      2  C   LIG    1       -0.381   2.762  -1.724  0.00  0.00    +0.560 A 
ATOM      3  C   LIG    1       -1.122   3.202  -2.913  0.00  0.00    -0.200 A 
ATOM      4  C   LIG    1       -0.846   4.413  -3.547  0.00  0.00    +0.150 A 
ATOM      5  C   LIG    1       -1.573   4.775  -4.660  0.00  0.00    -0.120 A 
ATOM      6  C   LIG    1       -2.575   3.946  -5.151  0.00  0.00    +0.100 A 
ATOM      7  C   LIG    1       -2.862   2.756  -4.545  0.00  0.00    +0.040 A 
ATOM      8 BR   LIG    1       -1.206   6.416  -5.527  0.00  0.00    -0.040 Br
ATOM      9  C   LIG    1       -2.142   2.361  -3.414  0.00  0.00    +0.190 A 
ATOM     10  N   LIG    1       -2.396   1.188  -2.786  0.00  0.00    -0.540 NA
ATOM     11  O   LIG    1        0.507   3.444  -1.246  0.00  0.00    -0.500 OA
ATOM     12  C   LIG    1       -1.717   0.816  -1.730  0.00  0.00    +0.360 A 
ENDROOT
BRANCH   1  14
ATOM     13  C   LIG    1       -0.729   1.579   1.267  0.00  0.00    +0.040 C 
ATOM     14  C   LIG    1       -0.013   1.086   0.008  0.00  0.00    +0.290 C 
ENDBRANCH   1  14
BRANCH  12  15
ATOM     15  S   LIG    1       -2.111  -0.730  -0.980  0.00  0.00    +0.090 S 
BRANCH  15  16
ATOM     16  C   LIG    1       -3.442  -1.280  -2.076  0.00  0.00    +0.110 C 
BRANCH  16  17
ATOM     17  C   LIG    1       -3.950  -2.622  -1.614  0.00  0.00    +0.530 C 
ATOM     18  N   LIG    1       -4.949  -3.230  -2.283  0.00  0.00    -0.720 N 
ATOM     19  H   LIG    1       -5.341  -2.805  -3.062  0.00  0.00    +0.410 HD
ATOM     20  O   LIG    1       -3.460  -3.154  -0.641  0.00  0.00    -0.520 OA
BRANCH  18  21
ATOM     21  C   LIG    1       -5.443  -4.535  -1.835  0.00  0.00    +0.320 C 
BRANCH  21  22
ATOM     22  C   LIG    1       -6.552  -4.993  -2.747  0.00  0.00    -0.130 A 
ATOM     23  C   LIG    1       -7.863  -4.662  -2.460  0.00  0.00    +0.070 A 
ATOM     24  C   LIG    1       -8.880  -5.077  -3.298  0.00  0.00    -0.020 A 
ATOM     25  C   LIG    1       -8.587  -5.833  -4.420  0.00  0.00    +0.110 A 
ATOM     26  C   LIG    1       -7.274  -6.169  -4.704  0.00  0.00    -0.020 A 
ATOM     27  F   LIG    1       -9.581  -6.245  -5.237  0.00  0.00    -0.140 F 
ATOM     28  C   LIG    1       -6.258  -5.748  -3.867  0.00  0.00    +0.070 A 
ENDBRANCH  21  22
ENDBRANCH  18  21
ENDBRANCH  16  17
ENDBRANCH  15  16
ENDBRANCH  12  15
TORSDOF 6
