REMARK  Name = ZINCrD0000075Ju7.0
REMARK                            x       y       z     vdW  Elec       q    Type
REMARK                         _______ _______ _______ _____ _____    ______ ____
ROOT
ATOM      1  O   LIG    1        0.294   1.764  -5.012  0.00  0.00    -0.490 OA
ATOM      2  C   LIG    1       -0.856   2.135  -4.866  0.00  0.00    +0.590 C 
ATOM      3  N   LIG    1       -1.522   2.686  -5.900  0.00  0.00    -0.710 N 
ATOM      4  H   LIG    1       -2.458   2.921  -5.804  0.00  0.00    +0.410 HD
ENDROOT
BRANCH   2   5
ATOM      5  C   LIG    1       -1.516   1.981  -3.567  0.00  0.00    -0.260 A 
ATOM      6  C   LIG    1       -0.954   1.443  -2.455  0.00  0.00    +0.130 A 
ATOM      7  C   LIG    1       -1.794   1.412  -1.347  0.00  0.00    -0.100 A 
ATOM      8  C   LIG    1       -3.016   1.928  -1.572  0.00  0.00    -0.200 A 
ATOM      9  C   LIG    1       -4.165   2.062  -0.590  0.00  0.00    +0.180 C 
ATOM     10  C   LIG    1       -3.994   1.129   0.603  0.00  0.00    -0.310 C 
ATOM     11  S   LIG    1       -2.346   1.413   1.323  0.00  0.00    +2.420 S 
ATOM     12  O   LIG    1       -2.150   2.811   1.483  0.00  0.00    -0.920 OA
ATOM     13  O   LIG    1       -2.178   0.551   2.441  0.00  0.00    -0.930 OA
ATOM     14  C   LIG    1       -1.292   0.825  -0.032  0.00  0.00    -0.250 C 
ATOM     15  S   LIG    1       -3.161   2.464  -3.197  0.00  0.00    +0.230 S 
ENDBRANCH   2   5
BRANCH   3  16
ATOM     16  C   LIG    1       -0.832   2.931  -7.169  0.00  0.00    +0.190 C 
ATOM     17  C   LIG    1        0.447   3.762  -6.931  0.00  0.00    +0.090 C 
ATOM     18  C   LIG    1       -0.055   5.208  -7.130  0.00  0.00    +0.100 C 
ATOM     19  C   LIG    1       -1.246   5.090  -8.057  0.00  0.00    -0.060 A 
ATOM     20  C   LIG    1       -1.888   6.050  -8.820  0.00  0.00    +0.020 A 
ATOM     21  C   LIG    1       -2.973   5.705  -9.603  0.00  0.00    +0.040 A 
ATOM     22  C   LIG    1       -3.419   4.397  -9.625  0.00  0.00    +0.010 A 
ATOM     23  C   LIG    1       -2.780   3.437  -8.864  0.00  0.00    +0.050 A 
ATOM     24  C   LIG    1       -1.692   3.781  -8.079  0.00  0.00    -0.130 A 
BRANCH  16  25
ATOM     25  C   LIG    1       -0.485   1.605  -7.848  0.00  0.00    +0.440 C 
ATOM     26  F   LIG    1        0.458   0.918  -7.076  0.00  0.00    -0.160 F 
ATOM     27  F   LIG    1        0.047   1.857  -9.118  0.00  0.00    -0.170 F 
ATOM     28  F   LIG    1       -1.641   0.828  -7.973  0.00  0.00    -0.180 F 
ENDBRANCH  16  25
ENDBRANCH   3  16
TORSDOF 3
