REMARK  Name = ZINCvU0000000FFG.0
REMARK                            x       y       z     vdW  Elec       q    Type
REMARK                         _______ _______ _______ _____ _____    ______ ____
ROOT
ATOM      1  C   LIG    1       -3.790   1.796  -1.264  0.00  0.00    -0.690 A 
ATOM      2  C   LIG    1       -2.603   1.099  -1.174  0.00  0.00    +0.180 A 
ATOM      3  C   LIG    1       -1.597   1.548  -0.316  0.00  0.00    -0.150 A 
ATOM      4  C   LIG    1       -1.796   2.706   0.437  0.00  0.00    +0.110 A 
ATOM      5  C   LIG    1       -2.986   3.397   0.333  0.00  0.00    +0.010 A 
ATOM      6  C   LIG    1       -3.981   2.944  -0.514  0.00  0.00    +0.050 A 
ATOM      7  C   LIG    1       -5.277   3.704  -0.623  0.00  0.00    +0.110 C 
ENDROOT
BRANCH   3   8
ATOM      8  C   LIG    1       -0.325   0.802  -0.210  0.00  0.00    +0.550 C 
ATOM      9  N   LIG    1        0.648   1.244   0.611  0.00  0.00    -0.670 N 
ATOM     10  H   LIG    1        0.533   2.076   1.096  0.00  0.00    +0.410 HD
ATOM     11  O   LIG    1       -0.155  -0.206  -0.867  0.00  0.00    -0.480 OA
BRANCH   9  12
ATOM     12  C   LIG    1        1.824   0.502   0.763  0.00  0.00    +0.140 A 
ATOM     13  C   LIG    1        3.054   1.146   0.797  0.00  0.00    -0.090 A 
ATOM     14  C   LIG    1        4.214   0.411   0.948  0.00  0.00    +0.030 A 
ATOM     15  C   LIG    1        4.152  -0.965   1.067  0.00  0.00    -0.080 A 
ATOM     16  C   LIG    1        2.929  -1.611   1.034  0.00  0.00    +0.040 A 
ATOM     17  C   LIG    1        5.419  -1.764   1.232  0.00  0.00    +0.100 C 
ATOM     18  C   LIG    1        3.123   2.646   0.668  0.00  0.00    +0.110 C 
ATOM     19  C   LIG    1        1.764  -0.881   0.888  0.00  0.00    -0.030 A 
ATOM     20 CL   LIG    1        0.229  -1.692   0.854  0.00  0.00    -0.040 Cl
ENDBRANCH   9  12
ENDBRANCH   3   8
BRANCH   1  21
ATOM     21  S   LIG    1       -5.064   1.228  -2.341  0.00  0.00    +2.690 S 
ATOM     22  O   LIG    1       -5.428   2.337  -3.151  0.00  0.00    -0.940 OA
ATOM     23  O   LIG    1       -5.991   0.522  -1.528  0.00  0.00    -0.930 OA
BRANCH  21  24
ATOM     24  N   LIG    1       -4.385   0.110  -3.356  0.00  0.00    -0.940 N 
BRANCH  24  25
ATOM     25  C   LIG    1       -4.317  -1.232  -2.971  0.00  0.00    +0.160 A 
ATOM     26  C   LIG    1       -4.295  -1.570  -1.624  0.00  0.00    -0.040 A 
ATOM     27  C   LIG    1       -4.232  -2.897  -1.248  0.00  0.00    +0.050 A 
ATOM     28  C   LIG    1       -4.182  -3.889  -2.211  0.00  0.00    -0.010 A 
ATOM     29  C   LIG    1       -4.199  -3.555  -3.553  0.00  0.00    +0.040 A 
ATOM     30  C   LIG    1       -4.267  -2.230  -3.936  0.00  0.00    -0.010 A 
ENDBRANCH  24  25
BRANCH  24  32
ATOM     31  C   LIG    1       -2.343   0.729  -4.550  0.00  0.00    +0.030 C 
ATOM     32  C   LIG    1       -3.856   0.527  -4.656  0.00  0.00    +0.310 C 
ENDBRANCH  24  32
ENDBRANCH  21  24
ENDBRANCH   1  21
TORSDOF 6
