REMARK  Name = ZINCvU00000008gg.0
REMARK                            x       y       z     vdW  Elec       q    Type
REMARK                         _______ _______ _______ _____ _____    ______ ____
ROOT
ATOM      1  N   LIG    1        3.602   3.280   0.086  0.00  0.00    -0.670 N 
ATOM      2  C   LIG    1        2.556   3.938  -0.450  0.00  0.00    +0.620 C 
ATOM      3  O   LIG    1        2.655   4.443  -1.551  0.00  0.00    -0.450 OA
ENDROOT
BRANCH   2   4
ATOM      4  C   LIG    1        1.287   4.047   0.302  0.00  0.00    -0.110 A 
ATOM      5  C   LIG    1        0.672   2.900   0.807  0.00  0.00    +0.000 A 
ATOM      6  C   LIG    1       -0.512   3.005   1.507  0.00  0.00    +0.050 A 
ATOM      7  C   LIG    1       -1.095   4.242   1.707  0.00  0.00    -0.060 A 
ATOM      8  C   LIG    1       -0.488   5.389   1.212  0.00  0.00    +0.130 A 
ATOM      9  C   LIG    1        0.700   5.295   0.508  0.00  0.00    +0.020 A 
BRANCH   8  10
ATOM     10  O   LIG    1       -1.064   6.604   1.415  0.00  0.00    -0.310 OA
BRANCH  10  11
ATOM     11  C   LIG    1       -2.289   6.626   2.151  0.00  0.00    +0.270 C 
BRANCH  11  12
ATOM     12  C   LIG    1       -2.774   8.048   2.275  0.00  0.00    -0.150 A 
ATOM     13  C   LIG    1       -2.391   8.828   3.354  0.00  0.00    +0.090 A 
ATOM     14  C   LIG    1       -2.857  10.133   3.424  0.00  0.00    -0.030 A 
ATOM     15  C   LIG    1       -3.691  10.604   2.429  0.00  0.00    +0.270 A 
ATOM     16  N   LIG    1       -4.040   9.831   1.418  0.00  0.00    -0.490 NA
ATOM     17  C   LIG    1       -3.611   8.588   1.316  0.00  0.00    +0.290 A 
ENDBRANCH  11  12
ENDBRANCH  10  11
ENDBRANCH   8  10
ENDBRANCH   2   4
BRANCH   1  20
ATOM     18  C   LIG    1        5.567   5.966   0.738  0.00  0.00    +0.040 C 
ATOM     19  C   LIG    1        5.500   4.871  -0.339  0.00  0.00    +0.020 C 
ATOM     20  C   LIG    1        4.713   4.028   0.678  0.00  0.00    +0.270 C 
ATOM     21  C   LIG    1        4.285   5.355   1.328  0.00  0.00    +0.010 C 
BRANCH  18  28
ATOM     22  C   LIG    1        7.652   7.941   1.065  0.00  0.00    +0.090 C 
ATOM     23  C   LIG    1        6.375   8.304   0.352  0.00  0.00    -0.080 A 
ATOM     24  C   LIG    1        6.200   9.582  -0.146  0.00  0.00    +0.000 A 
ATOM     25  C   LIG    1        5.029   9.915  -0.800  0.00  0.00    +0.000 A 
ATOM     26  C   LIG    1        4.032   8.970  -0.957  0.00  0.00    +0.000 A 
ATOM     27  C   LIG    1        4.208   7.691  -0.463  0.00  0.00    +0.010 A 
ATOM     28  C   LIG    1        5.377   7.359   0.196  0.00  0.00    -0.070 A 
ENDBRANCH  18  28
ENDBRANCH   1  20
BRANCH   1  29
ATOM     29  C   LIG    1        3.629   1.815   0.076  0.00  0.00    +0.240 C 
ATOM     30  C   LIG    1        2.352   1.088  -0.351  0.00  0.00    +0.010 C 
ATOM     31  C   LIG    1        2.779   1.086   1.119  0.00  0.00    +0.010 C 
ENDBRANCH   1  29
TORSDOF 7
