REMARK  Name = ZINCrH000004nWG4.0
REMARK                            x       y       z     vdW  Elec       q    Type
REMARK                         _______ _______ _______ _____ _____    ______ ____
ROOT
ATOM      1  C   LIG    1        0.234   2.580   2.135  0.00  0.00    +0.520 C 
ATOM      2  N   LIG    1       -0.095   1.770   1.110  0.00  0.00    -0.610 N 
ATOM      3  C   LIG    1       -1.244   0.855   1.210  0.00  0.00    +0.270 C 
ATOM      4  C   LIG    1       -2.172   1.094   0.015  0.00  0.00    +0.010 C 
ATOM      5  C   LIG    1       -1.373   0.957  -1.283  0.00  0.00    +0.050 C 
ATOM      6  C   LIG    1       -0.264   2.011  -1.314  0.00  0.00    -0.030 C 
ATOM      7  C   LIG    1        0.686   1.783  -0.135  0.00  0.00    +0.300 C 
ATOM      8  O   LIG    1        1.236   3.259   2.074  0.00  0.00    -0.510 OA
ENDROOT
BRANCH   6   9
ATOM      9  C   LIG    1        0.502   1.898  -2.607  0.00  0.00    -0.080 A 
ATOM     10  C   LIG    1        1.858   1.630  -2.585  0.00  0.00    +0.000 A 
ATOM     11  C   LIG    1        2.561   1.521  -3.771  0.00  0.00    +0.000 A 
ATOM     12  C   LIG    1        1.909   1.690  -4.978  0.00  0.00    +0.000 A 
ATOM     13  C   LIG    1        0.554   1.963  -5.000  0.00  0.00    +0.000 A 
ATOM     14  C   LIG    1       -0.149   2.067  -3.814  0.00  0.00    +0.050 A 
ENDBRANCH   6   9
BRANCH   1  15
ATOM     15  C   LIG    1       -0.646   2.643   3.357  0.00  0.00    +0.170 C 
ATOM     16  C   LIG    1       -1.960   3.342   3.005  0.00  0.00    +0.060 C 
BRANCH  15  17
ATOM     17  O   LIG    1        0.022   3.375   4.387  0.00  0.00    -0.280 OA
BRANCH  17  21
ATOM     18  C   LIG    1       -1.078   2.557   8.282  0.00  0.00    -0.120 A 
ATOM     19  C   LIG    1       -1.758   1.960   7.228  0.00  0.00    +0.070 A 
ATOM     20  C   LIG    1       -1.389   2.234   5.926  0.00  0.00    -0.060 A 
ATOM     21  C   LIG    1       -0.341   3.106   5.670  0.00  0.00    +0.130 A 
ATOM     22  C   LIG    1        0.342   3.699   6.722  0.00  0.00    +0.010 A 
ATOM     23  C   LIG    1       -0.028   3.430   8.025  0.00  0.00    +0.040 A 
BRANCH  18  25
ATOM     24  C   LIG    1       -0.386   3.208  10.915  0.00  0.00    +0.130 C 
ATOM     25  S   LIG    1       -1.548   2.208   9.944  0.00  0.00    -0.120 S 
ENDBRANCH  18  25
ENDBRANCH  17  21
ENDBRANCH  15  17
ENDBRANCH   1  15
BRANCH   6  26
ATOM     26  C   LIG    1       -0.883   3.406  -1.209  0.00  0.00    +0.190 C 
BRANCH  26  27
ATOM     27  O   LIG    1       -1.769   3.619  -2.309  0.00  0.00    -0.560 OA
ATOM     28  H   LIG    1       -2.198   4.486  -2.307  0.00  0.00    +0.380 HD
ENDBRANCH  26  27
ENDBRANCH   6  26
TORSDOF 7
