REMARK  Name = ZINCvU0000000Cmv.0
REMARK                            x       y       z     vdW  Elec       q    Type
REMARK                         _______ _______ _______ _____ _____    ______ ____
ROOT
ATOM      1  C   LIG    1        2.656   6.810  -0.156  0.00  0.00    +0.290 A 
ATOM      2  N   LIG    1        2.866   6.899  -1.437  0.00  0.00    -0.470 NA
ATOM      3  C   LIG    1        3.627   7.992  -1.700  0.00  0.00    +0.050 A 
ATOM      4  C   LIG    1        4.137   8.552  -2.874  0.00  0.00    +0.070 A 
ATOM      5  C   LIG    1        4.896   9.687  -2.814  0.00  0.00    +0.010 A 
ATOM      6  C   LIG    1        5.169  10.291  -1.595  0.00  0.00    +0.040 A 
ATOM      7  C   LIG    1        4.676   9.757  -0.424  0.00  0.00    +0.010 A 
ATOM      8  C   LIG    1        3.903   8.605  -0.465  0.00  0.00    +0.050 A 
ATOM      9  N   LIG    1        3.275   7.833   0.492  0.00  0.00    -0.480 N 
ENDROOT
BRANCH   1  13
ATOM     10  O   LIG    1       -1.079   3.791  -0.170  0.00  0.00    -0.500 OA
ATOM     11  C   LIG    1        0.047   4.232  -0.073  0.00  0.00    +0.520 C 
ATOM     12  C   LIG    1        0.401   5.702  -0.026  0.00  0.00    +0.100 C 
ATOM     13  C   LIG    1        1.850   5.726   0.513  0.00  0.00    +0.080 C 
ATOM     14  C   LIG    1        2.360   4.326   0.114  0.00  0.00    +0.300 C 
ATOM     15  N   LIG    1        1.162   3.485   0.009  0.00  0.00    -0.560 N 
BRANCH  15  16
ATOM     16  C   LIG    1        1.177   2.086   0.002  0.00  0.00    +0.160 A 
ATOM     17  C   LIG    1        2.386   1.404  -0.029  0.00  0.00    -0.040 A 
ATOM     18  C   LIG    1        2.398   0.023  -0.036  0.00  0.00    +0.040 A 
ATOM     19  C   LIG    1        1.208  -0.681  -0.011  0.00  0.00    -0.020 A 
ATOM     20  C   LIG    1        0.002  -0.004   0.020  0.00  0.00    +0.040 A 
ATOM     21  C   LIG    1       -0.016   1.377   0.026  0.00  0.00    -0.010 A 
ENDBRANCH  15  16
ENDBRANCH   1  13
BRANCH   9  22
ATOM     22  C   LIG    1        3.275   8.073   1.937  0.00  0.00    +0.330 C 
BRANCH  22  23
ATOM     23  C   LIG    1        4.464   7.352   2.574  0.00  0.00    +0.180 C 
BRANCH  23  24
ATOM     24  O   LIG    1        4.464   7.586   3.984  0.00  0.00    -0.310 OA
BRANCH  24  25
ATOM     25  C   LIG    1        5.463   7.011   4.705  0.00  0.00    +0.130 A 
ATOM     26  C   LIG    1        6.420   6.234   4.069  0.00  0.00    -0.060 A 
ATOM     27  C   LIG    1        7.438   5.656   4.802  0.00  0.00    +0.070 A 
ATOM     28  C   LIG    1        7.496   5.842   6.172  0.00  0.00    -0.070 A 
ATOM     29  C   LIG    1        6.539   6.612   6.809  0.00  0.00    +0.070 A 
ATOM     30 CL   LIG    1        8.772   5.108   7.093  0.00  0.00    -0.070 Cl
ATOM     31  C   LIG    1        5.523   7.197   6.078  0.00  0.00    +0.000 A 
ENDBRANCH  24  25
ENDBRANCH  23  24
ENDBRANCH  22  23
ENDBRANCH   9  22
TORSDOF 6
