REMARK  Name = ZINCkj000005m3Rp.0
REMARK                            x       y       z     vdW  Elec       q    Type
REMARK                         _______ _______ _______ _____ _____    ______ ____
ROOT
ATOM      1  O   LIG    1        2.928   5.930   2.607  0.00  0.00    -0.510 OA
ATOM      2  C   LIG    1        1.948   6.383   2.055  0.00  0.00    +0.520 C 
ATOM      3  N   LIG    1        1.071   5.556   1.452  0.00  0.00    -0.610 N 
ATOM      4  C   LIG    1       -0.125   6.082   0.775  0.00  0.00    +0.240 C 
ATOM      5  C   LIG    1       -0.189   5.479  -0.633  0.00  0.00    +0.230 C 
ATOM      6  O   LIG    1       -0.086   4.056  -0.540  0.00  0.00    -0.360 OA
ATOM      7  C   LIG    1        1.149   3.593   0.010  0.00  0.00    +0.210 C 
ATOM      8  C   LIG    1        1.282   4.099   1.451  0.00  0.00    +0.290 C 
ENDROOT
BRANCH   7   9
ATOM      9  C   LIG    1        1.170   2.086   0.002  0.00  0.00    -0.130 A 
ATOM     10  C   LIG    1       -0.017   1.378   0.010  0.00  0.00    +0.080 A 
ATOM     11  C   LIG    1        0.002  -0.004   0.002  0.00  0.00    +0.010 A 
ATOM     12  C   LIG    1        1.208  -0.680  -0.013  0.00  0.00    +0.060 A 
ATOM     13  C   LIG    1        2.396   0.026  -0.021  0.00  0.00    -0.010 A 
ATOM     14  C   LIG    1        2.379   1.410  -0.013  0.00  0.00    +0.110 A 
ATOM     15  F   LIG    1        3.540   2.101  -0.021  0.00  0.00    -0.140 F 
ENDBRANCH   7   9
BRANCH   2  16
ATOM     16  C   LIG    1        1.711   7.871   2.042  0.00  0.00    +0.000 C 
ATOM     17  C   LIG    1        2.809   8.607   2.844  0.00  0.00    +0.090 C 
ATOM     18  C   LIG    1        2.072   9.723   3.606  0.00  0.00    +0.280 C 
ATOM     19  N   LIG    1        0.644   9.637   3.228  0.00  0.00    -0.520 N 
ATOM     20  H   LIG    1        0.451  10.258   2.457  0.00  0.00    +0.430 HD
ATOM     21  H   LIG    1        0.061   9.868   4.018  0.00  0.00    +0.440 HD
ATOM     22  C   LIG    1        0.416   8.226   2.816  0.00  0.00    +0.290 C 
ENDBRANCH   2  16
TORSDOF 2
