REMARK  Name = ZINCpk00000y6yiE.0
REMARK                            x       y       z     vdW  Elec       q    Type
REMARK                         _______ _______ _______ _____ _____    ______ ____
ROOT
ATOM      1  N   LIG    1       -4.445   0.495   2.620  0.00  0.00    -0.740 N 
ATOM      2  H   LIG    1       -4.615   0.002   1.802  0.00  0.00    +0.400 HD
ATOM      3  C   LIG    1       -5.366   0.505   3.604  0.00  0.00    +0.710 C 
ATOM      4  N   LIG    1       -6.478  -0.248   3.494  0.00  0.00    -0.630 N 
ATOM      5  C   LIG    1       -7.442  -0.342   4.602  0.00  0.00    +0.310 C 
ATOM      6  C   LIG    1       -8.843  -0.056   4.050  0.00  0.00    +0.200 C 
ATOM      7  O   LIG    1       -9.087  -0.902   2.924  0.00  0.00    -0.340 OA
ATOM      8  C   LIG    1       -8.199  -0.683   1.825  0.00  0.00    +0.150 C 
ATOM      9  C   LIG    1       -8.592  -1.595   0.661  0.00  0.00    +0.060 C 
ATOM     10  C   LIG    1       -6.768  -0.996   2.261  0.00  0.00    +0.240 C 
ATOM     11  O   LIG    1       -5.194   1.195   4.591  0.00  0.00    -0.580 OA
ENDROOT
BRANCH   6  12
ATOM     12  C   LIG    1       -8.932   1.387   3.624  0.00  0.00    +0.500 C 
ATOM     13  O   LIG    1       -9.211   1.665   2.478  0.00  0.00    -0.530 OA
ATOM     14  N   LIG    1       -8.700   2.369   4.518  0.00  0.00    -0.840 N 
ATOM     15  H   LIG    1       -8.757   3.298   4.245  0.00  0.00    +0.400 HD
ATOM     16  H   LIG    1       -8.476   2.147   5.436  0.00  0.00    +0.400 HD
ENDBRANCH   6  12
BRANCH   1  17
ATOM     17  C   LIG    1       -3.188   1.227   2.786  0.00  0.00    +0.310 C 
BRANCH  17  18
ATOM     18  C   LIG    1       -2.326   1.053   1.533  0.00  0.00    +0.160 C 
BRANCH  18  20
ATOM     19  C   LIG    1       -0.060   1.431   0.553  0.00  0.00    +0.020 C 
ATOM     20  C   LIG    1       -0.964   1.712   1.755  0.00  0.00    +0.020 C 
ENDBRANCH  18  20
BRANCH  18  21
ATOM     21  O   LIG    1       -2.977   1.666   0.419  0.00  0.00    -0.300 OA
BRANCH  21  22
ATOM     22  C   LIG    1       -2.825   1.067  -0.791  0.00  0.00    +0.130 A 
ATOM     23  C   LIG    1       -2.119  -0.123  -0.893  0.00  0.00    -0.090 A 
ATOM     24  C   LIG    1       -1.965  -0.730  -2.125  0.00  0.00    +0.050 A 
ATOM     25  C   LIG    1       -2.514  -0.153  -3.255  0.00  0.00    -0.040 A 
ATOM     26  C   LIG    1       -3.218   1.033  -3.156  0.00  0.00    -0.040 A 
ATOM     27  C   LIG    1       -3.816   1.659  -4.390  0.00  0.00    +0.090 C 
ATOM     28  C   LIG    1       -3.379   1.641  -1.926  0.00  0.00    -0.030 A 
ENDBRANCH  21  22
ENDBRANCH  18  21
ENDBRANCH  17  18
ENDBRANCH   1  17
TORSDOF 6
