REMARK  Name = ZINCqH0000005Xp4.0
REMARK                            x       y       z     vdW  Elec       q    Type
REMARK                         _______ _______ _______ _____ _____    ______ ____
ROOT
ATOM      1  N   LIG    1        0.585  -0.664  -1.018  0.00  0.00    -0.680 N 
ATOM      2  H   LIG    1        1.032  -0.163  -1.718  0.00  0.00    +0.410 HD
ATOM      3  C   LIG    1       -0.144  -0.018  -0.087  0.00  0.00    +0.520 C 
ATOM      4  O   LIG    1       -0.781  -0.650   0.730  0.00  0.00    -0.490 OA
ENDROOT
BRANCH   1   8
ATOM      5  C   LIG    1        0.919  -4.814  -0.892  0.00  0.00    -0.150 A 
ATOM      6  C   LIG    1        0.906  -4.150  -2.122  0.00  0.00    +0.110 A 
ATOM      7  C   LIG    1        0.795  -2.778  -2.160  0.00  0.00    -0.020 A 
ATOM      8  C   LIG    1        0.697  -2.054  -0.976  0.00  0.00    +0.190 A 
ATOM      9  C   LIG    1        0.715  -2.712   0.250  0.00  0.00    +0.000 A 
ATOM     10  C   LIG    1        0.819  -4.083   0.295  0.00  0.00    +0.100 A 
BRANCH   5  11
ATOM     11  C   LIG    1        1.038  -6.284  -0.848  0.00  0.00    +0.510 C 
ATOM     12  O   LIG    1        1.125  -6.918  -1.880  0.00  0.00    -0.510 OA
BRANCH  11  14
ATOM     13  C   LIG    1        1.170  -8.370   0.306  0.00  0.00    +0.260 C 
ATOM     14  O   LIG    1        1.050  -6.923   0.339  0.00  0.00    -0.360 OA
ENDBRANCH  11  14
ENDBRANCH   5  11
ENDBRANCH   1   8
BRANCH   3  15
ATOM     15  C   LIG    1       -0.169   1.488  -0.060  0.00  0.00    +0.180 C 
BRANCH  15  16
ATOM     16  C   LIG    1       -1.051   1.956   1.068  0.00  0.00    +0.080 A 
ATOM     17  C   LIG    1       -0.625   2.792   2.020  0.00  0.00    -0.080 A 
ATOM     18  S   LIG    1       -1.964   3.078   3.129  0.00  0.00    +0.130 S 
ATOM     19  C   LIG    1       -2.961   2.039   2.207  0.00  0.00    +0.060 A 
ATOM     20  N   LIG    1       -2.305   1.572   1.199  0.00  0.00    -0.450 NA
BRANCH  19  21
ATOM     21  C   LIG    1       -4.399   1.717   2.524  0.00  0.00    +0.200 C 
BRANCH  21  22
ATOM     22  C   LIG    1       -4.456   0.505   3.418  0.00  0.00    -0.090 A 
ATOM     23  C   LIG    1       -4.543  -0.758   2.864  0.00  0.00    +0.030 A 
ATOM     24  C   LIG    1       -4.590  -1.871   3.683  0.00  0.00    +0.000 A 
ATOM     25  C   LIG    1       -4.562  -1.718   5.057  0.00  0.00    +0.000 A 
ATOM     26  C   LIG    1       -4.481  -0.455   5.611  0.00  0.00    +0.000 A 
ATOM     27  C   LIG    1       -4.428   0.657   4.792  0.00  0.00    +0.010 A 
ENDBRANCH  21  22
ENDBRANCH  19  21
ENDBRANCH  15  16
ENDBRANCH   3  15
TORSDOF 7
