REMARK  Name = ZINCrg000000tHsU.0
REMARK                            x       y       z     vdW  Elec       q    Type
REMARK                         _______ _______ _______ _____ _____    ______ ____
ROOT
ATOM      1  C   LIG    1        1.246  -1.141   3.656  0.00  0.00    +0.140 A 
ATOM      2  C   LIG    1        0.057  -1.192   4.372  0.00  0.00    +0.080 A 
ATOM      3  C   LIG    1       -1.146  -0.994   3.723  0.00  0.00    +0.020 A 
ATOM      4  C   LIG    1       -1.167  -0.746   2.363  0.00  0.00    +0.100 A 
ATOM      5  C   LIG    1        0.015  -0.695   1.647  0.00  0.00    -0.660 A 
ATOM      6  C   LIG    1        1.221  -0.897   2.289  0.00  0.00    +0.090 A 
ENDROOT
BRANCH   1   9
ATOM      7  O   LIG    1        1.570  -2.851   5.671  0.00  0.00    -0.510 OA
ATOM      8  C   LIG    1        2.541  -2.187   5.356  0.00  0.00    +0.600 C 
ATOM      9  N   LIG    1        2.467  -1.340   4.310  0.00  0.00    -0.680 N 
ATOM     10  H   LIG    1        3.260  -0.868   4.011  0.00  0.00    +0.410 HD
BRANCH   8  11
ATOM     11  C   LIG    1        3.789  -2.309   6.113  0.00  0.00    -0.300 A 
ATOM     12  C   LIG    1        4.019  -3.146   7.222  0.00  0.00    +0.330 A 
ATOM     13  N   LIG    1        3.241  -4.012   7.874  0.00  0.00    -0.450 NA
ATOM     14  C   LIG    1        3.700  -4.688   8.904  0.00  0.00    +0.380 A 
ATOM     15  C   LIG    1        5.019  -4.505   9.332  0.00  0.00    -0.040 A 
ATOM     16  C   LIG    1        5.817  -3.625   8.674  0.00  0.00    +0.360 A 
ATOM     17  N   LIG    1        5.312  -2.939   7.610  0.00  0.00    -0.310 N 
ATOM     18  N   LIG    1        5.876  -1.988   6.753  0.00  0.00    -0.300 NA
ATOM     19  C   LIG    1        4.989  -1.617   5.867  0.00  0.00    +0.340 A 
ENDBRANCH   8  11
ENDBRANCH   1   9
BRANCH   5  20
ATOM     20  S   LIG    1       -0.018  -0.380  -0.086  0.00  0.00    +2.690 S 
ATOM     21  O   LIG    1        1.186  -0.918  -0.615  0.00  0.00    -0.950 OA
ATOM     22  O   LIG    1       -1.308  -0.766  -0.540  0.00  0.00    -0.950 OA
BRANCH  20  23
ATOM     23  N   LIG    1        0.076   1.261  -0.287  0.00  0.00    -1.000 NA
ATOM     24  C   LIG    1       -1.140   2.088  -0.348  0.00  0.00    +0.280 C 
ATOM     25  C   LIG    1       -0.978   3.252   0.643  0.00  0.00    +0.220 C 
ATOM     26  O   LIG    1        0.258   3.921   0.382  0.00  0.00    -0.380 OA
ATOM     27  C   LIG    1        1.417   3.106   0.572  0.00  0.00    +0.220 C 
ATOM     28  C   LIG    1        1.378   1.935  -0.417  0.00  0.00    +0.280 C 
ENDBRANCH  20  23
ENDBRANCH   5  20
TORSDOF 4
