REMARK  Name = ZINCrD000000fRxA.1
REMARK                            x       y       z     vdW  Elec       q    Type
REMARK                         _______ _______ _______ _____ _____    ______ ____
ROOT
ATOM      1  C   LIG    1        2.216   3.978   2.429  0.00  0.00    +0.190 A 
ATOM      2  C   LIG    1        3.517   3.988   1.948  0.00  0.00    -0.010 A 
ATOM      3  C   LIG    1        4.564   3.634   2.776  0.00  0.00    +0.070 A 
ATOM      4  C   LIG    1        4.322   3.257   4.085  0.00  0.00    -0.010 A 
ATOM      5  C   LIG    1        3.033   3.236   4.577  0.00  0.00    +0.090 A 
ATOM      6  C   LIG    1        1.969   3.596   3.754  0.00  0.00    -0.040 A 
ENDROOT
BRANCH   6   7
ATOM      7  C   LIG    1        0.582   3.577   4.277  0.00  0.00    +0.280 A 
ATOM      8  N   LIG    1       -0.499   3.894   3.598  0.00  0.00    -0.320 NA
ATOM      9  N   LIG    1       -1.587   3.736   4.472  0.00  0.00    -0.470 N 
ATOM     10  H   LIG    1       -2.522   3.892   4.268  0.00  0.00    +0.440 HD
ATOM     11  C   LIG    1       -1.077   3.324   5.646  0.00  0.00    +0.330 A 
ATOM     12  N   LIG    1        0.220   3.227   5.519  0.00  0.00    -0.520 NA
BRANCH  11  13
ATOM     13  C   LIG    1       -1.867   3.021   6.893  0.00  0.00    +0.050 C 
ATOM     14  C   LIG    1       -3.303   3.543   6.964  0.00  0.00    +0.040 C 
ATOM     15  C   LIG    1       -2.209   4.193   7.815  0.00  0.00    +0.060 C 
ENDBRANCH  11  13
ENDBRANCH   6   7
BRANCH   1  16
ATOM     16  N   LIG    1        1.158   4.340   1.596  0.00  0.00    -1.040 N 
ATOM     17  H   LIG    1        0.399   4.823   1.958  0.00  0.00    +0.440 HD
BRANCH  16  18
ATOM     18  S   LIG    1        1.197   3.945  -0.011  0.00  0.00    +2.690 S 
ATOM     19  O   LIG    1       -0.065   4.318  -0.547  0.00  0.00    -0.940 OA
ATOM     20  O   LIG    1        2.432   4.436  -0.515  0.00  0.00    -0.940 OA
BRANCH  18  25
ATOM     21  C   LIG    1        0.191   0.051  -0.252  0.00  0.00    -0.190 A 
ATOM     22  C   LIG    1        1.439  -0.579  -0.277  0.00  0.00    +0.120 A 
ATOM     23  C   LIG    1        2.591   0.177  -0.221  0.00  0.00    -0.010 A 
ATOM     24  C   LIG    1        2.514   1.556  -0.140  0.00  0.00    +0.160 A 
ATOM     25  C   LIG    1        1.282   2.188  -0.115  0.00  0.00    -0.690 A 
ATOM     26  C   LIG    1        0.121   1.446  -0.170  0.00  0.00    +0.190 A 
BRANCH  21  28
ATOM     27  C   LIG    1       -0.964  -2.251  -0.400  0.00  0.00    +0.090 C 
ATOM     28  C   LIG    1       -1.043  -0.749  -0.312  0.00  0.00    +0.390 C 
ATOM     29  O   LIG    1       -2.124  -0.199  -0.289  0.00  0.00    -0.450 OA
ENDBRANCH  21  28
ENDBRANCH  18  25
ENDBRANCH  16  18
ENDBRANCH   1  16
TORSDOF 6
