REMARK  Name = ZINCrD000000C3WG.0
REMARK                            x       y       z     vdW  Elec       q    Type
REMARK                         _______ _______ _______ _____ _____    ______ ____
ROOT
ATOM      1  O   LIG    1        2.529  -0.130  -0.346  0.00  0.00    -0.510 OA
ATOM      2  C   LIG    1        2.490   1.074  -0.183  0.00  0.00    +0.560 C 
ATOM      3  N   LIG    1        3.634   1.769  -0.024  0.00  0.00    -0.670 N 
ATOM      4  H   LIG    1        3.609   2.737   0.029  0.00  0.00    +0.420 HD
ENDROOT
BRANCH   3   5
ATOM      5  C   LIG    1        4.857   1.094   0.066  0.00  0.00    +0.170 A 
ATOM      6  C   LIG    1        6.010   1.675  -0.443  0.00  0.00    +0.030 A 
ATOM      7  C   LIG    1        7.218   1.010  -0.354  0.00  0.00    +0.090 A 
ATOM      8  C   LIG    1        7.282  -0.239   0.242  0.00  0.00    +0.010 A 
ATOM      9  O   LIG    1        8.331  -1.088   0.451  0.00  0.00    -0.290 OA
ATOM     10  C   LIG    1        7.738  -2.371   0.727  0.00  0.00    +0.570 C 
ATOM     11  O   LIG    1        6.452  -2.041   1.283  0.00  0.00    -0.280 OA
ATOM     12  F   LIG    1        8.510  -3.081   1.652  0.00  0.00    -0.110 F 
ATOM     13  F   LIG    1        7.588  -3.107  -0.454  0.00  0.00    -0.150 F 
ATOM     14  C   LIG    1        6.127  -0.825   0.754  0.00  0.00    +0.050 A 
ATOM     15  C   LIG    1        4.918  -0.155   0.670  0.00  0.00    +0.070 A 
ENDBRANCH   3   5
BRANCH   2  16
ATOM     16  C   LIG    1        1.189   1.776  -0.161  0.00  0.00    -0.140 A 
ATOM     17  C   LIG    1        0.003   1.059  -0.326  0.00  0.00    +0.090 A 
ATOM     18  C   LIG    1       -1.207   1.721  -0.311  0.00  0.00    +0.040 A 
ATOM     19  C   LIG    1       -1.248   3.091  -0.120  0.00  0.00    -0.080 A 
ATOM     20  C   LIG    1       -0.075   3.807   0.044  0.00  0.00    +0.020 A 
ATOM     21  C   LIG    1        1.142   3.159   0.025  0.00  0.00    +0.040 A 
BRANCH  19  22
ATOM     22  C   LIG    1       -2.574   3.806  -0.098  0.00  0.00    +0.350 C 
BRANCH  22  23
ATOM     23  N   LIG    1       -2.926   4.224  -1.457  0.00  0.00    -0.620 N 
ATOM     24  C   LIG    1       -2.558   5.517  -2.047  0.00  0.00    +0.260 C 
ATOM     25  C   LIG    1       -2.741   5.339  -3.572  0.00  0.00    +0.040 C 
ATOM     26  C   LIG    1       -3.801   4.214  -3.631  0.00  0.00    +0.050 C 
ATOM     27  C   LIG    1       -3.632   3.476  -2.322  0.00  0.00    +0.520 C 
ATOM     28  O   LIG    1       -4.071   2.370  -2.086  0.00  0.00    -0.530 OA
ENDBRANCH  22  23
ENDBRANCH  19  22
ENDBRANCH   2  16
TORSDOF 4
