REMARK  Name = ZINCpe00000VVH3a.0
REMARK                            x       y       z     vdW  Elec       q    Type
REMARK                         _______ _______ _______ _____ _____    ______ ____
ROOT
ATOM      1  C   LIG    1       -1.165   8.614   1.503  0.00  0.00    +0.080 C 
ATOM      2  C   LIG    1       -1.199   8.112   0.058  0.00  0.00    +0.280 C 
ENDROOT
BRANCH   2   3
ATOM      3  C   LIG    1       -2.415   8.666  -0.638  0.00  0.00    +0.430 A 
ATOM      4  N   LIG    1       -2.285   9.653  -1.506  0.00  0.00    -0.630 NA
ATOM      5  C   LIG    1       -3.357  10.142  -2.127  0.00  0.00    +0.630 A 
ATOM      6  N   LIG    1       -4.560   9.643  -1.864  0.00  0.00    -0.650 NA
ATOM      7  C   LIG    1       -4.687   8.653  -0.986  0.00  0.00    +0.630 A 
ATOM      8  N   LIG    1       -3.610   8.167  -0.374  0.00  0.00    -0.610 NA
BRANCH   7   9
ATOM      9  N   LIG    1       -5.934   8.131  -0.709  0.00  0.00    -0.800 N 
ATOM     10  H   LIG    1       -6.718   8.486  -1.156  0.00  0.00    +0.420 HD
ATOM     11  H   LIG    1       -6.026   7.409  -0.068  0.00  0.00    +0.420 HD
ENDBRANCH   7   9
BRANCH   5  12
ATOM     12  N   LIG    1       -3.220  11.170  -3.037  0.00  0.00    -0.580 N 
ATOM     13  C   LIG    1       -1.893  11.720  -3.326  0.00  0.00    +0.310 C 
ATOM     14  C   LIG    1       -4.401  11.711  -3.715  0.00  0.00    +0.310 C 
ENDBRANCH   5  12
ENDBRANCH   2   3
BRANCH   2  15
ATOM     15  O   LIG    1       -1.255   6.662   0.050  0.00  0.00    -0.330 OA
BRANCH  15  16
ATOM     16  C   LIG    1       -0.079   6.004   0.035  0.00  0.00    +0.510 C 
ATOM     17  O   LIG    1        0.964   6.625   0.029  0.00  0.00    -0.490 OA
BRANCH  16  18
ATOM     18  C   LIG    1       -0.059   4.527   0.027  0.00  0.00    -0.070 A 
ATOM     19  C   LIG    1        1.157   3.842   0.012  0.00  0.00    +0.070 A 
ATOM     20  C   LIG    1        1.169   2.463   0.004  0.00  0.00    +0.120 A 
ATOM     21  C   LIG    1       -0.022   1.758   0.012  0.00  0.00    -0.630 A 
ATOM     22  C   LIG    1       -1.231   2.430   0.021  0.00  0.00    +0.110 A 
ATOM     23  C   LIG    1       -1.257   3.809   0.035  0.00  0.00    +0.070 A 
BRANCH  21  24
ATOM     24  S   LIG    1        0.002  -0.004   0.002  0.00  0.00    +2.500 S 
ATOM     25  O   LIG    1        1.238  -0.334  -0.617  0.00  0.00    -0.930 OA
ATOM     26  O   LIG    1       -1.236  -0.368  -0.593  0.00  0.00    -0.930 OA
ATOM     27  C   LIG    1        0.025  -0.466   1.756  0.00  0.00    -0.250 C 
ENDBRANCH  21  24
ENDBRANCH  16  18
ENDBRANCH  15  16
ENDBRANCH   2  15
TORSDOF 7
