REMARK  Name = ZINCpe000000Zfod.0
REMARK                            x       y       z     vdW  Elec       q    Type
REMARK                         _______ _______ _______ _____ _____    ______ ____
ROOT
ATOM      1  O   LIG    1       -4.794   5.201  -0.628  0.00  0.00    -0.530 OA
ATOM      2  C   LIG    1       -4.120   4.809  -1.561  0.00  0.00    +0.610 C 
ATOM      3  N   LIG    1       -2.973   4.141  -1.329  0.00  0.00    -0.710 N 
ATOM      4  H   LIG    1       -2.435   3.827  -2.073  0.00  0.00    +0.410 HD
ENDROOT
BRANCH   2   5
ATOM      5  C   LIG    1       -4.558   5.064  -2.947  0.00  0.00    +0.020 A 
ATOM      6  C   LIG    1       -5.693   5.724  -3.319  0.00  0.00    +0.190 A 
ATOM      7  N   LIG    1       -5.718   5.739  -4.681  0.00  0.00    -0.400 N 
ATOM      8  C   LIG    1       -6.605   6.256  -5.582  0.00  0.00    +0.290 A 
ATOM      9  C   LIG    1       -6.359   6.114  -6.906  0.00  0.00    -0.030 A 
ATOM     10  C   LIG    1       -5.200   5.439  -7.321  0.00  0.00    +0.370 A 
ATOM     11  N   LIG    1       -4.363   4.951  -6.437  0.00  0.00    -0.430 NA
ATOM     12  C   LIG    1       -4.594   5.085  -5.121  0.00  0.00    +0.380 A 
ATOM     13  N   LIG    1       -3.905   4.690  -4.064  0.00  0.00    -0.450 NA
ENDBRANCH   2   5
BRANCH   3  14
ATOM     14  C   LIG    1       -2.538   3.887   0.047  0.00  0.00    +0.340 C 
BRANCH  14  15
ATOM     15  C   LIG    1       -1.235   3.129   0.030  0.00  0.00    -0.040 A 
ATOM     16  C   LIG    1       -1.222   1.741   0.017  0.00  0.00    -0.040 A 
ATOM     17  C   LIG    1       -0.013   1.076   0.008  0.00  0.00    +0.290 A 
ATOM     18  N   LIG    1        1.126   1.742   0.001  0.00  0.00    -0.510 NA
ATOM     19  C   LIG    1        1.155   3.066   0.007  0.00  0.00    +0.310 A 
ATOM     20  C   LIG    1       -0.026   3.801   0.022  0.00  0.00    -0.020 A 
BRANCH  19  21
ATOM     21  N   LIG    1        2.378   3.728  -0.001  0.00  0.00    -0.480 N 
ATOM     22  C   LIG    1        2.468   4.654  -1.139  0.00  0.00    +0.170 C 
ATOM     23  C   LIG    1        3.802   5.403  -1.076  0.00  0.00    +0.230 C 
ATOM     24  O   LIG    1        4.874   4.457  -1.061  0.00  0.00    -0.380 OA
ATOM     25  C   LIG    1        4.818   3.541   0.035  0.00  0.00    +0.220 C 
ATOM     26  C   LIG    1        3.494   2.772  -0.016  0.00  0.00    +0.190 C 
ENDBRANCH  19  21
ENDBRANCH  14  15
ENDBRANCH   3  14
TORSDOF 4
