REMARK  Name = ZINCqH0000002Y2v.0
REMARK                            x       y       z     vdW  Elec       q    Type
REMARK                         _______ _______ _______ _____ _____    ______ ____
ROOT
ATOM      1  N   LIG    1        1.215   1.844  -0.398  0.00  0.00    -0.600 N 
ATOM      2  C   LIG    1        0.197   1.157   0.158  0.00  0.00    +0.600 C 
ATOM      3  O   LIG    1        0.348  -0.011   0.467  0.00  0.00    -0.520 OA
ENDROOT
BRANCH   2   4
ATOM      4  C   LIG    1       -1.093   1.814   0.385  0.00  0.00    -0.280 A 
ATOM      5  C   LIG    1       -1.795   1.888   1.604  0.00  0.00    +0.150 A 
ATOM      6  C   LIG    1       -1.523   1.403   2.891  0.00  0.00    -0.040 A 
ATOM      7  C   LIG    1       -2.418   1.640   3.895  0.00  0.00    +0.100 A 
ATOM      8  C   LIG    1       -3.588   2.361   3.618  0.00  0.00    +0.020 A 
ATOM      9  C   LIG    1       -3.828   2.818   2.369  0.00  0.00    +0.300 A 
ATOM     10 CL   LIG    1       -0.066   0.513   3.205  0.00  0.00    -0.010 Cl
ATOM     11  N   LIG    1       -2.942   2.587   1.360  0.00  0.00    -0.260 N 
ATOM     12  N   LIG    1       -2.950   2.943   0.006  0.00  0.00    -0.300 NA
ATOM     13  C   LIG    1       -1.865   2.497  -0.571  0.00  0.00    +0.320 A 
ENDBRANCH   2   4
BRANCH   1  15
ATOM     14  C   LIG    1        1.136   4.182   0.317  0.00  0.00    +0.010 C 
ATOM     15  C   LIG    1        1.004   3.217  -0.863  0.00  0.00    +0.270 C 
ENDBRANCH   1  15
BRANCH   1  16
ATOM     16  C   LIG    1        2.532   1.218  -0.536  0.00  0.00    +0.260 C 
BRANCH  16  17
ATOM     17  C   LIG    1        2.899   1.124  -2.019  0.00  0.00    +0.080 C 
BRANCH  17  18
ATOM     18  C   LIG    1        1.940   0.193  -2.715  0.00  0.00    -0.070 A 
ATOM     19  C   LIG    1        2.226  -1.157  -2.801  0.00  0.00    +0.010 A 
ATOM     20  C   LIG    1        1.344  -2.012  -3.436  0.00  0.00    +0.000 A 
ATOM     21  C   LIG    1        0.181  -1.515  -3.993  0.00  0.00    +0.000 A 
ATOM     22  C   LIG    1       -0.104  -0.165  -3.911  0.00  0.00    +0.000 A 
ATOM     23  C   LIG    1        0.776   0.689  -3.272  0.00  0.00    +0.000 A 
ENDBRANCH  17  18
ENDBRANCH  16  17
BRANCH  16  24
ATOM     24  C   LIG    1        3.578   2.063   0.195  0.00  0.00    +0.170 C 
BRANCH  24  25
ATOM     25  O   LIG    1        3.715   3.324  -0.463  0.00  0.00    -0.380 OA
ATOM     26  C   LIG    1        4.673   4.195   0.143  0.00  0.00    +0.200 C 
ENDBRANCH  24  25
ENDBRANCH  16  24
ENDBRANCH   1  16
TORSDOF 7
