REMARK  Name = ZINCnE000008ILzX.0
REMARK                            x       y       z     vdW  Elec       q    Type
REMARK                         _______ _______ _______ _____ _____    ______ ____
ROOT
ATOM      1  C   LIG    1       -2.588   5.680  -3.511  0.00  0.00    -0.090 A 
ATOM      2  C   LIG    1       -3.879   5.160  -3.581  0.00  0.00    +0.050 A 
ATOM      3  C   LIG    1       -4.862   5.834  -4.270  0.00  0.00    -0.020 A 
ATOM      4  C   LIG    1       -4.573   7.035  -4.915  0.00  0.00    +0.110 A 
ATOM      5  O   LIG    1       -5.382   7.842  -5.656  0.00  0.00    -0.310 OA
ATOM      6  C   LIG    1       -4.793   9.150  -5.748  0.00  0.00    +0.250 C 
ATOM      7  C   LIG    1       -3.280   8.854  -5.613  0.00  0.00    -0.070 C 
ATOM      8  C   LIG    1       -3.283   7.549  -4.841  0.00  0.00    -0.110 A 
ATOM      9  C   LIG    1       -2.297   6.885  -4.151  0.00  0.00    +0.090 A 
ENDROOT
BRANCH   1  14
ATOM     10  C   LIG    1       -0.834   3.082  -1.435  0.00  0.00    -0.050 A 
ATOM     11  C   LIG    1        0.444   3.606  -1.370  0.00  0.00    +0.010 A 
ATOM     12  C   LIG    1        0.743   4.797  -2.007  0.00  0.00    +0.020 A 
ATOM     13  C   LIG    1       -0.238   5.475  -2.701  0.00  0.00    +0.020 A 
ATOM     14  C   LIG    1       -1.530   4.955  -2.765  0.00  0.00    -0.010 A 
ATOM     15  C   LIG    1       -1.823   3.752  -2.127  0.00  0.00    +0.010 A 
BRANCH  10  16
ATOM     16  C   LIG    1       -1.150   1.781  -0.743  0.00  0.00    -0.010 C 
ATOM     17  C   LIG    1       -0.013   1.086   0.008  0.00  0.00    +0.090 C 
ATOM     18  C   LIG    1       -1.136   1.773   0.788  0.00  0.00    +0.090 C 
BRANCH  16  20
ATOM     19  N   LIG    1       -2.905   0.268  -1.940  0.00  0.00    -0.420 NA
ATOM     20  C   LIG    1       -2.140   0.927  -1.418  0.00  0.00    +0.240 C 
ENDBRANCH  16  20
ENDBRANCH  10  16
ENDBRANCH   1  14
BRANCH   7  21
ATOM     21  C   LIG    1       -2.586   9.941  -4.833  0.00  0.00    +0.510 C 
ATOM     22  O   LIG    1       -2.755  10.029  -3.629  0.00  0.00    -0.680 OA
ATOM     23  O   LIG    1       -1.855  10.731  -5.405  0.00  0.00    -0.690 OA
ENDBRANCH   7  21
TORSDOF 4
