REMARK  Name = ZINCpe000000WyYy.2
REMARK                            x       y       z     vdW  Elec       q    Type
REMARK                         _______ _______ _______ _____ _____    ______ ____
ROOT
ATOM      1  C   LIG    1       -4.290   5.380  -1.426  0.00  0.00    +0.210 C 
ENDROOT
BRANCH   1   9
ATOM      2  C   LIG    1       -7.418   8.688  -3.893  0.00  0.00    +0.130 A 
ATOM      3  C   LIG    1       -7.314   9.426  -5.064  0.00  0.00    -0.080 A 
ATOM      4  C   LIG    1       -6.217   9.264  -5.887  0.00  0.00    +0.040 A 
ATOM      5  C   LIG    1       -5.219   8.368  -5.547  0.00  0.00    -0.030 A 
ATOM      6  C   LIG    1       -5.325   7.634  -4.379  0.00  0.00    -0.040 A 
ATOM      7  C   LIG    1       -4.234   6.653  -4.005  0.00  0.00    +0.040 C 
ATOM      8  C   LIG    1       -3.491   7.203  -2.783  0.00  0.00    +0.250 C 
ATOM      9  N   LIG    1       -4.177   6.839  -1.553  0.00  0.00    -0.540 NA
ATOM     10  C   LIG    1       -5.455   7.484  -1.304  0.00  0.00    +0.240 C 
ATOM     11  C   LIG    1       -6.521   6.981  -2.283  0.00  0.00    +0.050 C 
ATOM     12  C   LIG    1       -6.414   7.791  -3.558  0.00  0.00    -0.110 A 
BRANCH   2  14
ATOM     13  C   LIG    1       -9.489   9.785  -3.490  0.00  0.00    +0.250 C 
ATOM     14  O   LIG    1       -8.496   8.843  -3.079  0.00  0.00    -0.310 OA
ENDBRANCH   2  14
ENDBRANCH   1   9
BRANCH   1  15
ATOM     15  C   LIG    1       -2.955   4.806  -1.024  0.00  0.00    +0.520 C 
ATOM     16  N   LIG    1       -2.819   3.477  -0.847  0.00  0.00    -0.620 N 
ATOM     17  C   LIG    1       -3.962   2.575  -1.042  0.00  0.00    +0.260 C 
ATOM     18  C   LIG    1       -4.135   1.718   0.216  0.00  0.00    +0.010 C 
ATOM     19  C   LIG    1       -2.818   1.005   0.528  0.00  0.00    +0.050 C 
ATOM     20  C   LIG    1       -1.725   2.043   0.796  0.00  0.00    -0.020 C 
ATOM     21  C   LIG    1       -1.525   2.902  -0.456  0.00  0.00    +0.290 C 
ATOM     22  O   LIG    1       -2.004   5.540  -0.860  0.00  0.00    -0.520 OA
BRANCH  20  23
ATOM     23  C   LIG    1       -0.436   1.339   1.135  0.00  0.00    +0.520 C 
ATOM     24  O   LIG    1       -0.395   0.128   1.160  0.00  0.00    -0.540 OA
ATOM     25  N   LIG    1        0.672   2.057   1.405  0.00  0.00    -0.850 N 
ATOM     26  H   LIG    1        0.639   3.026   1.385  0.00  0.00    +0.400 HD
ATOM     27  H   LIG    1        1.503   1.605   1.619  0.00  0.00    +0.400 HD
ENDBRANCH  20  23
ENDBRANCH   1  15
TORSDOF 4
