REMARK  Name = ZINCvU0000000HHZ.0
REMARK                            x       y       z     vdW  Elec       q    Type
REMARK                         _______ _______ _______ _____ _____    ______ ____
ROOT
ATOM      1  C   LIG    1       -3.999   2.048  -0.304  0.00  0.00    -0.060 A 
ATOM      2  C   LIG    1       -2.635   2.335  -0.339  0.00  0.00    -0.070 A 
ATOM      3  C   LIG    1       -1.881   1.991  -1.596  0.00  0.00    +0.080 C 
ATOM      4  C   LIG    1       -0.549   2.738  -1.645  0.00  0.00    +0.000 C 
ATOM      5  C   LIG    1        0.183   2.507  -0.317  0.00  0.00    +0.030 C 
ATOM      6  C   LIG    1       -0.555   3.264   0.784  0.00  0.00    +0.110 C 
ATOM      7  C   LIG    1       -2.028   2.917   0.766  0.00  0.00    +0.170 A 
ATOM      8  N   LIG    1       -2.721   3.197   1.853  0.00  0.00    -0.460 NA
ATOM      9  C   LIG    1       -4.026   2.950   1.958  0.00  0.00    +0.140 A 
ATOM     10  C   LIG    1       -4.735   3.264   3.132  0.00  0.00    +0.060 A 
ATOM     11  C   LIG    1       -6.067   3.000   3.207  0.00  0.00    +0.040 A 
ATOM     12  C   LIG    1       -6.747   2.421   2.137  0.00  0.00    +0.030 A 
ATOM     13  C   LIG    1       -6.093   2.103   0.984  0.00  0.00    +0.010 A 
ATOM     14  C   LIG    1       -4.721   2.361   0.873  0.00  0.00    -0.070 A 
ENDROOT
BRANCH   4  15
ATOM     15  C   LIG    1        0.299   2.205  -2.801  0.00  0.00    -0.060 C 
ATOM     16  C   LIG    1        1.642   2.937  -2.828  0.00  0.00    +0.040 C 
ATOM     17  C   LIG    1       -0.436   2.437  -4.122  0.00  0.00    +0.020 C 
ATOM     18  C   LIG    1        0.539   0.706  -2.608  0.00  0.00    +0.030 C 
ENDBRANCH   4  15
BRANCH   1  19
ATOM     19  C   LIG    1       -4.674   1.431  -1.466  0.00  0.00    +0.520 C 
ATOM     20  O   LIG    1       -4.740   0.222  -1.558  0.00  0.00    -0.480 OA
BRANCH  19  21
ATOM     21  O   LIG    1       -5.215   2.211  -2.422  0.00  0.00    -0.320 OA
BRANCH  21  22
ATOM     22  C   LIG    1       -5.862   1.537  -3.534  0.00  0.00    +0.250 C 
BRANCH  22  24
ATOM     23  N   LIG    1       -7.073   2.166  -5.596  0.00  0.00    -0.600 N 
ATOM     24  C   LIG    1       -6.404   2.562  -4.496  0.00  0.00    +0.520 C 
ATOM     25  O   LIG    1       -6.239   3.744  -4.279  0.00  0.00    -0.510 OA
BRANCH  23  27
ATOM     26  C   LIG    1       -6.122  -0.087  -5.620  0.00  0.00    +0.030 C 
ATOM     27  C   LIG    1       -7.392   0.749  -5.789  0.00  0.00    +0.230 C 
ATOM     28  C   LIG    1       -8.431   0.315  -4.753  0.00  0.00    +0.030 C 
ENDBRANCH  23  27
BRANCH  23  29
ATOM     29  C   LIG    1       -7.481   3.152  -6.600  0.00  0.00    +0.230 C 
ATOM     30  C   LIG    1       -8.995   3.070  -6.810  0.00  0.00    +0.030 C 
ATOM     31  C   LIG    1       -6.767   2.860  -7.922  0.00  0.00    +0.030 C 
ENDBRANCH  23  29
ENDBRANCH  22  24
ENDBRANCH  21  22
ENDBRANCH  19  21
ENDBRANCH   1  19
TORSDOF 7
