REMARK  Name = ZINCrD000006Q8ds.0
REMARK                            x       y       z     vdW  Elec       q    Type
REMARK                         _______ _______ _______ _____ _____    ______ ____
ROOT
ATOM      1  C   LIG    1        0.256   0.907   4.905  0.00  0.00    +0.290 C 
ENDROOT
BRANCH   1   2
ATOM      2  N   LIG    1       -0.453   1.393   3.718  0.00  0.00    -0.710 N 
ATOM      3  H   LIG    1       -1.248   1.939   3.817  0.00  0.00    +0.410 HD
ATOM      4  C   LIG    1        0.000   1.080   2.488  0.00  0.00    +0.520 C 
ATOM      5  O   LIG    1        0.994   0.397   2.363  0.00  0.00    -0.540 OA
BRANCH   4   6
ATOM      6  C   LIG    1       -0.729   1.579   1.267  0.00  0.00    +0.070 C 
BRANCH   6   7
ATOM      7  C   LIG    1       -0.013   1.086   0.008  0.00  0.00    +0.100 C 
BRANCH   7   8
ATOM      8  C   LIG    1       -0.742   1.585  -1.213  0.00  0.00    -0.090 A 
ATOM      9  C   LIG    1       -1.750   0.825  -1.775  0.00  0.00    +0.010 A 
ATOM     10  C   LIG    1       -2.422   1.285  -2.892  0.00  0.00    +0.000 A 
ATOM     11  C   LIG    1       -2.078   2.501  -3.453  0.00  0.00    -0.090 A 
ATOM     12  C   LIG    1       -1.066   3.259  -2.894  0.00  0.00    +0.000 A 
ATOM     13  C   LIG    1       -2.807   2.999  -4.674  0.00  0.00    +0.090 C 
ATOM     14  C   LIG    1       -0.398   2.801  -1.774  0.00  0.00    +0.010 A 
ENDBRANCH   7   8
ENDBRANCH   6   7
ENDBRANCH   4   6
ENDBRANCH   1   2
BRANCH   1  15
ATOM     15  C   LIG    1       -0.220  -0.482   5.240  0.00  0.00    +0.450 C 
ATOM     16  O   LIG    1       -1.065  -1.013   4.558  0.00  0.00    -0.500 OA
BRANCH  15  18
ATOM     17  C   LIG    1       -0.211  -2.466   6.561  0.00  0.00    +0.260 C 
ATOM     18  O   LIG    1        0.294  -1.131   6.297  0.00  0.00    -0.360 OA
ENDBRANCH  15  18
ENDBRANCH   1  15
BRANCH   1  19
ATOM     19  C   LIG    1       -0.025   1.841   6.084  0.00  0.00    +0.140 C 
BRANCH  19  20
ATOM     20  C   LIG    1        0.559   3.200   5.798  0.00  0.00    -0.180 A 
ATOM     21  C   LIG    1        1.760   3.652   6.194  0.00  0.00    +0.240 A 
ATOM     22  N   LIG    1        1.949   4.931   5.745  0.00  0.00    -0.590 N 
ATOM     23  H   LIG    1        2.742   5.466   5.903  0.00  0.00    +0.420 HD
ATOM     24  C   LIG    1        0.842   5.347   5.039  0.00  0.00    +0.090 A 
ATOM     25  C   LIG    1        0.511   6.531   4.388  0.00  0.00    -0.010 A 
ATOM     26  C   LIG    1       -0.708   6.646   3.755  0.00  0.00    +0.030 A 
ATOM     27  C   LIG    1       -1.610   5.591   3.760  0.00  0.00    -0.020 A 
ATOM     28  C   LIG    1       -1.306   4.420   4.394  0.00  0.00    +0.040 A 
ATOM     29  C   LIG    1       -0.077   4.282   5.042  0.00  0.00    -0.090 A 
ENDBRANCH  19  20
ENDBRANCH   1  19
TORSDOF 8
