REMARK  Name = ZINCrH000004v7cP.0
REMARK                            x       y       z     vdW  Elec       q    Type
REMARK                         _______ _______ _______ _____ _____    ______ ____
ROOT
ATOM      1  N   LIG    1       -4.939   3.869   0.178  0.00  0.00    -1.060 N 
ATOM      2  H   LIG    1       -5.421   3.957   1.015  0.00  0.00    +0.430 HD
ENDROOT
BRANCH   1   6
ATOM      3  C   LIG    1       -1.114   2.212   0.142  0.00  0.00    +0.160 A 
ATOM      4  C   LIG    1       -2.224   1.393   0.305  0.00  0.00    +0.020 A 
ATOM      5  C   LIG    1       -3.490   1.943   0.323  0.00  0.00    +0.040 A 
ATOM      6  C   LIG    1       -3.655   3.313   0.166  0.00  0.00    +0.100 A 
ATOM      7  C   LIG    1       -2.545   4.131  -0.002  0.00  0.00    +0.060 A 
ATOM      8  C   LIG    1       -1.278   3.582  -0.013  0.00  0.00    +0.000 A 
BRANCH   3  11
ATOM      9  O   LIG    1       -0.391   0.143   1.653  0.00  0.00    -0.520 OA
ATOM     10  C   LIG    1        0.445   0.574   0.887  0.00  0.00    +0.540 C 
ATOM     11  N   LIG    1        0.172   1.655   0.130  0.00  0.00    -0.670 N 
ATOM     12  H   LIG    1        0.864   2.044  -0.427  0.00  0.00    +0.410 HD
BRANCH  10  13
ATOM     13  C   LIG    1        1.790  -0.098   0.783  0.00  0.00    -0.070 C 
ATOM     14  C   LIG    1        1.835  -1.496   0.161  0.00  0.00    +0.060 C 
ATOM     15  C   LIG    1        2.039  -1.322   1.668  0.00  0.00    +0.080 C 
ENDBRANCH  10  13
ENDBRANCH   3  11
ENDBRANCH   1   6
BRANCH   1  16
ATOM     16  S   LIG    1       -5.634   4.378  -1.236  0.00  0.00    +2.690 S 
ATOM     17  O   LIG    1       -4.666   5.185  -1.892  0.00  0.00    -0.940 OA
ATOM     18  O   LIG    1       -6.934   4.842  -0.899  0.00  0.00    -0.950 OA
BRANCH  16  19
ATOM     19  C   LIG    1       -5.861   2.953  -2.247  0.00  0.00    -0.700 A 
ATOM     20  C   LIG    1       -4.832   2.510  -3.057  0.00  0.00    +0.180 A 
ATOM     21  C   LIG    1       -5.005   1.389  -3.846  0.00  0.00    -0.070 A 
ATOM     22  C   LIG    1       -6.218   0.716  -3.835  0.00  0.00    +0.160 A 
ATOM     23  C   LIG    1       -7.252   1.166  -3.027  0.00  0.00    +0.010 A 
ATOM     24  C   LIG    1       -7.071   2.283  -2.234  0.00  0.00    +0.180 A 
BRANCH  22  25
ATOM     25  O   LIG    1       -6.394  -0.383  -4.616  0.00  0.00    -0.310 OA
BRANCH  25  26
ATOM     26  C   LIG    1       -5.286  -0.788  -5.423  0.00  0.00    +0.600 C 
ATOM     27  F   LIG    1       -4.945   0.246  -6.301  0.00  0.00    -0.160 F 
ATOM     28  F   LIG    1       -5.637  -1.927  -6.157  0.00  0.00    -0.130 F 
ATOM     29  F   LIG    1       -4.193  -1.082  -4.601  0.00  0.00    -0.160 F 
ENDBRANCH  25  26
ENDBRANCH  22  25
ENDBRANCH  16  19
ENDBRANCH   1  16
TORSDOF 7
