REMARK  Name = ZINCkj000005lGuv.1
REMARK                            x       y       z     vdW  Elec       q    Type
REMARK                         _______ _______ _______ _____ _____    ______ ____
ROOT
ATOM      1  O   LIG    1       -4.240  -0.706  -1.511  0.00  0.00    -0.530 OA
ATOM      2  C   LIG    1       -3.188  -1.206  -1.172  0.00  0.00    +0.510 C 
ATOM      3  N   LIG    1       -2.081  -0.444  -1.071  0.00  0.00    -0.690 N 
ATOM      4  H   LIG    1       -1.226  -0.855  -0.871  0.00  0.00    +0.410 HD
ENDROOT
BRANCH   2   5
ATOM      5  C   LIG    1       -3.119  -2.679  -0.863  0.00  0.00    +0.160 C 
ATOM      6  C   LIG    1       -2.095  -3.328  -1.785  0.00  0.00    +0.070 C 
ATOM      7  C   LIG    1       -2.023  -4.824  -1.451  0.00  0.00    +0.050 C 
ATOM      8  C   LIG    1       -3.389  -5.436  -1.750  0.00  0.00    +0.070 C 
ATOM      9  C   LIG    1       -4.508  -4.698  -1.076  0.00  0.00    +0.140 C 
ATOM     10  C   LIG    1       -4.839  -5.246   0.316  0.00  0.00    +0.080 C 
ATOM     11  C   LIG    1       -5.066  -3.993   1.189  0.00  0.00    +0.060 C 
ATOM     12  C   LIG    1       -5.252  -2.847   0.172  0.00  0.00    +0.270 C 
ATOM     13  N   LIG    1       -4.448  -3.255  -1.014  0.00  0.00    -0.360 N 
ATOM     14  H   LIG    1       -4.883  -2.870  -1.840  0.00  0.00    +0.430 HD
ENDBRANCH   2   5
BRANCH   3  15
ATOM     15  C   LIG    1       -2.170   1.006  -1.263  0.00  0.00    +0.180 C 
ATOM     16  C   LIG    1       -2.687   1.296  -2.670  0.00  0.00    +0.060 C 
ATOM     17  C   LIG    1       -1.884   0.493  -3.697  0.00  0.00    +0.100 C 
ATOM     18  S   LIG    1       -0.151   1.037  -3.647  0.00  0.00    -0.240 S 
ATOM     19  C   LIG    1        0.252   0.865  -1.880  0.00  0.00    +0.110 C 
ATOM     20  C   LIG    1       -0.791   1.625  -1.057  0.00  0.00    +0.070 C 
BRANCH  15  21
ATOM     21  C   LIG    1       -3.144   1.590  -0.238  0.00  0.00    +0.200 C 
BRANCH  21  22
ATOM     22  O   LIG    1       -2.732   1.214   1.078  0.00  0.00    -0.570 OA
ATOM     23  H   LIG    1       -3.306   1.551   1.780  0.00  0.00    +0.390 HD
ENDBRANCH  21  22
ENDBRANCH  15  21
ENDBRANCH   3  15
TORSDOF 4
