REMARK  Name = ZINCkj000005lGuv.0
REMARK                            x       y       z     vdW  Elec       q    Type
REMARK                         _______ _______ _______ _____ _____    ______ ____
ROOT
ATOM      1  O   LIG    1       -0.931   1.949   0.561  0.00  0.00    -0.520 OA
ATOM      2  C   LIG    1        0.050   1.393   0.113  0.00  0.00    +0.520 C 
ATOM      3  N   LIG    1        1.080   2.121  -0.360  0.00  0.00    -0.680 N 
ATOM      4  H   LIG    1        1.832   1.679  -0.784  0.00  0.00    +0.410 HD
ENDROOT
BRANCH   2   5
ATOM      5  C   LIG    1        0.113  -0.113   0.080  0.00  0.00    +0.170 C 
ATOM      6  C   LIG    1        0.530  -0.585  -1.321  0.00  0.00    +0.070 C 
ATOM      7  C   LIG    1       -0.490  -0.132  -2.360  0.00  0.00    +0.050 C 
ATOM      8  C   LIG    1       -1.899  -0.598  -1.958  0.00  0.00    +0.060 C 
ATOM      9  C   LIG    1       -2.182  -0.048  -0.567  0.00  0.00    +0.180 C 
ATOM     10  C   LIG    1       -3.527  -0.501   0.027  0.00  0.00    +0.080 C 
ATOM     11  C   LIG    1       -3.270  -0.358   1.553  0.00  0.00    +0.060 C 
ATOM     12  C   LIG    1       -1.730  -0.410   1.706  0.00  0.00    +0.260 C 
ATOM     13  N   LIG    1       -1.203  -0.667   0.365  0.00  0.00    -0.370 N 
ATOM     14  H   LIG    1       -1.184  -1.664   0.210  0.00  0.00    +0.420 HD
ENDBRANCH   2   5
BRANCH   3  15
ATOM     15  C   LIG    1        1.064   3.581  -0.235  0.00  0.00    +0.180 C 
ATOM     16  C   LIG    1        2.373   4.146  -0.780  0.00  0.00    +0.070 C 
ATOM     17  C   LIG    1        3.560   3.396  -0.170  0.00  0.00    +0.110 C 
ATOM     18  S   LIG    1        3.568   3.670   1.627  0.00  0.00    -0.240 S 
ATOM     19  C   LIG    1        1.881   3.183   2.098  0.00  0.00    +0.100 C 
ATOM     20  C   LIG    1        0.883   3.957   1.233  0.00  0.00    +0.060 C 
BRANCH  15  21
ATOM     21  C   LIG    1       -0.104   4.144  -1.047  0.00  0.00    +0.190 C 
BRANCH  21  22
ATOM     22  O   LIG    1       -0.014   3.678  -2.395  0.00  0.00    -0.570 OA
ATOM     23  H   LIG    1       -0.725   3.996  -2.969  0.00  0.00    +0.390 HD
ENDBRANCH  21  22
ENDBRANCH  15  21
ENDBRANCH   3  15
TORSDOF 4
