REMARK  Name = ZINCrD00000759QC.0
REMARK                            x       y       z     vdW  Elec       q    Type
REMARK                         _______ _______ _______ _____ _____    ______ ____
ROOT
ATOM      1  O   LIG    1        2.570  -2.635   0.083  0.00  0.00    -0.320 OA
ENDROOT
BRANCH   1   2
ATOM      2  C   LIG    1        2.769  -3.821   0.693  0.00  0.00    +0.540 C 
ATOM      3  O   LIG    1        1.822  -4.448   1.127  0.00  0.00    -0.490 OA
BRANCH   2   7
ATOM      4  C   LIG    1        6.877  -6.456  -0.646  0.00  0.00    +0.150 C 
ATOM      5  C   LIG    1        5.987  -5.570   0.188  0.00  0.00    -0.200 A 
ATOM      6  C   LIG    1        4.757  -5.208  -0.148  0.00  0.00    -0.050 A 
ATOM      7  C   LIG    1        4.127  -4.354   0.834  0.00  0.00    -0.170 A 
ATOM      8  C   LIG    1        4.937  -4.090   1.907  0.00  0.00    +0.050 A 
ATOM      9  C   LIG    1        4.083  -5.644  -1.424  0.00  0.00    +0.130 C 
ATOM     10  S   LIG    1        6.440  -4.877   1.735  0.00  0.00    +0.240 S 
BRANCH   8  11
ATOM     11  N   LIG    1        4.582  -3.294   2.990  0.00  0.00    -0.380 N 
ATOM     12  C   LIG    1        3.385  -2.652   3.148  0.00  0.00    +0.140 A 
ATOM     13  C   LIG    1        3.417  -1.986   4.320  0.00  0.00    -0.020 A 
ATOM     14  C   LIG    1        4.680  -2.215   4.904  0.00  0.00    -0.020 A 
ATOM     15  C   LIG    1        5.372  -3.018   4.071  0.00  0.00    +0.150 A 
ENDBRANCH   8  11
ENDBRANCH   2   7
ENDBRANCH   1   2
BRANCH   1  16
ATOM     16  C   LIG    1        1.199  -2.169  -0.021  0.00  0.00    +0.190 C 
ATOM     17  C   LIG    1        0.584  -2.680  -1.325  0.00  0.00    +0.080 C 
BRANCH  16  18
ATOM     18  C   LIG    1        1.178  -0.662  -0.013  0.00  0.00    +0.520 C 
ATOM     19  N   LIG    1        0.002  -0.004   0.002  0.00  0.00    -0.690 N 
ATOM     20  H   LIG    1       -0.831  -0.500   0.007  0.00  0.00    +0.410 HD
ATOM     21  C   LIG    1       -0.016   1.344   0.009  0.00  0.00    +0.700 C 
ATOM     22  N   LIG    1       -1.192   2.002   0.019  0.00  0.00    -0.730 N 
ATOM     23  H   LIG    1       -2.026   1.505   0.020  0.00  0.00    +0.400 HD
ATOM     24  O   LIG    1        1.028   1.966   0.003  0.00  0.00    -0.520 OA
ATOM     25  O   LIG    1        2.220  -0.042  -0.019  0.00  0.00    -0.430 OA
BRANCH  22  26
ATOM     26  C   LIG    1       -1.212   3.466   0.027  0.00  0.00    +0.180 C 
ATOM     27  C   LIG    1       -0.492   3.979   1.275  0.00  0.00    +0.030 C 
ATOM     28  C   LIG    1       -2.662   3.957   0.036  0.00  0.00    +0.040 C 
ATOM     29  C   LIG    1       -0.504   3.993  -1.223  0.00  0.00    +0.030 C 
ENDBRANCH  22  26
ENDBRANCH  16  18
ENDBRANCH   1  16
TORSDOF 6
