REMARK  Name = ZINCrH00000No54V.0
REMARK                            x       y       z     vdW  Elec       q    Type
REMARK                         _______ _______ _______ _____ _____    ______ ____
ROOT
ATOM      1  C   LIG    1        3.755   1.578   0.474  0.00  0.00    +0.180 C 
ATOM      2  C   LIG    1        4.360   1.442  -0.926  0.00  0.00    -0.020 C 
ATOM      3  C   LIG    1        4.456  -0.043  -1.288  0.00  0.00    +0.040 C 
ATOM      4  C   LIG    1        5.304  -0.758  -0.232  0.00  0.00    +0.050 C 
ATOM      5  C   LIG    1        5.767   0.260   0.813  0.00  0.00    +0.220 C 
ATOM      6  C   LIG    1        6.615   1.338   0.132  0.00  0.00    +0.030 C 
ATOM      7  C   LIG    1        5.766   2.051  -0.925  0.00  0.00    +0.290 C 
ATOM      8  F   LIG    1        5.686   3.414  -0.620  0.00  0.00    -0.200 F 
ATOM      9  F   LIG    1        6.349   1.884  -2.185  0.00  0.00    -0.190 F 
ATOM     10  N   LIG    1        4.600   0.879   1.449  0.00  0.00    -0.440 N 
ENDROOT
BRANCH  10  11
ATOM     11  C   LIG    1        4.988   1.733   2.475  0.00  0.00    +0.340 A 
ATOM     12  C   LIG    1        4.021   2.402   3.217  0.00  0.00    -0.040 A 
ATOM     13  C   LIG    1        4.421   3.248   4.236  0.00  0.00    +0.150 A 
ATOM     14  C   LIG    1        5.780   3.397   4.478  0.00  0.00    -0.270 A 
ATOM     15  C   LIG    1        6.685   2.702   3.702  0.00  0.00    +0.360 A 
ATOM     16  N   LIG    1        6.275   1.898   2.740  0.00  0.00    -0.510 NA
BRANCH  14  17
ATOM     17  C   LIG    1        6.261   4.309   5.578  0.00  0.00    +0.520 C 
ATOM     18  F   LIG    1        5.349   5.356   5.749  0.00  0.00    -0.180 F 
ATOM     19  F   LIG    1        7.513   4.831   5.236  0.00  0.00    -0.170 F 
ATOM     20  F   LIG    1        6.368   3.584   6.770  0.00  0.00    -0.170 F 
ENDBRANCH  14  17
ENDBRANCH  10  11
BRANCH   1  22
ATOM     21  O   LIG    1        2.204  -0.141   0.929  0.00  0.00    -0.500 OA
ATOM     22  C   LIG    1        2.374   0.974   0.484  0.00  0.00    +0.520 C 
ATOM     23  N   LIG    1        1.329   1.673  -0.002  0.00  0.00    -0.710 N 
ATOM     24  H   LIG    1        1.466   2.565  -0.358  0.00  0.00    +0.400 HD
BRANCH  23  25
ATOM     25  C   LIG    1       -0.013   1.086   0.008  0.00  0.00    +0.220 C 
ATOM     26  C   LIG    1       -0.939   1.683   1.080  0.00  0.00    +0.010 C 
ATOM     27  C   LIG    1       -1.349   2.730   0.028  0.00  0.00    +0.010 C 
ATOM     28  C   LIG    1       -0.959   1.695  -1.040  0.00  0.00    +0.020 C 
ENDBRANCH  23  25
ENDBRANCH   1  22
TORSDOF 4
