REMARK  Name = ZINCrg00000SjSn4.0
REMARK                            x       y       z     vdW  Elec       q    Type
REMARK                         _______ _______ _______ _____ _____    ______ ____
ROOT
ATOM      1  C   LIG    1       -0.782   3.093   1.592  0.00  0.00    +0.110 C 
ATOM      2  C   LIG    1        0.214   2.341   0.698  0.00  0.00    +0.320 C 
ATOM      3  N   LIG    1       -0.810   1.299   0.524  0.00  0.00    -0.640 N 
ATOM      4  C   LIG    1       -0.814  -0.023   0.261  0.00  0.00    +0.580 C 
ATOM      5  O   LIG    1        0.234  -0.615   0.110  0.00  0.00    -0.520 OA
ATOM      6  C   LIG    1       -1.827   2.336   0.756  0.00  0.00    +0.320 C 
ENDROOT
BRANCH   1   7
ATOM      7  C   LIG    1       -0.792   4.586   1.385  0.00  0.00    +0.550 C 
ATOM      8  O   LIG    1       -1.586   5.086   0.617  0.00  0.00    -0.520 OA
ATOM      9  N   LIG    1        0.081   5.365   2.054  0.00  0.00    -0.850 N 
ATOM     10  H   LIG    1        0.025   6.330   1.978  0.00  0.00    +0.410 HD
ATOM     11  H   LIG    1        0.764   4.960   2.611  0.00  0.00    +0.400 HD
ENDBRANCH   1   7
BRANCH   1  13
ATOM     12  C   LIG    1       -1.549   3.302   3.896  0.00  0.00    +0.550 C 
ATOM     13  N   LIG    1       -0.734   2.705   3.004  0.00  0.00    -0.590 N 
ATOM     14  C   LIG    1        0.201   1.667   3.447  0.00  0.00    +0.290 C 
ATOM     15  O   LIG    1       -2.396   4.083   3.515  0.00  0.00    -0.520 OA
BRANCH  12  18
ATOM     16  C   LIG    1       -0.519   3.926   6.196  0.00  0.00    +0.030 C 
ATOM     17  C   LIG    1       -2.040   3.984   6.352  0.00  0.00    +0.080 C 
ATOM     18  C   LIG    1       -1.409   2.999   5.365  0.00  0.00    -0.060 C 
BRANCH  16  22
ATOM     19  C   LIG    1        1.355   5.583   7.745  0.00  0.00    +0.060 C 
ATOM     20  C   LIG    1        1.136   5.950   6.276  0.00  0.00    -0.030 C 
ATOM     21  C   LIG    1        1.666   4.980   5.219  0.00  0.00    +0.010 C 
ATOM     22  C   LIG    1        0.161   5.088   5.471  0.00  0.00    -0.020 C 
ENDBRANCH  16  22
ENDBRANCH  12  18
ENDBRANCH   1  13
BRANCH   4  23
ATOM     23  C   LIG    1       -2.121  -0.766   0.155  0.00  0.00    -0.070 C 
ATOM     24  C   LIG    1       -2.642  -1.083  -1.248  0.00  0.00    +0.060 C 
ATOM     25  C   LIG    1       -2.077  -2.202  -0.370  0.00  0.00    +0.030 C 
BRANCH  25  26
ATOM     26  C   LIG    1       -0.709  -2.774  -0.748  0.00  0.00    +0.010 C 
ATOM     27  C   LIG    1       -0.075  -3.782   0.212  0.00  0.00    +0.020 C 
ATOM     28  C   LIG    1       -0.643  -4.254  -1.128  0.00  0.00    -0.060 C 
ATOM     29  C   LIG    1       -1.950  -5.050  -1.102  0.00  0.00    +0.050 C 
ENDBRANCH  25  26
ENDBRANCH   4  23
TORSDOF 6
