REMARK  Name = ZINCnE000001NhG2.1
REMARK                            x       y       z     vdW  Elec       q    Type
REMARK                         _______ _______ _______ _____ _____    ______ ____
ROOT
ATOM      1  C   LIG    1       -0.961   1.733  -3.569  0.00  0.00    +0.380 A 
ATOM      2  N   LIG    1       -0.617   1.495  -4.796  0.00  0.00    -0.550 NA
ATOM      3  C   LIG    1       -1.379   2.017  -5.747  0.00  0.00    +0.120 A 
ATOM      4  C   LIG    1       -2.429   2.737  -5.313  0.00  0.00    -0.180 A 
ATOM      5  S   LIG    1       -2.416   2.723  -3.551  0.00  0.00    +0.000 S 
ENDROOT
BRANCH   3   6
ATOM      6  C   LIG    1       -1.095   1.819  -7.189  0.00  0.00    +0.030 A 
ATOM      7  C   LIG    1       -1.931   2.384  -8.150  0.00  0.00    +0.050 A 
ATOM      8  C   LIG    1       -1.661   2.203  -9.491  0.00  0.00    +0.010 A 
ATOM      9  C   LIG    1       -0.566   1.452  -9.884  0.00  0.00    +0.050 A 
ATOM     10  C   LIG    1        0.267   0.882  -8.932  0.00  0.00    +0.070 A 
ATOM     11  F   LIG    1        1.334   0.150  -9.320  0.00  0.00    -0.130 F 
ATOM     12  F   LIG    1       -0.308   1.273 -11.198  0.00  0.00    -0.140 F 
ATOM     13  C   LIG    1        0.006   1.063  -7.587  0.00  0.00    +0.060 A 
ENDBRANCH   3   6
BRANCH   1  15
ATOM     14  C   LIG    1       -0.742   1.585  -1.213  0.00  0.00    +0.450 C 
ATOM     15  N   LIG    1       -0.288   1.272  -2.443  0.00  0.00    -0.640 NA
ATOM     16  O   LIG    1       -1.736   2.268  -1.088  0.00  0.00    -0.590 OA
BRANCH  14  18
ATOM     17  C   LIG    1        1.423   1.615  -0.003  0.00  0.00    +0.070 C 
ATOM     18  C   LIG    1       -0.013   1.086   0.008  0.00  0.00    +0.280 C 
BRANCH  18  19
ATOM     19  N   LIG    1       -0.698   1.558   1.213  0.00  0.00    -0.350 N 
ATOM     20  C   LIG    1       -1.317   2.748   1.360  0.00  0.00    +0.290 A 
ATOM     21  C   LIG    1       -1.826   2.798   2.613  0.00  0.00    -0.170 A 
ATOM     22  C   LIG    1       -1.498   1.601   3.257  0.00  0.00    +0.220 A 
ATOM     23  N   LIG    1       -0.822   0.857   2.420  0.00  0.00    -0.310 NA
ENDBRANCH  18  19
ENDBRANCH  14  18
ENDBRANCH   1  15
TORSDOF 4
