REMARK  Name = ZINCqH0000038RGs.0
REMARK                            x       y       z     vdW  Elec       q    Type
REMARK                         _______ _______ _______ _____ _____    ______ ____
ROOT
ATOM      1  C   LIG    1       -1.810  -3.799   0.141  0.00  0.00    +0.550 C 
ATOM      2  N   LIG    1       -3.050  -3.271   0.140  0.00  0.00    -0.720 N 
ATOM      3  H   LIG    1       -3.169  -2.312   0.220  0.00  0.00    +0.410 HD
ATOM      4  O   LIG    1       -1.662  -5.002   0.041  0.00  0.00    -0.480 OA
ENDROOT
BRANCH   1  11
ATOM      5  C   LIG    1        3.940  -0.325   0.662  0.00  0.00    +0.350 C 
ATOM      6  N   LIG    1        2.480  -0.212   0.617  0.00  0.00    -0.540 N 
ATOM      7  C   LIG    1        1.777   0.933   0.691  0.00  0.00    +0.680 A 
ATOM      8  N   LIG    1        0.460   0.663   0.618  0.00  0.00    -0.540 N 
ATOM      9  C   LIG    1        0.303  -0.716   0.491  0.00  0.00    +0.100 A 
ATOM     10  C   LIG    1       -0.803  -1.536   0.378  0.00  0.00    +0.080 A 
ATOM     11  C   LIG    1       -0.633  -2.918   0.263  0.00  0.00    -0.110 A 
ATOM     12  C   LIG    1        0.654  -3.465   0.263  0.00  0.00    -0.030 A 
ATOM     13  C   LIG    1        1.755  -2.644   0.376  0.00  0.00    +0.070 A 
ATOM     14 BR   LIG    1        0.885  -5.336   0.109  0.00  0.00    +0.010 Br
ATOM     15  C   LIG    1       -0.622   1.650   0.658  0.00  0.00    +0.350 C 
ATOM     16  O   LIG    1        2.259   2.044   0.806  0.00  0.00    -0.540 OA
ATOM     17  C   LIG    1        1.589  -1.270   0.490  0.00  0.00    +0.130 A 
ENDBRANCH   1  11
BRANCH   2  18
ATOM     18  C   LIG    1       -4.219  -4.146   0.019  0.00  0.00    +0.250 C 
BRANCH  18  19
ATOM     19  C   LIG    1       -4.604  -4.676   1.401  0.00  0.00    +0.430 C 
ATOM     20  F   LIG    1       -3.534  -5.400   1.938  0.00  0.00    -0.170 F 
ATOM     21  F   LIG    1       -5.721  -5.512   1.286  0.00  0.00    -0.180 F 
ATOM     22  F   LIG    1       -4.911  -3.603   2.244  0.00  0.00    -0.180 F 
ENDBRANCH  18  19
BRANCH  18  23
ATOM     23  C   LIG    1       -5.390  -3.355  -0.569  0.00  0.00    +0.070 C 
BRANCH  23  24
ATOM     24  C   LIG    1       -5.070  -2.969  -2.014  0.00  0.00    -0.060 C 
ATOM     25  C   LIG    1       -3.891  -1.994  -2.032  0.00  0.00    +0.020 C 
ATOM     26  C   LIG    1       -6.293  -2.302  -2.646  0.00  0.00    +0.040 C 
ATOM     27  C   LIG    1       -4.705  -4.224  -2.809  0.00  0.00    +0.030 C 
ENDBRANCH  23  24
ENDBRANCH  18  23
ENDBRANCH   2  18
TORSDOF 5
