REMARK  Name = ZINCrH00000loYDR.0
REMARK                            x       y       z     vdW  Elec       q    Type
REMARK                         _______ _______ _______ _____ _____    ______ ____
ROOT
ATOM      1  C   LIG    1        1.950  -6.805   3.542  0.00  0.00    -0.120 C 
ATOM      2  C   LIG    1        0.844  -7.093   2.525  0.00  0.00    +0.090 C 
ATOM      3  C   LIG    1        2.938  -5.658   3.238  0.00  0.00    +0.310 C 
ATOM      4  N   LIG    1        2.100  -4.590   2.643  0.00  0.00    -0.620 N 
ATOM      5  C   LIG    1        2.405  -3.777   1.613  0.00  0.00    +0.570 C 
ATOM      6  O   LIG    1        3.480  -3.877   1.059  0.00  0.00    -0.540 OA
ATOM      7  C   LIG    1        0.853  -4.615   3.443  0.00  0.00    +0.300 C 
ATOM      8  C   LIG    1        0.574  -6.120   3.675  0.00  0.00    -0.040 C 
ENDROOT
BRANCH   1  13
ATOM      9  C   LIG    1        3.737 -11.013   7.076  0.00  0.00    +0.090 C 
ATOM     10  C   LIG    1        3.272  -9.915   6.154  0.00  0.00    -0.090 A 
ATOM     11  C   LIG    1        4.100  -9.461   5.146  0.00  0.00    +0.000 A 
ATOM     12  C   LIG    1        3.673  -8.455   4.300  0.00  0.00    +0.010 A 
ATOM     13  C   LIG    1        2.416  -7.902   4.464  0.00  0.00    -0.040 A 
ATOM     14  C   LIG    1        1.589  -8.352   5.476  0.00  0.00    +0.010 A 
ATOM     15  C   LIG    1        2.015  -9.362   6.319  0.00  0.00    +0.000 A 
ENDBRANCH   1  13
BRANCH   5  16
ATOM     16  C   LIG    1        1.412  -2.744   1.149  0.00  0.00    -0.060 C 
ATOM     17  C   LIG    1        0.769  -2.948  -0.225  0.00  0.00    +0.070 C 
ATOM     18  C   LIG    1        1.817  -1.851  -0.026  0.00  0.00    +0.090 C 
BRANCH  18  19
ATOM     19  C   LIG    1        1.337  -0.423  -0.013  0.00  0.00    -0.210 A 
ATOM     20  C   LIG    1        2.119   0.681  -0.015  0.00  0.00    +0.240 A 
ATOM     21  N   LIG    1        1.309   1.760  -0.001  0.00  0.00    -0.370 N 
ATOM     22  N   LIG    1       -0.016   1.304   0.009  0.00  0.00    -0.290 NA
ATOM     23  C   LIG    1        0.002  -0.004   0.002  0.00  0.00    +0.230 A 
BRANCH  21  24
ATOM     24  C   LIG    1        1.739   3.160   0.002  0.00  0.00    +0.330 C 
BRANCH  24  25
ATOM     25  C   LIG    1        1.085   3.897  -1.169  0.00  0.00    -0.040 C 
ATOM     26  C   LIG    1        1.629   5.325  -1.240  0.00  0.00    +0.030 C 
ATOM     27  C   LIG    1       -0.430   3.938  -0.964  0.00  0.00    +0.030 C 
ENDBRANCH  24  25
ENDBRANCH  21  24
ENDBRANCH  18  19
ENDBRANCH   5  16
TORSDOF 5
