REMARK  Name = ZINCkj000005k8wM.1
REMARK                            x       y       z     vdW  Elec       q    Type
REMARK                         _______ _______ _______ _____ _____    ______ ____
ROOT
ATOM      1  N   LIG    1       -1.623  -1.191   2.357  0.00  0.00    -0.650 N 
ATOM      2  H   LIG    1       -1.631  -0.682   3.183  0.00  0.00    +0.410 HD
ATOM      3  C   LIG    1       -1.528  -0.554   1.173  0.00  0.00    +0.460 C 
ATOM      4  O   LIG    1       -1.416  -1.192   0.148  0.00  0.00    -0.490 OA
ENDROOT
BRANCH   3   5
ATOM      5  C   LIG    1       -1.560   0.952   1.124  0.00  0.00    +0.240 C 
ATOM      6  C   LIG    1       -0.324   1.514   1.831  0.00  0.00    +0.270 C 
ATOM      7  N   LIG    1        0.886   1.073   1.123  0.00  0.00    -0.390 N 
ATOM      8  C   LIG    1        0.848   1.561  -0.262  0.00  0.00    +0.250 C 
ATOM      9  C   LIG    1       -0.390   0.999  -0.965  0.00  0.00    +0.270 C 
ATOM     10  C   LIG    1        2.073   1.611   1.800  0.00  0.00    +0.340 C 
ATOM     11  H   LIG    1        0.926   0.064   1.123  0.00  0.00    +0.420 HD
ATOM     12  O   LIG    1       -1.561   1.385  -0.239  0.00  0.00    -0.320 OA
ENDBRANCH   3   5
BRANCH   1  15
ATOM     13  C   LIG    1       -0.770  -2.525   4.720  0.00  0.00    +0.100 C 
ATOM     14  C   LIG    1       -1.304  -3.277   3.528  0.00  0.00    -0.090 A 
ATOM     15  C   LIG    1       -1.709  -2.587   2.395  0.00  0.00    +0.130 A 
ATOM     16  C   LIG    1       -2.206  -3.283   1.300  0.00  0.00    +0.030 A 
ATOM     17  C   LIG    1       -2.287  -4.662   1.335  0.00  0.00    +0.040 A 
ATOM     18  C   LIG    1       -1.885  -5.353   2.462  0.00  0.00    -0.020 A 
ATOM     19  C   LIG    1       -1.392  -4.662   3.562  0.00  0.00    +0.110 A 
BRANCH  19  20
ATOM     20  N   LIG    1       -0.985  -5.361   4.701  0.00  0.00    -0.510 N 
ATOM     21  C   LIG    1        0.164  -6.228   4.404  0.00  0.00    +0.210 C 
ATOM     22  C   LIG    1       -2.096  -6.136   5.269  0.00  0.00    +0.200 C 
ENDBRANCH  19  20
ENDBRANCH   1  15
TORSDOF 3
