REMARK  Name = ZINCkj000005k8wM.2
REMARK                            x       y       z     vdW  Elec       q    Type
REMARK                         _______ _______ _______ _____ _____    ______ ____
ROOT
ATOM      1  N   LIG    1       -2.432   1.468   0.021  0.00  0.00    -0.660 N 
ATOM      2  H   LIG    1       -2.422   0.502  -0.065  0.00  0.00    +0.410 HD
ATOM      3  C   LIG    1       -3.604   2.123   0.132  0.00  0.00    +0.520 C 
ATOM      4  O   LIG    1       -3.622   3.336   0.139  0.00  0.00    -0.460 OA
ENDROOT
BRANCH   3   5
ATOM      5  C   LIG    1       -4.892   1.350   0.247  0.00  0.00    +0.170 C 
ATOM      6  C   LIG    1       -4.898   0.558   1.557  0.00  0.00    +0.260 C 
ATOM      7  N   LIG    1       -6.178  -0.149   1.694  0.00  0.00    -0.380 N 
ATOM      8  C   LIG    1       -7.277   0.827   1.705  0.00  0.00    +0.240 C 
ATOM      9  C   LIG    1       -7.267   1.618   0.395  0.00  0.00    +0.280 C 
ATOM     10  C   LIG    1       -6.186  -0.910   2.950  0.00  0.00    +0.340 C 
ATOM     11  H   LIG    1       -6.298  -0.782   0.916  0.00  0.00    +0.430 HD
ATOM     12  O   LIG    1       -5.997   2.258   0.240  0.00  0.00    -0.330 OA
ENDBRANCH   3   5
BRANCH   1  15
ATOM     13  C   LIG    1       -0.166   0.293  -1.233  0.00  0.00    +0.100 C 
ATOM     14  C   LIG    1       -0.098   1.644  -0.570  0.00  0.00    -0.090 A 
ATOM     15  C   LIG    1       -1.228   2.180   0.031  0.00  0.00    +0.140 A 
ATOM     16  C   LIG    1       -1.161   3.424   0.647  0.00  0.00    +0.010 A 
ATOM     17  C   LIG    1        0.026   4.132   0.651  0.00  0.00    +0.040 A 
ATOM     18  C   LIG    1        1.151   3.603   0.049  0.00  0.00    -0.020 A 
ATOM     19  C   LIG    1        1.093   2.357  -0.564  0.00  0.00    +0.110 A 
BRANCH  19  20
ATOM     20  N   LIG    1        2.231   1.823  -1.173  0.00  0.00    -0.510 N 
ATOM     21  C   LIG    1        3.289   1.575  -0.185  0.00  0.00    +0.210 C 
ATOM     22  C   LIG    1        2.711   2.699  -2.250  0.00  0.00    +0.200 C 
ENDBRANCH  19  20
ENDBRANCH   1  15
TORSDOF 3
