REMARK  Name = ZINCrD0000072sPl.0
REMARK                            x       y       z     vdW  Elec       q    Type
REMARK                         _______ _______ _______ _____ _____    ______ ____
ROOT
ATOM      1  C   LIG    1       -1.456   7.780   1.398  0.00  0.00    +0.280 C 
ATOM      2  N   LIG    1       -0.967   7.204   0.143  0.00  0.00    -0.610 N 
ATOM      3  C   LIG    1       -1.352   5.967  -0.226  0.00  0.00    +0.510 C 
ATOM      4  O   LIG    1       -0.947   5.490  -1.264  0.00  0.00    -0.510 OA
ENDROOT
BRANCH   2   5
ATOM      5  C   LIG    1       -0.059   7.974  -0.711  0.00  0.00    +0.300 C 
ATOM      6  C   LIG    1       -0.746   9.269  -1.138  0.00  0.00    +0.010 C 
ATOM      7  C   LIG    1        0.288  10.154  -1.845  0.00  0.00    +0.020 C 
ATOM      8  C   LIG    1        1.290  10.651  -0.805  0.00  0.00    +0.080 C 
ATOM      9  C   LIG    1        1.828   9.500   0.004  0.00  0.00    -0.070 A 
ATOM     10  C   LIG    1        2.996   9.707   0.726  0.00  0.00    +0.000 A 
ATOM     11  C   LIG    1        3.537   8.694   1.491  0.00  0.00    +0.010 A 
ATOM     12  C   LIG    1        2.911   7.463   1.540  0.00  0.00    +0.000 A 
ATOM     13  C   LIG    1        1.751   7.254   0.823  0.00  0.00    +0.020 A 
ATOM     14  C   LIG    1        1.206   8.272   0.051  0.00  0.00    -0.090 A 
ENDBRANCH   2   5
BRANCH   3  15
ATOM     15  C   LIG    1       -2.287   5.175   0.653  0.00  0.00    +0.220 C 
BRANCH  15  16
ATOM     16  N   LIG    1       -2.466   3.830   0.090  0.00  0.00    -0.490 N 
ATOM     17  C   LIG    1       -3.135   2.945   1.048  0.00  0.00    +0.220 C 
ATOM     18  C   LIG    1       -3.555   1.645   0.368  0.00  0.00    +0.050 C 
ATOM     19  C   LIG    1       -2.446   1.133  -0.512  0.00  0.00    +0.540 C 
ATOM     20  N   LIG    1       -2.219   1.721  -1.706  0.00  0.00    -0.660 N 
ATOM     21  H   LIG    1       -1.543   1.376  -2.309  0.00  0.00    +0.410 HD
ATOM     22  C   LIG    1       -2.991   2.841  -2.050  0.00  0.00    +0.140 A 
ATOM     23  C   LIG    1       -3.616   2.911  -3.284  0.00  0.00    +0.010 A 
ATOM     24  C   LIG    1       -4.401   4.006  -3.597  0.00  0.00    +0.010 A 
ATOM     25  C   LIG    1       -4.557   5.033  -2.685  0.00  0.00    +0.020 A 
ATOM     26  C   LIG    1       -3.923   4.978  -1.457  0.00  0.00    -0.030 A 
ATOM     27  O   LIG    1       -1.761   0.199  -0.152  0.00  0.00    -0.530 OA
ATOM     28  C   LIG    1       -3.130   3.886  -1.137  0.00  0.00    +0.110 A 
ENDBRANCH  15  16
ENDBRANCH   3  15
TORSDOF 3
