REMARK  Name = ZINCpk00000e1E15.0
REMARK                            x       y       z     vdW  Elec       q    Type
REMARK                         _______ _______ _______ _____ _____    ______ ____
ROOT
ATOM      1  N   LIG    1       -2.826   1.380   0.037  0.00  0.00    -0.570 N 
ATOM      2  C   LIG    1       -2.130   1.064   1.292  0.00  0.00    +0.290 C 
ATOM      3  C   LIG    1       -0.706   1.623   1.220  0.00  0.00    +0.020 C 
ATOM      4  C   LIG    1       -0.013   1.085  -0.035  0.00  0.00    +0.010 C 
ATOM      5  C   LIG    1       -0.777   1.548  -1.278  0.00  0.00    +0.230 C 
ATOM      6  C   LIG    1       -2.203   0.988  -1.235  0.00  0.00    +0.300 C 
ENDROOT
BRANCH   1  12
ATOM      7  C   LIG    1       -6.660   3.208   2.528  0.00  0.00    +0.320 C 
ATOM      8  N   LIG    1       -5.930   2.932   1.288  0.00  0.00    -0.480 N 
ATOM      9  C   LIG    1       -6.442   3.320   0.085  0.00  0.00    +0.160 A 
ATOM     10  C   LIG    1       -5.777   3.071  -1.063  0.00  0.00    +0.190 A 
ATOM     11  N   LIG    1       -4.601   2.445  -1.070  0.00  0.00    -0.510 NA
ATOM     12  C   LIG    1       -4.049   2.036   0.052  0.00  0.00    +0.350 A 
ATOM     13  C   LIG    1       -4.742   2.290   1.321  0.00  0.00    +0.480 A 
ATOM     14  O   LIG    1       -4.256   1.929   2.380  0.00  0.00    -0.520 OA
ENDBRANCH   1  12
BRANCH   5  15
ATOM     15  N   LIG    1       -0.097   1.059  -2.480  0.00  0.00    -0.720 N 
ATOM     16  H   LIG    1       -0.383   0.231  -2.897  0.00  0.00    +0.400 HD
ATOM     17  C   LIG    1        0.927   1.760  -3.007  0.00  0.00    +0.560 C 
ATOM     18  O   LIG    1        1.286   2.797  -2.485  0.00  0.00    -0.510 OA
BRANCH  17  19
ATOM     19  C   LIG    1        1.613   1.267  -4.218  0.00  0.00    -0.150 A 
ATOM     20  C   LIG    1        1.204   0.075  -4.821  0.00  0.00    +0.060 A 
ATOM     21  C   LIG    1        1.850  -0.380  -5.954  0.00  0.00    +0.080 A 
ATOM     22  C   LIG    1        2.902   0.344  -6.493  0.00  0.00    +0.050 A 
ATOM     23  C   LIG    1        3.313   1.524  -5.903  0.00  0.00    +0.030 A 
ATOM     24  F   LIG    1        1.455  -1.532  -6.537  0.00  0.00    -0.130 F 
ATOM     25  C   LIG    1        2.672   1.994  -4.771  0.00  0.00    +0.150 A 
ATOM     26  F   LIG    1        3.071   3.151  -4.198  0.00  0.00    -0.110 F 
ENDBRANCH  17  19
ENDBRANCH   5  15
TORSDOF 3
