REMARK  Name = ZINCkj00000y7JUZ.0
REMARK                            x       y       z     vdW  Elec       q    Type
REMARK                         _______ _______ _______ _____ _____    ______ ____
ROOT
ATOM      1  C   LIG    1        8.065   0.325  -4.098  0.00  0.00    +0.640 C 
ATOM      2  N   LIG    1        6.841   0.694  -4.382  0.00  0.00    -0.540 N 
ATOM      3  C   LIG    1        6.114   0.790  -3.238  0.00  0.00    +0.120 A 
ATOM      4  C   LIG    1        4.787   1.131  -2.971  0.00  0.00    -0.020 A 
ATOM      5  C   LIG    1        4.330   1.143  -1.666  0.00  0.00    +0.260 A 
ATOM      6  C   LIG    1        5.185   0.806  -0.619  0.00  0.00    +0.000 A 
ATOM      7  C   LIG    1        6.496   0.462  -0.873  0.00  0.00    +0.120 A 
ATOM      8  C   LIG    1        6.969   0.451  -2.176  0.00  0.00    +0.020 A 
ATOM      9  H   LIG    1        6.504   0.872  -5.274  0.00  0.00    +0.450 HD
ATOM     10  N   LIG    1        8.199   0.161  -2.749  0.00  0.00    -0.560 N 
ATOM     11  H   LIG    1        9.004  -0.108  -2.279  0.00  0.00    +0.460 HD
ENDROOT
BRANCH   1  13
ATOM     12  C   LIG    1       10.370  -0.389  -4.593  0.00  0.00    +0.350 C 
ATOM     13  N   LIG    1        9.069   0.131  -5.023  0.00  0.00    -0.580 NA
ATOM     14  C   LIG    1        8.835   0.445  -6.434  0.00  0.00    +0.350 C 
ENDBRANCH   1  13
BRANCH   5  15
ATOM     15  N   LIG    1        3.001   1.489  -1.396  0.00  0.00    -0.730 N 
ATOM     16  H   LIG    1        2.404   1.724  -2.123  0.00  0.00    +0.410 HD
BRANCH  15  17
ATOM     17  C   LIG    1        2.513   1.496  -0.015  0.00  0.00    +0.380 C 
BRANCH  17  18
ATOM     18  C   LIG    1        1.061   1.900   0.002  0.00  0.00    -0.060 A 
ATOM     19  C   LIG    1       -0.013   1.076   0.008  0.00  0.00    +0.170 A 
ATOM     20  N   LIG    1       -1.095   1.862   0.017  0.00  0.00    -0.270 NA
ATOM     21  N   LIG    1       -0.717   3.091   0.025  0.00  0.00    -0.060 NA
ATOM     22  N   LIG    1        0.568   3.161   0.014  0.00  0.00    -0.280 N 
ATOM     23  C   LIG    1        1.361   4.392   0.012  0.00  0.00    +0.370 C 
ENDBRANCH  17  18
ENDBRANCH  15  17
ENDBRANCH   5  15
TORSDOF 4
