REMARK  Name = ZINCrH00000ajYqE.0
REMARK                            x       y       z     vdW  Elec       q    Type
REMARK                         _______ _______ _______ _____ _____    ______ ____
ROOT
ATOM      1  C   LIG    1        4.499   5.727   1.013  0.00  0.00    +0.100 C 
ATOM      2  C   LIG    1        3.628   5.998  -0.216  0.00  0.00    +0.280 C 
ENDROOT
BRANCH   2   3
ATOM      3  N   LIG    1        3.340   7.432  -0.303  0.00  0.00    -0.280 N 
ATOM      4  C   LIG    1        3.148   8.265   0.746  0.00  0.00    +0.160 A 
ATOM      5  C   LIG    1        2.911   9.498   0.209  0.00  0.00    +0.040 A 
ATOM      6  N   LIG    1        2.973   9.344  -1.125  0.00  0.00    -0.250 NA
ATOM      7  N   LIG    1        3.234   8.113  -1.389  0.00  0.00    -0.070 NA
BRANCH   5   8
ATOM      8  C   LIG    1        2.639  10.755   0.951  0.00  0.00    -0.070 A 
ATOM      9  C   LIG    1        2.601  10.749   2.343  0.00  0.00    +0.070 A 
ATOM     10  C   LIG    1        2.353  11.919   3.030  0.00  0.00    -0.080 A 
ATOM     11  C   LIG    1        2.130  13.101   2.334  0.00  0.00    +0.220 A 
ATOM     12  C   LIG    1        2.162  13.107   0.944  0.00  0.00    -0.080 A 
ATOM     13  C   LIG    1        2.415  11.941   0.254  0.00  0.00    +0.090 A 
BRANCH  11  14
ATOM     14  N   LIG    1        1.873  14.284   3.031  0.00  0.00    -0.880 N 
ATOM     15  H   LIG    1        1.851  14.280   4.001  0.00  0.00    +0.400 HD
ATOM     16  H   LIG    1        1.718  15.109   2.546  0.00  0.00    +0.400 HD
ENDBRANCH  11  14
ENDBRANCH   5   8
ENDBRANCH   2   3
BRANCH   2  17
ATOM     17  C   LIG    1        2.336   5.233  -0.094  0.00  0.00    +0.510 C 
ATOM     18  N   LIG    1        2.356   3.889   0.001  0.00  0.00    -0.670 N 
ATOM     19  H   LIG    1        3.202   3.419   0.068  0.00  0.00    +0.420 HD
ATOM     20  O   LIG    1        1.278   5.827  -0.082  0.00  0.00    -0.490 OA
BRANCH  18  21
ATOM     21  C   LIG    1        1.155   3.170   0.002  0.00  0.00    +0.180 A 
ATOM     22  C   LIG    1        0.070   3.626  -0.736  0.00  0.00    +0.030 A 
ATOM     23  C   LIG    1       -1.113   2.914  -0.733  0.00  0.00    +0.090 A 
ATOM     24  C   LIG    1       -1.220   1.751   0.008  0.00  0.00    -0.200 A 
ATOM     25  C   LIG    1       -0.141   1.292   0.740  0.00  0.00    +0.090 A 
ATOM     26  C   LIG    1        1.046   1.999   0.741  0.00  0.00    +0.000 A 
BRANCH  24  27
ATOM     27  C   LIG    1       -2.515   0.980   0.014  0.00  0.00    +0.510 C 
ATOM     28  F   LIG    1       -3.585   1.863  -0.169  0.00  0.00    -0.180 F 
ATOM     29  F   LIG    1       -2.659   0.320   1.239  0.00  0.00    -0.180 F 
ATOM     30  F   LIG    1       -2.503   0.041  -1.023  0.00  0.00    -0.180 F 
ENDBRANCH  24  27
ENDBRANCH  18  21
ENDBRANCH   2  17
TORSDOF 6
