REMARK  Name = ZINCpe000000SZ6b.0
REMARK                            x       y       z     vdW  Elec       q    Type
REMARK                         _______ _______ _______ _____ _____    ______ ____
ROOT
ATOM      1  C   LIG    1       -1.961   3.284  -8.306  0.00  0.00    -0.660 A 
ATOM      2  C   LIG    1       -0.820   2.516  -8.456  0.00  0.00    +0.130 A 
ATOM      3  C   LIG    1       -0.208   1.961  -7.351  0.00  0.00    +0.070 A 
ATOM      4  C   LIG    1       -0.744   2.175  -6.080  0.00  0.00    -0.080 A 
ATOM      5  C   LIG    1       -1.898   2.946  -5.936  0.00  0.00    +0.030 A 
ATOM      6  C   LIG    1       -2.497   3.500  -7.049  0.00  0.00    +0.120 A 
ENDROOT
BRANCH   4   7
ATOM      7  C   LIG    1       -0.094   1.583  -4.891  0.00  0.00    +0.550 C 
ATOM      8  N   LIG    1       -0.613   1.792  -3.665  0.00  0.00    -0.720 N 
ATOM      9  H   LIG    1       -1.413   2.331  -3.562  0.00  0.00    +0.410 HD
ATOM     10  O   LIG    1        0.909   0.908  -5.020  0.00  0.00    -0.530 OA
BRANCH   8  11
ATOM     11  C   LIG    1        0.031   1.205  -2.487  0.00  0.00    +0.250 C 
BRANCH  11  12
ATOM     12  C   LIG    1       -0.753   1.593  -1.232  0.00  0.00    +0.220 C 
BRANCH  12  13
ATOM     13  O   LIG    1       -2.054   1.005  -1.282  0.00  0.00    -0.550 OA
ATOM     14  H   LIG    1       -2.049   0.040  -1.329  0.00  0.00    +0.380 HD
ENDBRANCH  12  13
BRANCH  12  15
ATOM     15  C   LIG    1       -0.013   1.086   0.008  0.00  0.00    +0.150 C 
BRANCH  15  16
ATOM     16  O   LIG    1       -0.682   1.547   1.184  0.00  0.00    -0.370 OA
BRANCH  16  17
ATOM     17  C   LIG    1       -0.068   1.127   2.404  0.00  0.00    +0.190 C 
BRANCH  17  18
ATOM     18  C   LIG    1       -0.864   1.675   3.590  0.00  0.00    -0.050 C 
ATOM     19  C   LIG    1       -0.158   2.668   4.516  0.00  0.00    +0.020 C 
ATOM     20  C   LIG    1       -0.432   1.239   4.992  0.00  0.00    +0.030 C 
ENDBRANCH  17  18
ENDBRANCH  16  17
ENDBRANCH  15  16
ENDBRANCH  12  15
ENDBRANCH  11  12
ENDBRANCH   8  11
ENDBRANCH   4   7
BRANCH   1  21
ATOM     21  S   LIG    1       -2.736   3.989  -9.723  0.00  0.00    +2.690 S 
ATOM     22  O   LIG    1       -1.732   4.083 -10.724  0.00  0.00    -0.950 OA
ATOM     23  O   LIG    1       -3.478   5.108  -9.259  0.00  0.00    -0.950 OA
BRANCH  21  24
ATOM     24  N   LIG    1       -3.845   2.889 -10.274  0.00  0.00    -1.110 NA
ATOM     25  H   LIG    1       -3.727   2.476 -11.144  0.00  0.00    +0.420 HD
BRANCH  24  27
ATOM     26  C   LIG    1       -6.214   2.285 -10.347  0.00  0.00    +0.040 C 
ATOM     27  C   LIG    1       -5.003   2.539  -9.447  0.00  0.00    +0.230 C 
ATOM     28  C   LIG    1       -4.692   1.275  -8.643  0.00  0.00    +0.020 C 
ENDBRANCH  24  27
ENDBRANCH  21  24
ENDBRANCH   1  21
TORSDOF 11
