REMARK  Name = ZINCvU00000009k4.0
REMARK                            x       y       z     vdW  Elec       q    Type
REMARK                         _______ _______ _______ _____ _____    ______ ____
ROOT
ATOM      1  C   LIG    1        0.335   2.390   5.312  0.00  0.00    +0.300 C 
ENDROOT
BRANCH   1   2
ATOM      2  C   LIG    1        0.257   2.813   6.756  0.00  0.00    +0.510 C 
ATOM      3  N   LIG    1        1.351   2.741   7.539  0.00  0.00    -0.720 N 
ATOM      4  H   LIG    1        2.189   2.416   7.174  0.00  0.00    +0.400 HD
ATOM      5  O   LIG    1       -0.791   3.220   7.213  0.00  0.00    -0.530 OA
BRANCH   3   6
ATOM      6  C   LIG    1        1.275   3.153   8.943  0.00  0.00    +0.290 C 
ATOM      7  C   LIG    1        1.484   4.665   9.043  0.00  0.00    +0.040 C 
BRANCH   6   8
ATOM      8  C   LIG    1        2.346   2.445   9.733  0.00  0.00    -0.100 A 
ATOM      9  C   LIG    1        3.603   2.268   9.188  0.00  0.00    +0.010 A 
ATOM     10  C   LIG    1        4.587   1.622   9.914  0.00  0.00    +0.010 A 
ATOM     11  C   LIG    1        4.310   1.146  11.181  0.00  0.00    -0.070 A 
ATOM     12  C   LIG    1        3.050   1.319  11.725  0.00  0.00    +0.010 A 
ATOM     13  C   LIG    1        2.068   1.968  11.001  0.00  0.00    +0.020 A 
BRANCH  11  14
ATOM     14  C   LIG    1        5.380   0.438  11.971  0.00  0.00    +0.060 C 
BRANCH  14  15
ATOM     15  C   LIG    1        5.326  -1.062  11.674  0.00  0.00    -0.020 C 
ATOM     16  C   LIG    1        6.328  -1.796  12.568  0.00  0.00    +0.020 C 
ATOM     17  C   LIG    1        5.679  -1.304  10.206  0.00  0.00    +0.010 C 
ENDBRANCH  14  15
ENDBRANCH  11  14
ENDBRANCH   6   8
ENDBRANCH   3   6
ENDBRANCH   1   2
BRANCH   1  18
ATOM     18  N   LIG    1       -0.976   2.562   4.681  0.00  0.00    -0.710 N 
ATOM     19  H   LIG    1       -1.722   2.905   5.198  0.00  0.00    +0.420 HD
BRANCH  18  23
ATOM     20  C   LIG    1       -0.032   1.012   0.028  0.00  0.00    +0.140 C 
ATOM     21  C   LIG    1       -0.726   1.540   1.256  0.00  0.00    +0.110 A 
ATOM     22  C   LIG    1       -0.163   1.730   2.471  0.00  0.00    -0.140 A 
ATOM     23  C   LIG    1       -1.152   2.233   3.332  0.00  0.00    +0.350 A 
ATOM     24  N   LIG    1       -2.271   2.340   2.654  0.00  0.00    -0.320 NA
ATOM     25  N   LIG    1       -2.028   1.916   1.341  0.00  0.00    -0.330 N 
BRANCH  25  26
ATOM     26  C   LIG    1       -2.966   1.881   0.299  0.00  0.00    +0.180 A 
ATOM     27  C   LIG    1       -3.097   0.741  -0.481  0.00  0.00    +0.050 A 
ATOM     28  C   LIG    1       -4.021   0.710  -1.507  0.00  0.00    +0.060 A 
ATOM     29  C   LIG    1       -4.816   1.814  -1.758  0.00  0.00    -0.030 A 
ATOM     30  C   LIG    1       -4.688   2.953  -0.983  0.00  0.00    +0.060 A 
ATOM     31 CL   LIG    1       -5.977   1.770  -3.049  0.00  0.00    -0.050 Cl
ATOM     32  C   LIG    1       -3.769   2.987   0.049  0.00  0.00    -0.020 A 
ATOM     33 CL   LIG    1       -3.613   4.414   1.026  0.00  0.00    -0.030 Cl
ENDBRANCH  25  26
ENDBRANCH  18  23
ENDBRANCH   1  18
TORSDOF 8
