REMARK  Name = ZINCrH000004nP1e.0
REMARK                            x       y       z     vdW  Elec       q    Type
REMARK                         _______ _______ _______ _____ _____    ______ ____
ROOT
ATOM      1  C   LIG    1        2.803   2.229   2.011  0.00  0.00    +0.520 C 
ATOM      2  N   LIG    1        2.141   1.454   1.130  0.00  0.00    -0.610 N 
ATOM      3  C   LIG    1        1.389   2.056   0.021  0.00  0.00    +0.270 C 
ATOM      4  C   LIG    1       -0.047   1.523   0.052  0.00  0.00    +0.030 C 
ATOM      5  C   LIG    1       -0.019  -0.007   0.035  0.00  0.00    +0.090 C 
ATOM      6  C   LIG    1        0.714  -0.519   1.278  0.00  0.00    +0.040 C 
ATOM      7  C   LIG    1        2.158  -0.009   1.260  0.00  0.00    +0.290 C 
ATOM      8  O   LIG    1        3.338   1.728   2.981  0.00  0.00    -0.460 OA
ENDROOT
BRANCH   5   9
ATOM      9  C   LIG    1       -1.431  -0.535   0.032  0.00  0.00    +0.100 A 
ATOM     10  N   LIG    1       -2.287  -0.307   0.954  0.00  0.00    -0.460 NA
ATOM     11  C   LIG    1       -3.516  -0.841   0.818  0.00  0.00    +0.080 A 
ATOM     12  C   LIG    1       -4.636  -0.748   1.667  0.00  0.00    +0.070 A 
ATOM     13  C   LIG    1       -5.801  -1.377   1.344  0.00  0.00    +0.030 A 
ATOM     14  C   LIG    1       -5.907  -2.118   0.176  0.00  0.00    +0.040 A 
ATOM     15  C   LIG    1       -4.828  -2.225  -0.673  0.00  0.00    +0.060 A 
ATOM     16  C   LIG    1       -3.629  -1.590  -0.358  0.00  0.00    -0.180 A 
ATOM     17  S   LIG    1       -2.084  -1.519  -1.200  0.00  0.00    +0.100 S 
ENDBRANCH   5   9
BRANCH   1  23
ATOM     18  C   LIG    1        2.450   4.568   2.796  0.00  0.00    -0.620 A 
ATOM     19  C   LIG    1        2.524   5.930   2.592  0.00  0.00    +0.130 A 
ATOM     20  C   LIG    1        3.024   6.427   1.401  0.00  0.00    +0.020 A 
ATOM     21  C   LIG    1        3.452   5.564   0.409  0.00  0.00    +0.070 A 
ATOM     22  C   LIG    1        3.388   4.199   0.603  0.00  0.00    +0.030 A 
ATOM     23  C   LIG    1        2.880   3.691   1.799  0.00  0.00    -0.030 A 
BRANCH  18  25
ATOM     24  C   LIG    1        0.293   3.067   3.840  0.00  0.00    -0.250 C 
ATOM     25  S   LIG    1        1.814   3.936   4.313  0.00  0.00    +2.480 S 
ATOM     26  O   LIG    1        1.508   5.096   5.075  0.00  0.00    -0.940 OA
ATOM     27  O   LIG    1        2.801   3.012   4.749  0.00  0.00    -0.890 OA
ENDBRANCH  18  25
ENDBRANCH   1  23
TORSDOF 3
