REMARK  Name = ZINCtV000002GMyO.0
REMARK                            x       y       z     vdW  Elec       q    Type
REMARK                         _______ _______ _______ _____ _____    ______ ____
ROOT
ATOM      1  C   LIG    1       -2.514   0.979   0.019  0.00  0.00    +0.240 C 
ENDROOT
BRANCH   1   5
ATOM      2  C   LIG    1        2.490   1.047  -0.016  0.00  0.00    +0.090 C 
ATOM      3  C   LIG    1        1.175   1.783   0.000  0.00  0.00    -0.120 A 
ATOM      4  C   LIG    1       -0.013   1.076   0.008  0.00  0.00    +0.050 A 
ATOM      5  C   LIG    1       -1.219   1.750   0.017  0.00  0.00    -0.100 A 
ATOM      6  C   LIG    1       -1.240   3.133   0.031  0.00  0.00    +0.070 A 
ATOM      7  C   LIG    1       -0.053   3.842   0.023  0.00  0.00    -0.010 A 
ATOM      8  C   LIG    1        1.156   3.167   0.008  0.00  0.00    +0.100 A 
ATOM      9  F   LIG    1        2.316   3.859   0.001  0.00  0.00    -0.140 F 
ENDBRANCH   1   5
BRANCH   1  10
ATOM     10  C   LIG    1       -3.065   0.925   1.420  0.00  0.00    -0.070 A 
ATOM     11  C   LIG    1       -4.072   1.792   1.800  0.00  0.00    +0.080 A 
ATOM     12  C   LIG    1       -4.582   1.739   3.085  0.00  0.00    +0.010 A 
ATOM     13  C   LIG    1       -4.077   0.828   3.992  0.00  0.00    +0.020 A 
ATOM     14  C   LIG    1       -3.066  -0.037   3.615  0.00  0.00    +0.010 A 
ATOM     15  C   LIG    1       -2.559   0.012   2.329  0.00  0.00    -0.030 A 
ATOM     16 CL   LIG    1       -1.290  -1.073   1.854  0.00  0.00    -0.070 Cl
ENDBRANCH   1  10
BRANCH   1  17
ATOM     17  N   LIG    1       -3.482   1.644  -0.863  0.00  0.00    -0.670 NA
ATOM     18  H   LIG    1       -3.015   2.110  -1.627  0.00  0.00    +0.350 HD
BRANCH  17  19
ATOM     19  C   LIG    1       -4.482   0.691  -1.361  0.00  0.00    +0.280 C 
BRANCH  19  20
ATOM     20  C   LIG    1       -5.456   1.408  -2.260  0.00  0.00    +0.070 A 
ATOM     21  C   LIG    1       -5.307   1.437  -3.590  0.00  0.00    -0.060 A 
ATOM     22  S   LIG    1       -6.640   2.366  -4.273  0.00  0.00    +0.110 S 
ATOM     23  C   LIG    1       -7.280   2.629  -2.653  0.00  0.00    +0.110 A 
ATOM     24  N   LIG    1       -6.505   2.038  -1.789  0.00  0.00    -0.410 NA
BRANCH  23  25
ATOM     25  C   LIG    1       -8.504   3.391  -2.328  0.00  0.00    +0.190 A 
ATOM     26  C   LIG    1       -9.248   3.977  -3.352  0.00  0.00    -0.010 A 
ATOM     27  C   LIG    1      -10.394   4.684  -3.032  0.00  0.00    +0.070 A 
ATOM     28  C   LIG    1      -10.754   4.791  -1.696  0.00  0.00    -0.020 A 
ATOM     29  C   LIG    1       -9.968   4.189  -0.730  0.00  0.00    +0.270 A 
ATOM     30  N   LIG    1       -8.885   3.518  -1.061  0.00  0.00    -0.440 NA
ENDBRANCH  23  25
ENDBRANCH  19  20
ENDBRANCH  17  19
ENDBRANCH   1  17
TORSDOF 6
