REMARK  Name = ZINCrg00001JduOy.0
REMARK                            x       y       z     vdW  Elec       q    Type
REMARK                         _______ _______ _______ _____ _____    ______ ____
ROOT
ATOM      1  C   LIG    1       -0.997   1.758  -3.630  0.00  0.00    +0.240 C 
ATOM      2  C   LIG    1       -2.142   0.800  -3.967  0.00  0.00    +0.010 C 
ATOM      3  C   LIG    1       -2.902   1.329  -5.188  0.00  0.00    +0.300 C 
ATOM      4  N   LIG    1       -1.947   1.538  -6.285  0.00  0.00    -1.000 NA
ATOM      5  C   LIG    1       -0.761   2.370  -6.040  0.00  0.00    +0.300 C 
ATOM      6  C   LIG    1       -0.025   1.829  -4.810  0.00  0.00    +0.010 C 
ENDROOT
BRANCH   1   8
ATOM      7  C   LIG    1       -0.742   1.585  -1.213  0.00  0.00    +0.520 C 
ATOM      8  N   LIG    1       -0.288   1.272  -2.443  0.00  0.00    -0.730 N 
ATOM      9  H   LIG    1        0.507   0.726  -2.543  0.00  0.00    +0.400 HD
ATOM     10  O   LIG    1       -1.736   2.268  -1.088  0.00  0.00    -0.530 OA
BRANCH   7  11
ATOM     11  C   LIG    1       -0.013   1.086   0.008  0.00  0.00    +0.040 C 
BRANCH  11  12
ATOM     12  C   LIG    1       -0.729   1.579   1.267  0.00  0.00    +0.130 C 
BRANCH  12  13
ATOM     13  C   LIG    1        0.011   1.072   2.506  0.00  0.00    +0.040 C 
ATOM     14  N   LIG    1        1.454   0.835   2.413  0.00  0.00    -0.120 NA
ATOM     15  N   LIG    1        0.751  -0.189   2.414  0.00  0.00    -0.120 NA
BRANCH  13  16
ATOM     16  C   LIG    1       -0.578   1.479   3.859  0.00  0.00    +0.120 C 
BRANCH  16  17
ATOM     17  C   LIG    1        0.277   0.893   4.984  0.00  0.00    +0.160 C 
BRANCH  17  19
ATOM     18  C   LIG    1       -0.742   1.596   7.323  0.00  0.00    +0.030 C 
ATOM     19  C   LIG    1       -0.290   1.284   6.285  0.00  0.00    -0.190 C 
ENDBRANCH  17  19
ENDBRANCH  16  17
ENDBRANCH  13  16
ENDBRANCH  12  13
ENDBRANCH  11  12
ENDBRANCH   7  11
ENDBRANCH   1   8
BRANCH   4  20
ATOM     20  S   LIG    1       -2.203   0.849  -7.769  0.00  0.00    +2.720 S 
ATOM     21  O   LIG    1       -1.484   1.638  -8.707  0.00  0.00    -0.950 OA
ATOM     22  O   LIG    1       -3.601   0.610  -7.864  0.00  0.00    -0.940 OA
BRANCH  20  23
ATOM     23  C   LIG    1       -1.427  -0.732  -7.751  0.00  0.00    -0.560 A 
ATOM     24  C   LIG    1       -0.158  -0.995  -8.115  0.00  0.00    +0.260 A 
ATOM     25  N   LIG    1        0.033  -2.340  -7.944  0.00  0.00    -0.460 N 
ATOM     26  C   LIG    1       -1.131  -2.854  -7.491  0.00  0.00    +0.410 A 
ATOM     27  C   LIG    1        1.266  -3.084  -8.211  0.00  0.00    +0.340 C 
ATOM     28  N   LIG    1       -1.999  -1.887  -7.377  0.00  0.00    -0.410 NA
ENDBRANCH  20  23
ENDBRANCH   4  20
TORSDOF 9
