REMARK  Name = ZINCpk000000oTlw.0
REMARK                            x       y       z     vdW  Elec       q    Type
REMARK                         _______ _______ _______ _____ _____    ______ ____
ROOT
ATOM      1  C   LIG    1        7.615   5.153   2.333  0.00  0.00    +0.030 C 
ATOM      2  C   LIG    1        6.657   6.314   2.057  0.00  0.00    +0.050 C 
ATOM      3  C   LIG    1        6.079   6.169   0.646  0.00  0.00    +0.290 C 
ATOM      4  N   LIG    1        5.467   4.840   0.520  0.00  0.00    -0.610 N 
ATOM      5  C   LIG    1        6.272   3.657   0.855  0.00  0.00    +0.280 C 
ATOM      6  C   LIG    1        4.190   4.707   0.110  0.00  0.00    +0.540 C 
ATOM      7  O   LIG    1        3.535   5.692  -0.159  0.00  0.00    -0.520 OA
ATOM      8  C   LIG    1        6.850   3.830   2.258  0.00  0.00    +0.050 C 
ENDROOT
BRANCH   1   9
ATOM      9  C   LIG    1        8.212   5.310   3.708  0.00  0.00    +0.470 C 
ATOM     10  O   LIG    1        7.903   6.254   4.396  0.00  0.00    -0.500 OA
BRANCH   9  11
ATOM     11  O   LIG    1        9.086   4.402   4.168  0.00  0.00    -0.360 OA
BRANCH  11  13
ATOM     12  C   LIG    1       10.593   3.489   5.849  0.00  0.00    +0.070 C 
ATOM     13  C   LIG    1        9.621   4.617   5.501  0.00  0.00    +0.200 C 
ENDBRANCH  11  13
ENDBRANCH   9  11
ENDBRANCH   1   9
BRANCH   6  14
ATOM     14  C   LIG    1        3.577   3.337  -0.015  0.00  0.00    +0.010 C 
ATOM     15  C   LIG    1        4.025   2.695  -1.329  0.00  0.00    +0.090 C 
BRANCH  14  16
ATOM     16  S   LIG    1        1.769   3.479   0.003  0.00  0.00    +0.110 S 
BRANCH  16  17
ATOM     17  C   LIG    1        1.238   1.799  -0.000  0.00  0.00    +0.240 A 
ATOM     18  N   LIG    1       -0.017   1.397   0.010  0.00  0.00    -0.310 NA
ATOM     19  N   LIG    1        0.002  -0.004   0.002  0.00  0.00    -0.320 N 
ATOM     20  C   LIG    1       -0.975  -0.948   0.006  0.00  0.00    +0.370 A 
ATOM     21  C   LIG    1       -0.625  -2.260  -0.004  0.00  0.00    -0.040 A 
ATOM     22  C   LIG    1        0.731  -2.606  -0.019  0.00  0.00    +0.400 A 
ATOM     23  N   LIG    1        1.653  -1.670  -0.023  0.00  0.00    -0.460 NA
ATOM     24  C   LIG    1        1.317  -0.374  -0.013  0.00  0.00    +0.450 A 
ATOM     25  N   LIG    1        2.043   0.739  -0.013  0.00  0.00    -0.520 NA
ENDBRANCH  16  17
ENDBRANCH  14  16
ENDBRANCH   6  14
TORSDOF 6
