REMARK  Name = ZINCrD000000CbuP.0
REMARK                            x       y       z     vdW  Elec       q    Type
REMARK                         _______ _______ _______ _____ _____    ______ ____
ROOT
ATOM      1  O   LIG    1       -0.168  -2.413   0.467  0.00  0.00    -0.540 OA
ATOM      2  C   LIG    1       -1.347  -2.119   0.419  0.00  0.00    +0.710 C 
ATOM      3  N   LIG    1       -2.271  -3.072   0.190  0.00  0.00    -0.710 N 
ATOM      4  H   LIG    1       -3.215  -2.852   0.226  0.00  0.00    +0.400 HD
ATOM      5  N   LIG    1       -1.729  -0.838   0.597  0.00  0.00    -0.660 N 
ATOM      6  H   LIG    1       -2.669  -0.603   0.559  0.00  0.00    +0.400 HD
ENDROOT
BRANCH   5   7
ATOM      7  C   LIG    1       -0.772   0.149   0.834  0.00  0.00    +0.320 A 
ATOM      8  C   LIG    1        0.574  -0.038   0.912  0.00  0.00    -0.090 A 
ATOM      9  C   LIG    1        1.165   1.204   1.161  0.00  0.00    +0.250 A 
ATOM     10  N   LIG    1        0.217   2.103   1.232  0.00  0.00    -0.290 NA
ATOM     11  N   LIG    1       -1.013   1.465   1.029  0.00  0.00    -0.390 N 
BRANCH  11  12
ATOM     12  C   LIG    1       -2.329   2.111   1.023  0.00  0.00    +0.340 C 
BRANCH  12  13
ATOM     13  C   LIG    1       -2.907   2.103   2.439  0.00  0.00    -0.040 C 
ATOM     14  C   LIG    1       -4.237   2.888   2.485  0.00  0.00    +0.020 C 
ATOM     15  C   LIG    1       -5.279   1.836   2.922  0.00  0.00    +0.200 C 
ATOM     16  O   LIG    1       -4.516   0.829   3.623  0.00  0.00    -0.370 OA
ATOM     17  C   LIG    1       -3.303   0.669   2.855  0.00  0.00    +0.190 C 
ENDBRANCH  12  13
ENDBRANCH  11  12
ENDBRANCH   5   7
BRANCH   3  18
ATOM     18  C   LIG    1       -1.850  -4.442  -0.115  0.00  0.00    +0.210 C 
ATOM     19  C   LIG    1       -1.378  -4.633  -1.567  0.00  0.00    +0.040 C 
ATOM     20  C   LIG    1       -2.842  -4.947  -1.918  0.00  0.00    +0.020 C 
ATOM     21  C   LIG    1       -3.017  -5.384  -0.454  0.00  0.00    +0.050 C 
BRANCH  18  22
ATOM     22  C   LIG    1       -0.899  -5.004   0.909  0.00  0.00    -0.170 A 
ATOM     23  C   LIG    1        0.463  -4.795   0.778  0.00  0.00    +0.200 A 
ATOM     24  C   LIG    1        1.336  -5.306   1.724  0.00  0.00    -0.040 A 
ATOM     25  C   LIG    1        0.849  -6.035   2.792  0.00  0.00    +0.090 A 
ATOM     26  C   LIG    1       -0.510  -6.250   2.921  0.00  0.00    -0.040 A 
ATOM     27  F   LIG    1        0.941  -4.087  -0.269  0.00  0.00    -0.100 F 
ATOM     28  C   LIG    1       -1.386  -5.734   1.980  0.00  0.00    +0.140 A 
ATOM     29  F   LIG    1       -2.714  -5.943   2.106  0.00  0.00    -0.130 F 
ENDBRANCH  18  22
ENDBRANCH   3  18
TORSDOF 5
