REMARK  Name = ZINCkj000005lqW8.0
REMARK                            x       y       z     vdW  Elec       q    Type
REMARK                         _______ _______ _______ _____ _____    ______ ____
ROOT
ATOM      1  C   LIG    1        0.642  -0.961  -2.235  0.00  0.00    +0.530 C 
ATOM      2  N   LIG    1        1.418  -1.784  -2.969  0.00  0.00    -0.620 N 
ATOM      3  C   LIG    1        0.960  -2.297  -4.269  0.00  0.00    +0.310 C 
ATOM      4  C   LIG    1        1.891  -1.766  -5.372  0.00  0.00    +0.320 C 
ATOM      5  N   LIG    1        3.284  -1.931  -4.949  0.00  0.00    -0.360 N 
ATOM      6  N   LIG    1        4.423  -1.921  -5.758  0.00  0.00    -0.270 NA
ATOM      7  C   LIG    1        5.471  -2.091  -4.992  0.00  0.00    +0.280 A 
ATOM      8  C   LIG    1        5.031  -2.218  -3.667  0.00  0.00    -0.230 A 
ATOM      9 BR   LIG    1        6.127  -2.479  -2.149  0.00  0.00    -0.010 Br
ATOM     10  C   LIG    1        3.688  -2.120  -3.670  0.00  0.00    +0.100 A 
ATOM     11  C   LIG    1        2.749  -2.201  -2.490  0.00  0.00    +0.400 C 
ATOM     12  O   LIG    1       -0.483  -0.700  -2.604  0.00  0.00    -0.530 OA
ENDROOT
BRANCH   1  17
ATOM     13  C   LIG    1        0.057   2.481   1.139  0.00  0.00    +0.190 C 
ATOM     14  C   LIG    1        1.029   3.187   0.133  0.00  0.00    +0.110 C 
ATOM     15  C   LIG    1        1.542   1.786   0.001  0.00  0.00    -0.020 C 
ATOM     16  C   LIG    1        1.887   0.994  -1.245  0.00  0.00    +0.080 C 
ATOM     17  C   LIG    1        1.174  -0.366  -0.957  0.00  0.00    -0.010 C 
ATOM     18  C   LIG    1        0.000  -0.005   0.002  0.00  0.00    +0.080 C 
ATOM     19  C   LIG    1       -0.018   1.502   0.012  0.00  0.00    -0.050 C 
BRANCH  13  20
ATOM     20  N   LIG    1       -1.191   3.211   1.399  0.00  0.00    -0.630 N 
ATOM     21  H   LIG    1       -1.453   3.732   0.576  0.00  0.00    +0.430 HD
ATOM     22  H   LIG    1       -1.054   3.846   2.171  0.00  0.00    +0.440 HD
ATOM     23  H   LIG    1       -1.922   2.555   1.630  0.00  0.00    +0.440 HD
ENDBRANCH  13  20
ENDBRANCH   1  17
TORSDOF 2
