REMARK  Name = ZINCqH0000005kq1.0
REMARK                            x       y       z     vdW  Elec       q    Type
REMARK                         _______ _______ _______ _____ _____    ______ ____
ROOT
ATOM      1  C   LIG    1       -4.270  -0.481  -0.386  0.00  0.00    +0.250 C 
ATOM      2  C   LIG    1       -5.083  -0.797   0.871  0.00  0.00    +0.010 C 
ATOM      3  C   LIG    1       -5.711   0.494   1.406  0.00  0.00    +0.280 C 
ATOM      4  N   LIG    1       -6.486   1.125   0.329  0.00  0.00    -0.600 N 
ATOM      5  C   LIG    1       -5.824   1.390  -0.955  0.00  0.00    +0.300 C 
ATOM      6  C   LIG    1       -7.779   1.454   0.516  0.00  0.00    +0.600 C 
ATOM      7  O   LIG    1       -8.442   1.869  -0.416  0.00  0.00    -0.530 OA
ATOM      8  C   LIG    1       -5.194   0.089  -1.464  0.00  0.00    +0.000 C 
ENDROOT
BRANCH   6   9
ATOM      9  C   LIG    1       -8.389   1.310   1.842  0.00  0.00    -0.300 A 
ATOM     10  C   LIG    1       -7.766   1.498   3.033  0.00  0.00    +0.280 A 
ATOM     11  N   LIG    1       -8.534   1.308   4.076  0.00  0.00    -0.450 NA
ATOM     12  C   LIG    1       -9.764   0.971   3.856  0.00  0.00    +0.040 A 
ATOM     13  S   LIG    1      -10.062   0.871   2.175  0.00  0.00    +0.240 S 
BRANCH  12  14
ATOM     14  C   LIG    1      -10.790   0.711   4.928  0.00  0.00    +0.240 C 
ATOM     15  C   LIG    1      -10.525  -0.657   5.586  0.00  0.00    +0.030 C 
ATOM     16  C   LIG    1      -10.316  -0.324   7.083  0.00  0.00    +0.020 C 
ATOM     17  C   LIG    1      -11.004   1.060   7.207  0.00  0.00    +0.210 C 
ATOM     18  O   LIG    1      -10.684   1.708   5.958  0.00  0.00    -0.350 OA
ENDBRANCH  12  14
ENDBRANCH   6   9
BRANCH   1  20
ATOM     19  C   LIG    1       -4.471  -2.813  -1.367  0.00  0.00    +0.280 C 
ATOM     20  N   LIG    1       -3.640  -1.708  -0.882  0.00  0.00    -0.630 N 
BRANCH  20  21
ATOM     21  C   LIG    1       -2.249  -1.823  -0.892  0.00  0.00    +0.220 A 
ATOM     22  C   LIG    1       -1.457  -0.737  -0.544  0.00  0.00    -0.080 A 
ATOM     23  C   LIG    1       -0.081  -0.856  -0.550  0.00  0.00    +0.050 A 
ATOM     24  C   LIG    1        0.509  -2.055  -0.908  0.00  0.00    -0.060 A 
ATOM     25  C   LIG    1       -0.276  -3.137  -1.261  0.00  0.00    +0.050 A 
ATOM     26  C   LIG    1       -1.653  -3.024  -1.257  0.00  0.00    -0.080 A 
ENDBRANCH  20  21
ENDBRANCH   1  20
TORSDOF 4
