REMARK  Name = ZINCrD0000072mj0.0
REMARK                            x       y       z     vdW  Elec       q    Type
REMARK                         _______ _______ _______ _____ _____    ______ ____
ROOT
ATOM      1  N   LIG    1        8.118   2.725  -2.777  0.00  0.00    -0.670 N 
ATOM      2  H   LIG    1        8.630   3.139  -3.489  0.00  0.00    +0.410 HD
ATOM      3  C   LIG    1        6.894   2.222  -3.031  0.00  0.00    +0.520 C 
ATOM      4  O   LIG    1        6.304   1.597  -2.175  0.00  0.00    -0.490 OA
ENDROOT
BRANCH   1  10
ATOM      5  C   LIG    1        8.038   3.329  -0.439  0.00  0.00    -0.060 A 
ATOM      6  C   LIG    1        8.563   3.249   0.836  0.00  0.00    +0.010 A 
ATOM      7  C   LIG    1        9.703   2.502   1.069  0.00  0.00    +0.020 A 
ATOM      8  C   LIG    1       10.318   1.828   0.030  0.00  0.00    +0.010 A 
ATOM      9  C   LIG    1        9.795   1.900  -1.246  0.00  0.00    -0.080 A 
ATOM     10  C   LIG    1        8.650   2.650  -1.485  0.00  0.00    +0.130 A 
BRANCH   5  12
ATOM     11  C   LIG    1        6.226   4.635   0.638  0.00  0.00    +0.030 C 
ATOM     12  C   LIG    1        6.799   4.148  -0.695  0.00  0.00    +0.060 C 
ENDBRANCH   5  12
BRANCH   9  13
ATOM     13  C   LIG    1       10.465   1.166  -2.379  0.00  0.00    +0.060 C 
ATOM     14  C   LIG    1       11.416   2.115  -3.110  0.00  0.00    +0.020 C 
ENDBRANCH   9  13
ENDBRANCH   1  10
BRANCH   3  15
ATOM     15  C   LIG    1        6.257   2.435  -4.381  0.00  0.00    +0.270 C 
BRANCH  15  16
ATOM     16  O   LIG    1        4.951   1.802  -4.405  0.00  0.00    -0.330 OA
BRANCH  16  17
ATOM     17  C   LIG    1        4.245   1.900  -5.548  0.00  0.00    +0.510 C 
ATOM     18  O   LIG    1        4.707   2.499  -6.498  0.00  0.00    -0.490 OA
BRANCH  17  19
ATOM     19  C   LIG    1        2.905   1.279  -5.646  0.00  0.00    -0.090 A 
ATOM     20  C   LIG    1        2.174   1.382  -6.830  0.00  0.00    +0.080 A 
ATOM     21  C   LIG    1        0.924   0.808  -6.920  0.00  0.00    +0.080 A 
ATOM     22  C   LIG    1        0.394   0.115  -5.830  0.00  0.00    -0.090 A 
ATOM     23  C   LIG    1        1.126   0.013  -4.645  0.00  0.00    +0.080 A 
ATOM     24  C   LIG    1        2.373   0.592  -4.554  0.00  0.00    +0.080 A 
BRANCH  22  25
ATOM     25  C   LIG    1       -0.945  -0.506  -5.928  0.00  0.00    +0.510 C 
ATOM     26  O   LIG    1       -1.408  -1.104  -4.978  0.00  0.00    -0.500 OA
BRANCH  25  27
ATOM     27  O   LIG    1       -1.651  -0.407  -7.071  0.00  0.00    -0.350 OA
ATOM     28  C   LIG    1       -2.957  -1.041  -7.095  0.00  0.00    +0.290 C 
ENDBRANCH  25  27
ENDBRANCH  22  25
ENDBRANCH  17  19
ENDBRANCH  16  17
ENDBRANCH  15  16
ENDBRANCH   3  15
TORSDOF 9
