REMARK  Name = ZINCqH0000004a7r.0
REMARK                            x       y       z     vdW  Elec       q    Type
REMARK                         _______ _______ _______ _____ _____    ______ ____
ROOT
ATOM      1  C   LIG    1        5.911  -0.933  -0.360  0.00  0.00    +0.600 C 
ATOM      2  N   LIG    1        4.742  -0.272  -0.245  0.00  0.00    -0.530 N 
ATOM      3  H   LIG    1        3.911  -0.767  -0.166  0.00  0.00    +0.420 HD
ATOM      4  O   LIG    1        6.953  -0.313  -0.459  0.00  0.00    -0.520 OA
ENDROOT
BRANCH   1  11
ATOM      5  C   LIG    1        7.319  -6.929  -0.083  0.00  0.00    -0.010 C 
ATOM      6  C   LIG    1        6.000  -7.218  -0.806  0.00  0.00    +0.040 C 
ATOM      7  C   LIG    1        4.926  -6.259  -0.284  0.00  0.00    +0.120 C 
ATOM      8  C   LIG    1        5.471  -4.844  -0.332  0.00  0.00    -0.180 A 
ATOM      9  C   LIG    1        6.782  -4.535  -0.457  0.00  0.00    -0.120 A 
ATOM     10  C   LIG    1        7.038  -3.176  -0.483  0.00  0.00    +0.130 A 
ATOM     11  C   LIG    1        5.926  -2.399  -0.367  0.00  0.00    -0.280 A 
ATOM     12  S   LIG    1        4.513  -3.433  -0.235  0.00  0.00    +0.190 S 
ATOM     13  C   LIG    1        7.876  -5.589  -0.566  0.00  0.00    +0.110 C 
BRANCH   5  15
ATOM     14  C   LIG    1        9.599  -7.815   0.425  0.00  0.00    +0.000 C 
ATOM     15  C   LIG    1        8.324  -8.041  -0.390  0.00  0.00    +0.000 C 
ENDBRANCH   5  15
ENDBRANCH   1  11
BRANCH   2  16
ATOM     16  N   LIG    1        4.727   1.129  -0.238  0.00  0.00    -0.520 N 
ATOM     17  H   LIG    1        5.558   1.623  -0.317  0.00  0.00    +0.450 HD
ATOM     18  C   LIG    1        3.558   1.790  -0.123  0.00  0.00    +0.710 C 
ATOM     19  N   LIG    1        2.403   1.103  -0.014  0.00  0.00    -0.680 N 
ATOM     20  H   LIG    1        2.419   0.135   0.049  0.00  0.00    +0.400 HD
ATOM     21  O   LIG    1        3.545   3.005  -0.117  0.00  0.00    -0.550 OA
BRANCH  19  22
ATOM     22  C   LIG    1        1.181   1.787   0.008  0.00  0.00    +0.120 A 
ATOM     23  C   LIG    1        0.059   1.224  -0.587  0.00  0.00    +0.030 A 
ATOM     24  C   LIG    1       -1.144   1.901  -0.569  0.00  0.00    -0.060 A 
ATOM     25  C   LIG    1       -1.236   3.138   0.052  0.00  0.00    +0.120 A 
ATOM     26  C   LIG    1       -0.116   3.701   0.646  0.00  0.00    +0.010 A 
ATOM     27  C   LIG    1        1.090   3.027   0.625  0.00  0.00    +0.070 A 
BRANCH  25  28
ATOM     28  O   LIG    1       -2.422   3.802   0.073  0.00  0.00    -0.320 OA
ATOM     29  C   LIG    1       -3.534   3.164  -0.558  0.00  0.00    +0.250 C 
ENDBRANCH  25  28
ENDBRANCH  19  22
ENDBRANCH   2  16
TORSDOF 5
