REMARK  Name = ZINCpe00000gLU9d.0
REMARK                            x       y       z     vdW  Elec       q    Type
REMARK                         _______ _______ _______ _____ _____    ______ ____
ROOT
ATOM      1  C   LIG    1        0.137   2.318  -6.874  0.00  0.00    -0.240 C 
ATOM      2  C   LIG    1       -0.413   1.309  -6.164  0.00  0.00    +0.200 C 
ATOM      3  N   LIG    1       -1.628   0.788  -6.506  0.00  0.00    -0.640 N 
ATOM      4  H   LIG    1       -1.986   0.067  -5.964  0.00  0.00    +0.430 HD
ATOM      5  C   LIG    1       -2.354   1.216  -7.546  0.00  0.00    +0.710 C 
ATOM      6  N   LIG    1       -1.935   2.211  -8.352  0.00  0.00    -0.720 N 
ATOM      7  H   LIG    1       -2.476   2.506  -9.101  0.00  0.00    +0.440 HD
ATOM      8  O   LIG    1       -3.426   0.689  -7.772  0.00  0.00    -0.560 OA
ATOM      9  C   LIG    1       -0.634   2.842  -8.068  0.00  0.00    +0.340 C 
ENDROOT
BRANCH   1  10
ATOM     10  C   LIG    1        1.393   2.863  -6.518  0.00  0.00    +0.540 C 
ATOM     11  O   LIG    1        1.448   3.912  -5.904  0.00  0.00    -0.480 OA
BRANCH  10  12
ATOM     12  O   LIG    1        2.529   2.219  -6.859  0.00  0.00    -0.350 OA
BRANCH  12  14
ATOM     13  C   LIG    1        4.930   1.959  -6.938  0.00  0.00    +0.070 C 
ATOM     14  C   LIG    1        3.761   2.827  -6.467  0.00  0.00    +0.200 C 
ENDBRANCH  12  14
ENDBRANCH  10  12
ENDBRANCH   1  10
BRANCH   2  15
ATOM     15  C   LIG    1        0.323   0.754  -4.972  0.00  0.00    +0.300 C 
BRANCH  15  16
ATOM     16  O   LIG    1       -0.437   1.027  -3.764  0.00  0.00    -0.350 OA
BRANCH  16  17
ATOM     17  C   LIG    1        0.085   0.595  -2.606  0.00  0.00    +0.470 C 
ATOM     18  O   LIG    1        1.142   0.009  -2.600  0.00  0.00    -0.500 OA
BRANCH  17  19
ATOM     19  C   LIG    1       -0.646   0.841  -1.312  0.00  0.00    +0.110 C 
BRANCH  19  20
ATOM     20  C   LIG    1        0.158   0.252  -0.151  0.00  0.00    +0.150 C 
BRANCH  20  21
ATOM     21  C   LIG    1       -0.573   0.498   1.143  0.00  0.00    -0.210 A 
ATOM     22  C   LIG    1       -0.460   1.560   1.977  0.00  0.00    -0.020 A 
ATOM     23  O   LIG    1       -1.306   1.337   2.993  0.00  0.00    +0.100 OA
ATOM     24  N   LIG    1       -1.889   0.286   2.863  0.00  0.00    -0.360 NA
ATOM     25  C   LIG    1        0.439   2.756   1.797  0.00  0.00    +0.190 C 
ATOM     26  C   LIG    1       -1.533  -0.328   1.772  0.00  0.00    +0.030 A 
ATOM     27  C   LIG    1       -2.043  -1.657   1.276  0.00  0.00    +0.160 C 
ENDBRANCH  20  21
ENDBRANCH  19  20
ENDBRANCH  17  19
ENDBRANCH  16  17
ENDBRANCH  15  16
ENDBRANCH   2  15
TORSDOF 9
