REMARK  Name = ZINCrD00000F5Lrk.0
REMARK                            x       y       z     vdW  Elec       q    Type
REMARK                         _______ _______ _______ _____ _____    ______ ____
ROOT
ATOM      1  C   LIG    1        0.001   1.297   2.545  0.00  0.00    +0.150 A 
ATOM      2  C   LIG    1       -0.276   1.619   3.862  0.00  0.00    +0.110 A 
ATOM      3  N   LIG    1        0.700   1.110   4.627  0.00  0.00    -0.440 NA
ATOM      4  C   LIG    1        1.583   0.490   3.857  0.00  0.00    +0.210 A 
ATOM      5  C   LIG    1        2.771  -0.192   4.173  0.00  0.00    +0.170 A 
ATOM      6  C   LIG    1        3.518  -0.759   3.151  0.00  0.00    -0.020 A 
ATOM      7  C   LIG    1        3.042  -0.628   1.772  0.00  0.00    +0.060 A 
ATOM      8  C   LIG    1        1.900   0.035   1.526  0.00  0.00    +0.080 A 
ATOM      9  C   LIG    1        1.411   0.169   0.107  0.00  0.00    +0.130 C 
ATOM     10  N   LIG    1        1.171   0.591   2.547  0.00  0.00    -0.380 N 
ENDROOT
BRANCH   2  11
ATOM     11  C   LIG    1       -1.447   2.389   4.342  0.00  0.00    -0.060 A 
ATOM     12  C   LIG    1       -1.991   3.400   3.551  0.00  0.00    +0.090 A 
ATOM     13  C   LIG    1       -3.084   4.112   3.999  0.00  0.00    -0.080 A 
ATOM     14  C   LIG    1       -3.637   3.829   5.241  0.00  0.00    +0.140 A 
ATOM     15  C   LIG    1       -3.095   2.826   6.033  0.00  0.00    -0.020 A 
ATOM     16  C   LIG    1       -2.006   2.107   5.589  0.00  0.00    +0.090 A 
BRANCH  14  17
ATOM     17  O   LIG    1       -4.711   4.536   5.682  0.00  0.00    -0.310 OA
BRANCH  17  18
ATOM     18  C   LIG    1       -5.217   5.554   4.816  0.00  0.00    +0.210 C 
BRANCH  18  19
ATOM     19  C   LIG    1       -6.417   6.236   5.478  0.00  0.00    +0.210 C 
BRANCH  19  20
ATOM     20  O   LIG    1       -5.985   6.921   6.655  0.00  0.00    -0.570 OA
ATOM     21  H   LIG    1       -6.695   7.378   7.127  0.00  0.00    +0.380 HD
ENDBRANCH  19  20
ENDBRANCH  18  19
ENDBRANCH  17  18
ENDBRANCH  14  17
ENDBRANCH   2  11
BRANCH   1  22
ATOM     22  N   LIG    1       -0.763   1.632   1.431  0.00  0.00    -0.590 N 
ATOM     23  H   LIG    1       -0.277   1.403   0.577  0.00  0.00    +0.360 HD
BRANCH  22  24
ATOM     24  C   LIG    1       -2.079   0.981   1.479  0.00  0.00    +0.220 C 
BRANCH  24  25
ATOM     25  C   LIG    1       -2.828   1.247   0.172  0.00  0.00    +0.090 C 
BRANCH  25  27
ATOM     26  C   LIG    1       -5.176   0.865  -1.378  0.00  0.00    +0.140 C 
ATOM     27  S   LIG    1       -4.453   0.443   0.231  0.00  0.00    -0.240 S 
ENDBRANCH  25  27
ENDBRANCH  24  25
ENDBRANCH  22  24
ENDBRANCH   1  22
BRANCH   6  28
ATOM     28  C   LIG    1        4.733  -1.460   3.440  0.00  0.00    +0.260 C 
ATOM     29  N   LIG    1        5.697  -2.017   3.668  0.00  0.00    -0.400 NA
ENDBRANCH   6  28
TORSDOF 10
