REMARK  Name = ZINCtV00001bB3bR.0
REMARK                            x       y       z     vdW  Elec       q    Type
REMARK                         _______ _______ _______ _____ _____    ______ ____
ROOT
ATOM      1  C   LIG    1       -0.002   1.212  -0.163  0.00  0.00    +0.610 C 
ATOM      2  N   LIG    1        1.143   1.902   0.001  0.00  0.00    -0.660 N 
ATOM      3  H   LIG    1        1.123   2.870   0.057  0.00  0.00    +0.420 HD
ATOM      4  O   LIG    1        0.032   0.007  -0.329  0.00  0.00    -0.490 OA
ENDROOT
BRANCH   1  10
ATOM      5  C   LIG    1       -5.534   3.663  -0.177  0.00  0.00    +0.110 A 
ATOM      6  C   LIG    1       -4.802   4.828   0.032  0.00  0.00    -0.010 A 
ATOM      7  C   LIG    1       -3.428   4.790   0.115  0.00  0.00    +0.070 A 
ATOM      8  C   LIG    1       -2.756   3.580  -0.010  0.00  0.00    +0.050 A 
ATOM      9  O   LIG    1       -1.451   3.243   0.027  0.00  0.00    -0.180 OA
ATOM     10  C   LIG    1       -1.292   1.915  -0.148  0.00  0.00    -0.040 A 
ATOM     11  C   LIG    1       -2.505   1.326  -0.313  0.00  0.00    -0.060 A 
ATOM     12  C   LIG    1       -2.778  -0.139  -0.542  0.00  0.00    +0.140 C 
ATOM     13  C   LIG    1       -3.493   2.400  -0.222  0.00  0.00    -0.110 A 
ATOM     14  C   LIG    1       -4.887   2.450  -0.304  0.00  0.00    +0.040 A 
BRANCH   5  16
ATOM     15  C   LIG    1       -7.496   5.006  -0.117  0.00  0.00    +0.240 C 
ATOM     16  O   LIG    1       -6.890   3.719  -0.257  0.00  0.00    -0.310 OA
ENDBRANCH   5  16
ENDBRANCH   1  10
BRANCH   2  17
ATOM     17  C   LIG    1        2.359   1.225   0.091  0.00  0.00    +0.180 A 
ATOM     18  C   LIG    1        2.413  -0.027   0.697  0.00  0.00    +0.010 A 
ATOM     19  C   LIG    1        3.610  -0.701   0.784  0.00  0.00    +0.070 A 
ATOM     20  C   LIG    1        4.776  -0.121   0.272  0.00  0.00    +0.030 A 
ATOM     21  C   LIG    1        4.718   1.140  -0.332  0.00  0.00    +0.110 A 
ATOM     22  C   LIG    1        3.516   1.805  -0.420  0.00  0.00    -0.010 A 
BRANCH  20  23
ATOM     23  N   LIG    1        5.965  -0.784   0.360  0.00  0.00    -0.210 NA
ATOM     24  N   LIG    1        6.016  -1.946   0.917  0.00  0.00    -0.220 NA
BRANCH  24  25
ATOM     25  C   LIG    1        7.208  -2.610   1.006  0.00  0.00    +0.040 A 
ATOM     26  C   LIG    1        8.372  -2.035   0.489  0.00  0.00    +0.040 A 
ATOM     27  C   LIG    1        9.572  -2.708   0.587  0.00  0.00    +0.000 A 
ATOM     28  C   LIG    1        9.623  -3.955   1.185  0.00  0.00    +0.040 A 
ATOM     29  C   LIG    1        8.473  -4.533   1.694  0.00  0.00    +0.000 A 
ATOM     30  C   LIG    1        7.267  -3.870   1.608  0.00  0.00    +0.080 A 
ENDBRANCH  24  25
ENDBRANCH  20  23
ENDBRANCH   2  17
TORSDOF 5
