REMARK  Name = ZINCpe00000RauX3.0
REMARK                            x       y       z     vdW  Elec       q    Type
REMARK                         _______ _______ _______ _____ _____    ______ ____
ROOT
ATOM      1  C   LIG    1       -3.594  -2.483   2.637  0.00  0.00    +0.610 C 
ATOM      2  N   LIG    1       -3.499  -1.414   1.821  0.00  0.00    -0.600 N 
ATOM      3  C   LIG    1       -4.588  -1.074   0.893  0.00  0.00    +0.310 C 
ATOM      4  C   LIG    1       -3.995  -0.896  -0.509  0.00  0.00    +0.190 C 
ATOM      5  N   LIG    1       -2.899   0.080  -0.453  0.00  0.00    -0.530 NA
ATOM      6  C   LIG    1       -1.801  -0.400   0.397  0.00  0.00    +0.260 C 
ATOM      7  C   LIG    1       -2.416   0.407  -1.801  0.00  0.00    +0.190 C 
ATOM      8  C   LIG    1       -2.304  -0.558   1.836  0.00  0.00    +0.330 C 
ATOM      9  O   LIG    1       -4.617  -3.140   2.662  0.00  0.00    -0.510 OA
ENDROOT
BRANCH   1  12
ATOM     10  C   LIG    1       -1.169  -3.990   4.935  0.00  0.00    +0.280 A 
ATOM     11  C   LIG    1       -2.368  -4.014   4.302  0.00  0.00    -0.060 A 
ATOM     12  C   LIG    1       -2.456  -2.856   3.501  0.00  0.00    +0.060 A 
ATOM     13  N   LIG    1       -1.346  -2.163   3.662  0.00  0.00    -0.260 NA
ATOM     14  N   LIG    1       -0.523  -2.856   4.559  0.00  0.00    -0.390 N 
ATOM     15  C   LIG    1        0.804  -2.432   5.012  0.00  0.00    +0.350 C 
BRANCH  10  17
ATOM     16  C   LIG    1        0.635  -4.762   6.275  0.00  0.00    +0.250 C 
ATOM     17  O   LIG    1       -0.701  -4.929   5.796  0.00  0.00    -0.290 OA
ENDBRANCH  10  17
ENDBRANCH   1  12
BRANCH   6  18
ATOM     18  C   LIG    1       -0.669   0.595   0.366  0.00  0.00    +0.190 A 
ATOM     19  N   LIG    1        0.606   0.323   0.229  0.00  0.00    -0.470 NA
ATOM     20  C   LIG    1        1.235   1.511   0.258  0.00  0.00    +0.200 A 
ATOM     21  N   LIG    1        0.327   2.428   0.408  0.00  0.00    -0.380 NA
ATOM     22  O   LIG    1       -0.774   1.923   0.473  0.00  0.00    +0.100 OA
BRANCH  20  23
ATOM     23  C   LIG    1        2.720   1.738   0.138  0.00  0.00    +0.060 C 
ATOM     24  C   LIG    1        3.242   3.152   0.398  0.00  0.00    +0.050 C 
ATOM     25  C   LIG    1        3.211   2.599  -1.028  0.00  0.00    +0.050 C 
ENDBRANCH  20  23
ENDBRANCH   6  18
TORSDOF 4
