REMARK  Name = ZINCrg00000yaFS9.0
REMARK                            x       y       z     vdW  Elec       q    Type
REMARK                         _______ _______ _______ _____ _____    ______ ____
ROOT
ATOM      1  C   LIG    1        1.135  -0.630   0.651  0.00  0.00    +0.180 C 
ENDROOT
BRANCH   1   2
ATOM      2  O   LIG    1        2.095  -0.887  -0.375  0.00  0.00    -0.540 OA
ATOM      3  H   LIG    1        1.738  -0.825  -1.272  0.00  0.00    +0.380 HD
ENDBRANCH   1   2
BRANCH   1   4
ATOM      4  C   LIG    1        0.577   0.785   0.485  0.00  0.00    +0.270 C 
BRANCH   4   6
ATOM      5  C   LIG    1        2.338   2.132  -0.523  0.00  0.00    +0.510 C 
ATOM      6  N   LIG    1        1.669   1.755   0.584  0.00  0.00    -0.610 N 
ATOM      7  C   LIG    1        2.035   2.317   1.887  0.00  0.00    +0.270 C 
ATOM      8  O   LIG    1        2.097   1.603  -1.587  0.00  0.00    -0.510 OA
BRANCH   5   9
ATOM      9  C   LIG    1        3.387   3.211  -0.440  0.00  0.00    +0.170 C 
BRANCH   9  10
ATOM     10  C   LIG    1        2.720   4.545  -0.095  0.00  0.00    +0.020 C 
ATOM     11  C   LIG    1        3.793   5.621   0.081  0.00  0.00    +0.020 C 
ENDBRANCH   9  10
BRANCH   9  12
ATOM     12  O   LIG    1        4.056   3.325  -1.697  0.00  0.00    -0.350 OA
BRANCH  12  14
ATOM     13  C   LIG    1        6.084   3.609  -2.980  0.00  0.00    +0.050 C 
ATOM     14  C   LIG    1        5.481   3.354  -1.597  0.00  0.00    +0.150 C 
ENDBRANCH  12  14
ENDBRANCH   9  12
ENDBRANCH   5   9
ENDBRANCH   4   6
ENDBRANCH   1   4
BRANCH   1  15
ATOM     15  C   LIG    1       -0.006  -1.644   0.548  0.00  0.00    +0.260 C 
BRANCH  15  16
ATOM     16  N   LIG    1        0.508  -2.988   0.825  0.00  0.00    -0.600 N 
ATOM     17  C   LIG    1        0.976  -3.751  -0.182  0.00  0.00    +0.580 C 
ATOM     18  O   LIG    1        1.058  -3.293  -1.305  0.00  0.00    -0.510 OA
ATOM     19  C   LIG    1        0.512  -3.502   2.197  0.00  0.00    +0.280 C 
BRANCH  17  20
ATOM     20  C   LIG    1        1.389  -5.141   0.078  0.00  0.00    -0.120 A 
ATOM     21  C   LIG    1        0.446  -6.139   0.285  0.00  0.00    +0.110 A 
ATOM     22  C   LIG    1        0.878  -7.446   0.525  0.00  0.00    -0.010 A 
ATOM     23  C   LIG    1        2.192  -7.754   0.567  0.00  0.00    +0.300 A 
ATOM     24  N   LIG    1        3.156  -6.810   0.376  0.00  0.00    -0.280 N 
ATOM     25  N   LIG    1        4.555  -6.874   0.372  0.00  0.00    -0.310 NA
ATOM     26  C   LIG    1        5.035  -5.674   0.137  0.00  0.00    +0.280 A 
ATOM     27  C   LIG    1        3.977  -4.788  -0.019  0.00  0.00    -0.110 A 
ATOM     28  C   LIG    1        2.806  -5.506   0.131  0.00  0.00    +0.120 A 
ENDBRANCH  17  20
ENDBRANCH  15  16
ENDBRANCH   1  15
TORSDOF 10
