REMARK  Name = ZINCrH000004kLMF.0
REMARK                            x       y       z     vdW  Elec       q    Type
REMARK                         _______ _______ _______ _____ _____    ______ ____
ROOT
ATOM      1  C   LIG    1       -2.521  -0.103  -1.224  0.00  0.00    -0.200 A 
ATOM      2  C   LIG    1       -1.614  -0.205  -0.183  0.00  0.00    +0.140 A 
ATOM      3  N   LIG    1       -2.264  -0.621   0.914  0.00  0.00    -0.510 N 
ATOM      4  H   LIG    1       -1.859  -0.776   1.781  0.00  0.00    +0.420 HD
ATOM      5  C   LIG    1       -3.601  -0.788   0.615  0.00  0.00    -0.090 A 
ATOM      6  C   LIG    1       -3.784  -0.474  -0.714  0.00  0.00    -0.010 A 
ATOM      7  C   LIG    1       -5.083  -0.518  -1.477  0.00  0.00    +0.140 C 
ENDROOT
BRANCH   5   8
ATOM      8  C   LIG    1       -4.607  -1.213   1.516  0.00  0.00    +0.420 C 
ATOM      9  O   LIG    1       -5.754  -1.328   1.134  0.00  0.00    -0.450 OA
ATOM     10  C   LIG    1       -4.255  -1.522   2.948  0.00  0.00    +0.060 C 
ENDBRANCH   5   8
BRANCH   1  11
ATOM     11  C   LIG    1       -2.224   0.315  -2.604  0.00  0.00    +0.550 C 
ATOM     12  O   LIG    1       -1.913  -0.514  -3.437  0.00  0.00    -0.500 OA
BRANCH  11  14
ATOM     13  C   LIG    1       -1.992   1.956  -4.323  0.00  0.00    +0.250 C 
ATOM     14  O   LIG    1       -2.298   1.617  -2.945  0.00  0.00    -0.340 OA
ENDBRANCH  11  14
ENDBRANCH   1  11
BRANCH   2  15
ATOM     15  C   LIG    1       -0.140   0.094  -0.271  0.00  0.00    +0.140 C 
BRANCH  15  16
ATOM     16  C   LIG    1        0.086   1.570  -0.067  0.00  0.00    +0.520 C 
ATOM     17  N   LIG    1        1.341   2.056   0.008  0.00  0.00    -0.600 N 
ATOM     18  O   LIG    1       -0.862   2.322   0.025  0.00  0.00    -0.510 OA
BRANCH  17  19
ATOM     19  C   LIG    1        2.484   1.171  -0.228  0.00  0.00    +0.280 C 
BRANCH  19  20
ATOM     20  C   LIG    1        2.931   1.292  -1.686  0.00  0.00    -0.090 C 
ATOM     21  C   LIG    1        1.829   0.756  -2.603  0.00  0.00    +0.020 C 
ATOM     22  C   LIG    1        4.210   0.479  -1.897  0.00  0.00    +0.040 C 
ATOM     23  C   LIG    1        3.200   2.761  -2.017  0.00  0.00    +0.030 C 
ENDBRANCH  19  20
ENDBRANCH  17  19
BRANCH  17  24
ATOM     24  C   LIG    1        1.561   3.470   0.324  0.00  0.00    +0.300 C 
BRANCH  24  25
ATOM     25  C   LIG    1        1.679   3.641   1.840  0.00  0.00    -0.080 C 
ATOM     26  C   LIG    1        0.388   3.164   2.509  0.00  0.00    +0.030 C 
ATOM     27  C   LIG    1        1.909   5.117   2.170  0.00  0.00    +0.040 C 
ATOM     28  C   LIG    1        2.857   2.813   2.357  0.00  0.00    +0.020 C 
ENDBRANCH  24  25
ENDBRANCH  17  24
ENDBRANCH  15  16
ENDBRANCH   2  15
TORSDOF 9
