REMARK  Name = ZINCqH0000005gis.0
REMARK                            x       y       z     vdW  Elec       q    Type
REMARK                         _______ _______ _______ _____ _____    ______ ____
ROOT
ATOM      1  C   LIG    1        0.160   4.575  -0.311  0.00  0.00    -0.070 A 
ATOM      2  C   LIG    1        1.424   3.991  -0.396  0.00  0.00    +0.030 A 
ATOM      3  C   LIG    1        1.541   2.628  -0.572  0.00  0.00    +0.130 A 
ATOM      4  C   LIG    1        0.407   1.839  -0.664  0.00  0.00    -0.660 A 
ATOM      5  C   LIG    1       -0.850   2.413  -0.586  0.00  0.00    +0.130 A 
ATOM      6  C   LIG    1       -0.980   3.774  -0.404  0.00  0.00    +0.060 A 
ENDROOT
BRANCH   1   9
ATOM      7  C   LIG    1        1.990   5.971   1.320  0.00  0.00    +0.290 C 
ATOM      8  N   LIG    1        0.874   6.688   0.699  0.00  0.00    -0.610 N 
ATOM      9  C   LIG    1        0.027   6.035  -0.122  0.00  0.00    +0.560 C 
ATOM     10  O   LIG    1       -0.845   6.647  -0.707  0.00  0.00    -0.520 OA
BRANCH   8  11
ATOM     11  C   LIG    1        0.678   8.114   0.969  0.00  0.00    +0.350 C 
BRANCH  11  12
ATOM     12  C   LIG    1       -0.215   8.279   2.172  0.00  0.00    -0.100 A 
ATOM     13  C   LIG    1       -1.585   8.364   2.009  0.00  0.00    +0.060 A 
ATOM     14  C   LIG    1       -2.406   8.509   3.112  0.00  0.00    +0.050 A 
ATOM     15  C   LIG    1       -1.856   8.582   4.378  0.00  0.00    -0.030 A 
ATOM     16  C   LIG    1       -0.483   8.503   4.542  0.00  0.00    -0.030 A 
ATOM     17 CL   LIG    1        0.210   8.593   6.131  0.00  0.00    -0.050 Cl
ATOM     18 CL   LIG    1       -2.885   8.772   5.763  0.00  0.00    -0.040 Cl
ATOM     19  C   LIG    1        0.337   8.352   3.438  0.00  0.00    +0.050 A 
ENDBRANCH  11  12
ENDBRANCH   8  11
ENDBRANCH   1   9
BRANCH   4  20
ATOM     20  S   LIG    1        0.565   0.099  -0.889  0.00  0.00    +2.700 S 
ATOM     21  O   LIG    1        1.841  -0.116  -1.476  0.00  0.00    -0.950 OA
ATOM     22  O   LIG    1       -0.648  -0.340  -1.484  0.00  0.00    -0.950 OA
BRANCH  20  23
ATOM     23  N   LIG    1        0.622  -0.587   0.618  0.00  0.00    -1.090 NA
ATOM     24  H   LIG    1        1.426  -1.041   0.914  0.00  0.00    +0.420 HD
BRANCH  23  25
ATOM     25  C   LIG    1       -0.543  -0.508   1.502  0.00  0.00    +0.220 C 
ATOM     26  C   LIG    1       -0.282  -0.400   3.006  0.00  0.00    +0.010 C 
ATOM     27  C   LIG    1       -0.820  -1.704   2.415  0.00  0.00    +0.030 C 
ENDBRANCH  23  25
ENDBRANCH  20  23
ENDBRANCH   4  20
TORSDOF 6
