REMARK  Name = ZINCqH0000008m8l.0
REMARK                            x       y       z     vdW  Elec       q    Type
REMARK                         _______ _______ _______ _____ _____    ______ ____
ROOT
ATOM      1  N   LIG    1        4.068   0.157  -1.701  0.00  0.00    -0.730 N 
ATOM      2  H   LIG    1        4.625  -0.155  -0.970  0.00  0.00    +0.400 HD
ATOM      3  C   LIG    1        2.915   0.804  -1.441  0.00  0.00    +0.520 C 
ATOM      4  O   LIG    1        2.219   1.194  -2.355  0.00  0.00    -0.520 OA
ENDROOT
BRANCH   1   6
ATOM      5  C   LIG    1        3.818  -1.351  -3.610  0.00  0.00    +0.040 C 
ATOM      6  C   LIG    1        4.481  -0.075  -3.087  0.00  0.00    +0.280 C 
BRANCH   6   7
ATOM      7  C   LIG    1        5.979  -0.228  -3.146  0.00  0.00    -0.100 A 
ATOM      8  C   LIG    1        6.641  -0.930  -2.156  0.00  0.00    +0.040 A 
ATOM      9  C   LIG    1        8.014  -1.075  -2.210  0.00  0.00    +0.000 A 
ATOM     10  C   LIG    1        8.730  -0.506  -3.254  0.00  0.00    +0.140 A 
ATOM     11  C   LIG    1        8.063   0.203  -4.244  0.00  0.00    +0.010 A 
ATOM     12  C   LIG    1        6.690   0.341  -4.187  0.00  0.00    +0.060 A 
BRANCH  10  13
ATOM     13  N   LIG    1       10.124  -0.648  -3.309  0.00  0.00    -0.410 N 
ATOM     14  C   LIG    1       10.912  -1.312  -2.405  0.00  0.00    +0.120 A 
ATOM     15  C   LIG    1       12.181  -1.205  -2.841  0.00  0.00    +0.160 A 
ATOM     16  N   LIG    1       12.176  -0.488  -3.974  0.00  0.00    -0.480 NA
ATOM     17  C   LIG    1       10.949  -0.149  -4.265  0.00  0.00    +0.400 A 
ENDBRANCH  10  13
ENDBRANCH   6   7
ENDBRANCH   1   6
BRANCH   3  18
ATOM     18  C   LIG    1        2.490   1.043  -0.015  0.00  0.00    +0.100 C 
BRANCH  18  19
ATOM     19  C   LIG    1        1.176   1.780   0.000  0.00  0.00    -0.070 A 
ATOM     20  C   LIG    1        1.158   3.163   0.008  0.00  0.00    +0.020 A 
ATOM     21  C   LIG    1       -0.048   3.836   0.022  0.00  0.00    +0.010 A 
ATOM     22  C   LIG    1       -1.240   3.132   0.030  0.00  0.00    -0.100 A 
ATOM     23  C   LIG    1       -2.671   3.625   0.047  0.00  0.00    +0.070 C 
ATOM     24  C   LIG    1       -3.512   2.409   0.489  0.00  0.00    +0.030 C 
ATOM     25  C   LIG    1       -2.640   1.220   0.034  0.00  0.00    +0.070 C 
ATOM     26  C   LIG    1       -1.222   1.749   0.017  0.00  0.00    -0.100 A 
ATOM     27  C   LIG    1       -0.013   1.076   0.008  0.00  0.00    +0.030 A 
ENDBRANCH  18  19
ENDBRANCH   3  18
TORSDOF 5
