REMARK  Name = ZINCqH0000006ph0.0
REMARK                            x       y       z     vdW  Elec       q    Type
REMARK                         _______ _______ _______ _____ _____    ______ ____
ROOT
ATOM      1  C   LIG    1        2.499   1.455  -0.013  0.00  0.00    +0.330 C 
ATOM      2  C   LIG    1        3.100   1.578   1.403  0.00  0.00    +0.050 C 
ATOM      3  C   LIG    1        4.540   2.090   1.123  0.00  0.00    +0.040 C 
ATOM      4  C   LIG    1        4.312   3.014  -0.099  0.00  0.00    +0.250 C 
ATOM      5  N   LIG    1        3.278   2.333  -0.899  0.00  0.00    -0.610 N 
ATOM      6  C   LIG    1        3.078   2.490  -2.223  0.00  0.00    +0.520 C 
ATOM      7  O   LIG    1        2.193   1.876  -2.779  0.00  0.00    -0.500 OA
ENDROOT
BRANCH   6   8
ATOM      8  C   LIG    1        3.956   3.427  -3.011  0.00  0.00    +0.210 C 
ATOM      9  C   LIG    1        5.389   2.858  -3.140  0.00  0.00    +0.110 C 
ATOM     10  C   LIG    1        5.312   2.114  -4.460  0.00  0.00    -0.180 A 
ATOM     11  C   LIG    1        6.126   1.162  -5.033  0.00  0.00    +0.070 A 
ATOM     12  C   LIG    1        5.805   0.634  -6.271  0.00  0.00    -0.110 A 
ATOM     13  C   LIG    1        4.668   1.066  -6.928  0.00  0.00    -0.050 A 
ATOM     14  C   LIG    1        3.853   2.021  -6.357  0.00  0.00    +0.000 A 
ATOM     15  C   LIG    1        4.316   0.490  -8.275  0.00  0.00    +0.090 C 
ATOM     16  C   LIG    1        6.694  -0.407  -6.902  0.00  0.00    +0.100 C 
ATOM     17  C   LIG    1        4.170   2.560  -5.112  0.00  0.00    +0.110 A 
ATOM     18  O   LIG    1        3.520   3.505  -4.379  0.00  0.00    -0.270 OA
ENDBRANCH   6   8
BRANCH   1  22
ATOM     19  C   LIG    1       -0.722   3.175   0.026  0.00  0.00    -0.020 A 
ATOM     20  C   LIG    1       -1.159   1.903   0.017  0.00  0.00    -0.030 A 
ATOM     21  C   LIG    1       -0.013   1.076   0.008  0.00  0.00    -0.050 A 
ATOM     22  C   LIG    1        1.057   1.892   0.002  0.00  0.00    -0.010 A 
ATOM     23  O   LIG    1        0.621   3.162   0.013  0.00  0.00    -0.160 OA
BRANCH  19  24
ATOM     24  C   LIG    1       -1.592   4.406   0.042  0.00  0.00    +0.290 C 
BRANCH  24  26
ATOM     25  C   LIG    1       -2.674   5.949   1.522  0.00  0.00    +0.210 C 
ATOM     26  O   LIG    1       -1.853   4.787   1.394  0.00  0.00    -0.390 OA
ENDBRANCH  24  26
ENDBRANCH  19  24
ENDBRANCH   1  22
TORSDOF 4
