REMARK  Name = ZINCvU0000000AD1.0
REMARK                            x       y       z     vdW  Elec       q    Type
REMARK                         _______ _______ _______ _____ _____    ______ ____
ROOT
ATOM      1  C   LIG    1       -2.742   4.943   0.158  0.00  0.00    +0.140 A 
ATOM      2  C   LIG    1       -1.645   5.790   0.080  0.00  0.00    +0.040 A 
ATOM      3  C   LIG    1       -0.369   5.264   0.031  0.00  0.00    +0.060 A 
ATOM      4  C   LIG    1       -0.183   3.889   0.059  0.00  0.00    +0.080 A 
ATOM      5  C   LIG    1       -1.280   3.042   0.131  0.00  0.00    +0.050 A 
ATOM      6  C   LIG    1       -2.556   3.567   0.186  0.00  0.00    +0.030 A 
ENDROOT
BRANCH   1  17
ATOM      7  O   LIG    1       -3.506   7.691   0.131  0.00  0.00    -0.440 OA
ATOM      8  C   LIG    1       -4.321   6.792   0.190  0.00  0.00    +0.580 C 
ATOM      9  C   LIG    1       -5.788   6.960   0.253  0.00  0.00    -0.140 A 
ATOM     10  C   LIG    1       -6.637   8.054   0.265  0.00  0.00    +0.110 A 
ATOM     11  C   LIG    1       -8.008   7.859   0.339  0.00  0.00    +0.060 A 
ATOM     12  C   LIG    1       -8.532   6.582   0.401  0.00  0.00    +0.060 A 
ATOM     13  C   LIG    1       -7.694   5.477   0.389  0.00  0.00    +0.110 A 
ATOM     14  C   LIG    1       -6.322   5.656   0.315  0.00  0.00    -0.140 A 
ATOM     15  C   LIG    1       -5.162   4.741   0.283  0.00  0.00    +0.580 C 
ATOM     16  O   LIG    1       -5.214   3.529   0.318  0.00  0.00    -0.450 OA
ATOM     17  N   LIG    1       -4.038   5.477   0.207  0.00  0.00    -0.520 N 
ENDBRANCH   1  17
BRANCH   4  18
ATOM     18  O   LIG    1        1.073   3.372   0.010  0.00  0.00    -0.230 OA
BRANCH  18  19
ATOM     19  C   LIG    1        1.821   3.412   1.138  0.00  0.00    +0.410 A 
ATOM     20  C   LIG    1        3.098   2.798   1.178  0.00  0.00    -0.180 A 
ATOM     21  C   LIG    1        3.817   2.877   2.370  0.00  0.00    +0.110 A 
ATOM     22  S   LIG    1        5.355   2.052   2.185  0.00  0.00    +0.180 S 
ATOM     23  C   LIG    1        5.007   1.615   0.520  0.00  0.00    -0.180 A 
ATOM     24  C   LIG    1        5.949   0.825  -0.371  0.00  0.00    +0.120 C 
ATOM     25  C   LIG    1        5.162   0.287  -1.569  0.00  0.00    +0.030 C 
ATOM     26  C   LIG    1        4.369   1.437  -2.198  0.00  0.00    +0.020 C 
ATOM     27  C   LIG    1        3.236   1.840  -1.254  0.00  0.00    +0.100 C 
ATOM     28  N   LIG    1        3.280   3.521   3.414  0.00  0.00    -0.510 NA
ATOM     29  C   LIG    1        2.092   4.074   3.328  0.00  0.00    +0.560 A 
ATOM     30  C   LIG    1        3.812   2.066   0.138  0.00  0.00    -0.060 A 
ATOM     31  N   LIG    1        1.373   4.026   2.221  0.00  0.00    -0.570 NA
ENDBRANCH  18  19
ENDBRANCH   4  18
TORSDOF 3
