REMARK  Name = ZINCqH0000002Y5F.0
REMARK                            x       y       z     vdW  Elec       q    Type
REMARK                         _______ _______ _______ _____ _____    ______ ____
ROOT
ATOM      1  C   LIG    1        1.837   1.221   3.563  0.00  0.00    +0.050 A 
ATOM      2  N   LIG    1        1.168   1.586   2.497  0.00  0.00    -0.180 NA
ATOM      3  N   LIG    1       -0.057   1.290   2.279  0.00  0.00    -0.360 N 
ATOM      4  C   LIG    1       -0.812   0.567   3.132  0.00  0.00    +0.520 A 
ATOM      5  C   LIG    1       -0.194   0.081   4.374  0.00  0.00    -0.140 A 
ATOM      6  C   LIG    1       -0.884  -0.675   5.316  0.00  0.00    +0.090 A 
ATOM      7  C   LIG    1       -0.233  -1.088   6.459  0.00  0.00    +0.030 A 
ATOM      8  C   LIG    1        1.098  -0.757   6.677  0.00  0.00    +0.060 A 
ATOM      9  C   LIG    1        1.799  -0.008   5.755  0.00  0.00    +0.070 A 
ATOM     10  O   LIG    1       -1.976   0.319   2.877  0.00  0.00    -0.500 OA
ATOM     11  C   LIG    1        1.162   0.419   4.596  0.00  0.00    -0.030 A 
ENDROOT
BRANCH   1  13
ATOM     12  N   LIG    1        3.901   2.230   2.721  0.00  0.00    -0.530 N 
ATOM     13  C   LIG    1        3.252   1.611   3.727  0.00  0.00    +0.600 C 
ATOM     14  O   LIG    1        3.831   1.374   4.770  0.00  0.00    -0.500 OA
BRANCH  12  15
ATOM     15  C   LIG    1        5.272   2.488   2.828  0.00  0.00    +0.140 A 
ATOM     16  C   LIG    1        5.910   3.265   1.870  0.00  0.00    +0.010 A 
ATOM     17  C   LIG    1        7.262   3.523   1.980  0.00  0.00    +0.010 A 
ATOM     18  C   LIG    1        7.984   2.998   3.039  0.00  0.00    +0.080 A 
ATOM     19  C   LIG    1        7.351   2.219   3.992  0.00  0.00    +0.010 A 
ATOM     20  F   LIG    1        9.308   3.247   3.142  0.00  0.00    -0.140 F 
ATOM     21  C   LIG    1        5.998   1.963   3.889  0.00  0.00    +0.050 A 
ENDBRANCH  12  15
BRANCH  12  23
ATOM     22  C   LIG    1        2.494   3.983   1.758  0.00  0.00    +0.030 C 
ATOM     23  C   LIG    1        3.171   2.632   1.517  0.00  0.00    +0.290 C 
ENDBRANCH  12  23
ENDBRANCH   1  13
BRANCH   3  24
ATOM     24  C   LIG    1       -0.676   1.768   1.040  0.00  0.00    +0.250 C 
ATOM     25  C   LIG    1       -0.627   3.297   1.002  0.00  0.00    +0.040 C 
ATOM     26  C   LIG    1        0.084   1.203  -0.161  0.00  0.00    +0.050 C 
ENDBRANCH   3  24
TORSDOF 4
