REMARK  Name = ZINCkj00000UUNG9.0
REMARK                            x       y       z     vdW  Elec       q    Type
REMARK                         _______ _______ _______ _____ _____    ______ ____
ROOT
ATOM      1  C   LIG    1       -0.110   0.792   2.461  0.00  0.00    +0.140 C 
ATOM      2  C   LIG    1        0.479   1.986   3.240  0.00  0.00    +0.050 C 
ATOM      3  C   LIG    1       -0.367   3.197   2.777  0.00  0.00    +0.050 C 
ATOM      4  C   LIG    1       -0.590   2.905   1.272  0.00  0.00    +0.050 C 
ATOM      5  C   LIG    1       -0.790   1.376   1.210  0.00  0.00    +0.170 C 
ENDROOT
BRANCH   1   9
ATOM      6  C   LIG    1        1.440  -2.511   2.120  0.00  0.00    +0.170 C 
ATOM      7  C   LIG    1        2.579  -1.716   2.797  0.00  0.00    +0.020 C 
ATOM      8  C   LIG    1        1.885  -0.391   3.201  0.00  0.00    +0.200 C 
ATOM      9  N   LIG    1        0.962  -0.131   2.067  0.00  0.00    -0.540 NA
ATOM     10  C   LIG    1        0.413  -1.450   1.684  0.00  0.00    +0.170 C 
BRANCH   6  11
ATOM     11  O   LIG    1        1.936  -3.219   0.983  0.00  0.00    -0.560 OA
ATOM     12  H   LIG    1        2.587  -3.901   1.197  0.00  0.00    +0.390 HD
ENDBRANCH   6  11
ENDBRANCH   1   9
BRANCH   5  13
ATOM     13  N   LIG    1       -0.161   0.835  -0.003  0.00  0.00    -0.500 N 
ATOM     14  H   LIG    1        0.810   1.109  -0.029  0.00  0.00    +0.430 HD
ATOM     15  H   LIG    1       -0.227  -0.172   0.005  0.00  0.00    +0.420 HD
BRANCH  13  16
ATOM     16  C   LIG    1       -0.851   1.362  -1.188  0.00  0.00    +0.240 C 
BRANCH  16  17
ATOM     17  C   LIG    1       -0.196   0.799  -2.451  0.00  0.00    +0.040 C 
BRANCH  17  18
ATOM     18  C   LIG    1       -0.914   1.348  -3.686  0.00  0.00    -0.010 C 
ATOM     19  C   LIG    1       -2.352   0.822  -3.718  0.00  0.00    -0.010 C 
ATOM     20  C   LIG    1       -3.038   1.312  -4.996  0.00  0.00    +0.210 C 
ATOM     21  O   LIG    1       -2.292   0.874  -6.134  0.00  0.00    -0.380 OA
ATOM     22  C   LIG    1       -0.953   1.373  -6.181  0.00  0.00    +0.210 C 
ATOM     23  C   LIG    1       -0.184   0.886  -4.951  0.00  0.00    +0.010 C 
ENDBRANCH  17  18
ENDBRANCH  16  17
ENDBRANCH  13  16
ENDBRANCH   5  13
TORSDOF 6
