REMARK  Name = ZINCqH0000007jK1.0
REMARK                            x       y       z     vdW  Elec       q    Type
REMARK                         _______ _______ _______ _____ _____    ______ ____
ROOT
ATOM      1  N   LIG    1        3.581   1.600   3.258  0.00  0.00    -0.670 N 
ATOM      2  H   LIG    1        3.772   2.407   2.755  0.00  0.00    +0.410 HD
ATOM      3  C   LIG    1        2.349   1.055   3.216  0.00  0.00    +0.710 C 
ATOM      4  N   LIG    1        1.353   1.690   2.569  0.00  0.00    -0.730 N 
ATOM      5  H   LIG    1        1.522   2.540   2.133  0.00  0.00    +0.400 HD
ATOM      6  O   LIG    1        2.137  -0.011   3.762  0.00  0.00    -0.570 OA
ENDROOT
BRANCH   1  12
ATOM      7  C   LIG    1        5.927   1.209   3.711  0.00  0.00    +0.080 A 
ATOM      8  C   LIG    1        6.919   0.616   4.474  0.00  0.00    -0.030 A 
ATOM      9  C   LIG    1        6.582  -0.181   5.552  0.00  0.00    +0.040 A 
ATOM     10  C   LIG    1        5.247  -0.390   5.872  0.00  0.00    +0.130 A 
ATOM     11  C   LIG    1        4.249   0.206   5.113  0.00  0.00    +0.040 A 
ATOM     12  C   LIG    1        4.587   1.001   4.029  0.00  0.00    +0.160 A 
BRANCH  10  13
ATOM     13  N   LIG    1        4.908  -1.198   6.965  0.00  0.00    -0.670 N 
ATOM     14  H   LIG    1        4.115  -1.756   6.928  0.00  0.00    +0.410 HD
ATOM     15  C   LIG    1        5.683  -1.202   8.067  0.00  0.00    +0.510 C 
ATOM     16  O   LIG    1        6.720  -0.572   8.081  0.00  0.00    -0.530 OA
ATOM     17  C   LIG    1        5.263  -1.988   9.282  0.00  0.00    +0.110 C 
ENDBRANCH  10  13
BRANCH   7  19
ATOM     18  C   LIG    1        7.654   2.163   2.383  0.00  0.00    +0.250 C 
ATOM     19  O   LIG    1        6.261   1.994   2.651  0.00  0.00    -0.320 OA
ENDBRANCH   7  19
ENDBRANCH   1  12
BRANCH   4  20
ATOM     20  C   LIG    1        0.014   1.098   2.523  0.00  0.00    +0.250 C 
ATOM     21  C   LIG    1       -0.758   1.484   3.786  0.00  0.00    +0.020 C 
BRANCH  20  22
ATOM     22  C   LIG    1       -0.732   1.616   1.291  0.00  0.00    +0.030 C 
BRANCH  22  23
ATOM     23  C   LIG    1       -0.028   1.124   0.025  0.00  0.00    +0.060 C 
BRANCH  23  24
ATOM     24  C   LIG    1       -0.762   1.635  -1.188  0.00  0.00    -0.080 A 
ATOM     25  C   LIG    1       -1.779   0.884  -1.747  0.00  0.00    +0.000 A 
ATOM     26  C   LIG    1       -2.456   1.354  -2.857  0.00  0.00    +0.000 A 
ATOM     27  C   LIG    1       -2.108   2.571  -3.414  0.00  0.00    +0.000 A 
ATOM     28  C   LIG    1       -1.087   3.319  -2.859  0.00  0.00    +0.000 A 
ATOM     29  C   LIG    1       -0.414   2.851  -1.746  0.00  0.00    +0.000 A 
ENDBRANCH  23  24
ENDBRANCH  22  23
ENDBRANCH  20  22
ENDBRANCH   4  20
TORSDOF 7
