REMARK  Name = ZINCqH0000031J36.0
REMARK                            x       y       z     vdW  Elec       q    Type
REMARK                         _______ _______ _______ _____ _____    ______ ____
ROOT
ATOM      1  C   LIG    1       -0.803  -2.413   0.103  0.00  0.00    +0.060 C 
ENDROOT
BRANCH   1   2
ATOM      2  C   LIG    1       -2.188  -3.059   0.182  0.00  0.00    +0.320 C 
ATOM      3  C   LIG    1       -2.041  -4.547   0.379  0.00  0.00    -0.100 A 
ATOM      4  C   LIG    1       -1.924  -5.080   1.643  0.00  0.00    +0.030 A 
ATOM      5  C   LIG    1       -1.777  -6.448   1.806  0.00  0.00    +0.010 A 
ATOM      6  C   LIG    1       -1.745  -7.284   0.704  0.00  0.00    +0.020 A 
ATOM      7  C   LIG    1       -1.867  -6.762  -0.568  0.00  0.00    +0.020 A 
ATOM      8  C   LIG    1       -2.022  -5.387  -0.738  0.00  0.00    -0.030 A 
ATOM      9  C   LIG    1       -2.177  -4.805  -2.085  0.00  0.00    -0.040 C 
ATOM     10  C   LIG    1       -2.602  -3.542  -2.206  0.00  0.00    +0.240 C 
ATOM     11  N   LIG    1       -2.917  -2.811  -1.067  0.00  0.00    -0.560 N 
ATOM     12  C   LIG    1       -3.888  -1.878  -1.109  0.00  0.00    +0.510 C 
ATOM     13  O   LIG    1       -4.161  -1.241  -0.114  0.00  0.00    -0.490 OA
ATOM     14  C   LIG    1       -4.635  -1.626  -2.394  0.00  0.00    +0.100 C 
ENDBRANCH   1   2
BRANCH   1  17
ATOM     15  N   LIG    1        0.145  -0.134  -0.047  0.00  0.00    -0.660 N 
ATOM     16  H   LIG    1        1.023  -0.536  -0.136  0.00  0.00    +0.420 HD
ATOM     17  C   LIG    1       -0.950  -0.915   0.030  0.00  0.00    +0.500 C 
ATOM     18  O   LIG    1       -2.054  -0.413   0.040  0.00  0.00    -0.480 OA
BRANCH  15  24
ATOM     19  C   LIG    1        0.992   2.073  -0.588  0.00  0.00    -0.220 A 
ATOM     20  C   LIG    1        0.849   3.464  -0.531  0.00  0.00    +0.090 A 
ATOM     21  C   LIG    1       -0.243   4.016   0.100  0.00  0.00    -0.030 A 
ATOM     22  C   LIG    1       -1.203   3.202   0.681  0.00  0.00    +0.070 A 
ATOM     23  C   LIG    1       -1.079   1.828   0.629  0.00  0.00    +0.000 A 
ATOM     24  C   LIG    1        0.016   1.251   0.002  0.00  0.00    +0.220 A 
BRANCH  19  26
ATOM     25  C   LIG    1        3.255   2.360  -1.787  0.00  0.00    +0.080 C 
ATOM     26  C   LIG    1        2.153   1.476  -1.259  0.00  0.00    +0.400 C 
ATOM     27  O   LIG    1        2.226   0.273  -1.390  0.00  0.00    -0.470 OA
ENDBRANCH  19  26
ENDBRANCH  15  24
ENDBRANCH   1  17
TORSDOF 4
