REMARK  Name = ZINCqH0000032dUv.0
REMARK                            x       y       z     vdW  Elec       q    Type
REMARK                         _______ _______ _______ _____ _____    ______ ____
ROOT
ATOM      1  N   LIG    1       -2.974   3.160   0.254  0.00  0.00    -0.740 N 
ATOM      2  H   LIG    1       -2.940   3.526   1.151  0.00  0.00    +0.390 HD
ATOM      3  C   LIG    1       -3.154   3.979  -0.802  0.00  0.00    +0.720 C 
ATOM      4  N   LIG    1       -3.389   5.291  -0.604  0.00  0.00    -0.630 N 
ATOM      5  C   LIG    1       -3.689   6.193  -1.729  0.00  0.00    +0.300 C 
ATOM      6  C   LIG    1       -5.118   6.713  -1.536  0.00  0.00    +0.110 C 
ATOM      7  C   LIG    1       -5.328   7.191  -0.123  0.00  0.00    +0.000 A 
ATOM      8  C   LIG    1       -4.526   6.805   0.923  0.00  0.00    -0.110 A 
ATOM      9  C   LIG    1       -4.787   7.272   2.206  0.00  0.00    +0.050 A 
ATOM     10  C   LIG    1       -5.843   8.129   2.446  0.00  0.00    +0.000 A 
ATOM     11  C   LIG    1       -6.652   8.531   1.403  0.00  0.00    +0.050 A 
ATOM     12  C   LIG    1       -6.400   8.065   0.115  0.00  0.00    -0.150 A 
ATOM     13  C   LIG    1       -3.349   5.880   0.739  0.00  0.00    +0.330 C 
ATOM     14  O   LIG    1       -3.104   3.533  -1.932  0.00  0.00    -0.580 OA
ENDROOT
BRANCH  12  15
ATOM     15  C   LIG    1       -7.264   8.492  -1.005  0.00  0.00    +0.560 C 
ATOM     16  O   LIG    1       -7.119   8.000  -2.107  0.00  0.00    -0.530 OA
ATOM     17  N   LIG    1       -8.214   9.428  -0.805  0.00  0.00    -0.850 N 
ATOM     18  H   LIG    1       -8.781   9.708  -1.540  0.00  0.00    +0.410 HD
ATOM     19  H   LIG    1       -8.330   9.820   0.074  0.00  0.00    +0.400 HD
ENDBRANCH  12  15
BRANCH   1  20
ATOM     20  C   LIG    1       -2.830   1.717   0.045  0.00  0.00    +0.340 C 
BRANCH  20  21
ATOM     21  C   LIG    1       -4.195   1.082  -0.031  0.00  0.00    -0.190 A 
ATOM     22  C   LIG    1       -4.544   0.110  -0.875  0.00  0.00    +0.010 A 
ATOM     23  C   LIG    1       -5.856  -0.318  -0.761  0.00  0.00    +0.010 A 
ATOM     24  C   LIG    1       -6.572   0.308   0.175  0.00  0.00    -0.050 A 
ATOM     25  S   LIG    1       -5.568   1.504   0.984  0.00  0.00    +0.100 S 
ENDBRANCH  20  21
BRANCH  20  26
ATOM     26  C   LIG    1       -2.049   1.109   1.212  0.00  0.00    +0.040 C 
BRANCH  26  28
ATOM     27  C   LIG    1        0.107   1.196  -0.049  0.00  0.00    +0.030 C 
ATOM     28  C   LIG    1       -0.622   1.661   1.213  0.00  0.00    -0.020 C 
ATOM     29  C   LIG    1        0.121   1.151   2.450  0.00  0.00    +0.020 C 
ENDBRANCH  26  28
ENDBRANCH  20  26
ENDBRANCH   1  20
TORSDOF 5
