REMARK  Name = ZINCpk00000y6viS.0
REMARK                            x       y       z     vdW  Elec       q    Type
REMARK                         _______ _______ _______ _____ _____    ______ ____
ROOT
ATOM      1  C   LIG    1        1.548   1.822  -0.115  0.00  0.00    +0.240 C 
ATOM      2  C   LIG    1        0.028   1.512  -0.095  0.00  0.00    +0.050 C 
ATOM      3  C   LIG    1        0.027  -0.037  -0.052  0.00  0.00    +0.280 C 
ATOM      4  N   LIG    1        1.171  -0.391   0.808  0.00  0.00    -0.610 N 
ATOM      5  C   LIG    1        1.308  -1.539   1.500  0.00  0.00    +0.580 C 
ATOM      6  O   LIG    1        0.397  -2.344   1.528  0.00  0.00    -0.530 OA
ATOM      7  C   LIG    1        2.139   0.716   0.785  0.00  0.00    +0.260 C 
ENDROOT
BRANCH   5   8
ATOM      8  C   LIG    1        2.564  -1.820   2.225  0.00  0.00    -0.120 A 
ATOM      9  C   LIG    1        3.552  -0.837   2.317  0.00  0.00    +0.030 A 
ATOM     10  C   LIG    1        4.721  -1.098   2.997  0.00  0.00    +0.050 A 
ATOM     11  C   LIG    1        4.922  -2.347   3.585  0.00  0.00    +0.010 A 
ATOM     12  C   LIG    1        3.938  -3.331   3.489  0.00  0.00    +0.060 A 
ATOM     13  C   LIG    1        2.767  -3.070   2.814  0.00  0.00    +0.080 A 
BRANCH  11  14
ATOM     14  C   LIG    1        6.183  -2.629   4.312  0.00  0.00    +0.260 A 
ATOM     15  N   LIG    1        7.181  -1.787   4.471  0.00  0.00    -0.300 NA
ATOM     16  N   LIG    1        8.163  -2.461   5.216  0.00  0.00    -0.480 N 
ATOM     17  H   LIG    1        9.021  -2.108   5.498  0.00  0.00    +0.450 HD
ATOM     18  C   LIG    1        7.678  -3.692   5.462  0.00  0.00    +0.500 A 
ATOM     19  N   LIG    1        6.492  -3.781   4.923  0.00  0.00    -0.530 NA
ENDBRANCH  11  14
ENDBRANCH   5   8
BRANCH   1  21
ATOM     20  C   LIG    1        2.926   3.821   0.092  0.00  0.00    +0.550 C 
ATOM     21  N   LIG    1        1.815   3.147   0.449  0.00  0.00    -0.720 N 
ATOM     22  H   LIG    1        1.191   3.539   1.081  0.00  0.00    +0.410 HD
ATOM     23  O   LIG    1        3.705   3.330  -0.697  0.00  0.00    -0.530 OA
BRANCH  20  27
ATOM     24  C   LIG    1        5.201   6.764   1.260  0.00  0.00    +0.060 C 
ATOM     25  C   LIG    1        4.476   5.899   0.226  0.00  0.00    +0.000 C 
ATOM     26  C   LIG    1        3.113   6.385  -0.272  0.00  0.00    +0.060 C 
ATOM     27  C   LIG    1        3.200   5.184   0.673  0.00  0.00    -0.070 C 
ENDBRANCH  20  27
ENDBRANCH   1  21
TORSDOF 4
