REMARK  Name = ZINCpk00000y6viS.1
REMARK                            x       y       z     vdW  Elec       q    Type
REMARK                         _______ _______ _______ _____ _____    ______ ____
ROOT
ATOM      1  C   LIG    1       -8.035  -2.783   0.976  0.00  0.00    +0.240 C 
ATOM      2  C   LIG    1       -7.657  -1.417   0.344  0.00  0.00    +0.050 C 
ATOM      3  C   LIG    1       -6.128  -1.528   0.170  0.00  0.00    +0.270 C 
ATOM      4  N   LIG    1       -5.794  -2.960   0.146  0.00  0.00    -0.610 N 
ATOM      5  C   LIG    1       -4.554  -3.476   0.029  0.00  0.00    +0.570 C 
ATOM      6  O   LIG    1       -4.404  -4.678  -0.077  0.00  0.00    -0.520 OA
ATOM      7  C   LIG    1       -7.041  -3.738   0.265  0.00  0.00    +0.270 C 
ENDROOT
BRANCH   5   8
ATOM      8  C   LIG    1       -3.379  -2.581   0.030  0.00  0.00    -0.120 A 
ATOM      9  C   LIG    1       -2.091  -3.120   0.077  0.00  0.00    +0.100 A 
ATOM     10  C   LIG    1       -0.996  -2.287   0.077  0.00  0.00    +0.070 A 
ATOM     11  C   LIG    1       -1.172  -0.902   0.032  0.00  0.00    +0.010 A 
ATOM     12  C   LIG    1       -2.460  -0.362  -0.009  0.00  0.00    +0.020 A 
ATOM     13  C   LIG    1       -3.555  -1.196  -0.015  0.00  0.00    +0.050 A 
BRANCH  11  14
ATOM     14  C   LIG    1        0.004  -0.006   0.032  0.00  0.00    +0.210 A 
ATOM     15  N   LIG    1        1.266  -0.373   0.074  0.00  0.00    -0.270 NA
ATOM     16  N   LIG    1        2.018   0.670   0.060  0.00  0.00    -0.290 NA
ATOM     17  C   LIG    1        1.284   1.750   0.010  0.00  0.00    +0.400 A 
ATOM     18  N   LIG    1       -0.013   1.362  -0.009  0.00  0.00    -0.580 N 
ATOM     19  H   LIG    1       -0.795   1.935  -0.049  0.00  0.00    +0.430 HD
ENDBRANCH  11  14
ENDBRANCH   5   8
BRANCH   1  21
ATOM     20  C   LIG    1      -10.102  -3.973   1.474  0.00  0.00    +0.550 C 
ATOM     21  N   LIG    1       -9.420  -3.141   0.661  0.00  0.00    -0.720 N 
ATOM     22  H   LIG    1       -9.847  -2.780  -0.132  0.00  0.00    +0.410 HD
ATOM     23  O   LIG    1       -9.569  -4.425   2.465  0.00  0.00    -0.530 OA
BRANCH  20  27
ATOM     24  C   LIG    1      -13.241  -6.285   1.511  0.00  0.00    +0.060 C 
ATOM     25  C   LIG    1      -12.248  -5.289   2.112  0.00  0.00    +0.000 C 
ATOM     26  C   LIG    1      -12.623  -3.805   2.073  0.00  0.00    +0.060 C 
ATOM     27  C   LIG    1      -11.527  -4.342   1.150  0.00  0.00    -0.070 C 
ENDBRANCH  20  27
ENDBRANCH   1  21
TORSDOF 4
