REMARK  Name = ZINCtj00001UqOz9.1
REMARK                            x       y       z     vdW  Elec       q    Type
REMARK                         _______ _______ _______ _____ _____    ______ ____
ROOT
ATOM      1  C   LIG    1       -3.394   4.058   2.174  0.00  0.00    -0.790 A 
ATOM      2  C   LIG    1       -3.826   3.306   3.259  0.00  0.00    +0.210 A 
ATOM      3  C   LIG    1       -5.185   3.217   3.500  0.00  0.00    -0.120 A 
ATOM      4  C   LIG    1       -6.068   3.879   2.653  0.00  0.00    +0.440 A 
ATOM      5  N   LIG    1       -5.616   4.585   1.629  0.00  0.00    -0.550 NA
ATOM      6  C   LIG    1       -4.325   4.693   1.378  0.00  0.00    +0.440 A 
ENDROOT
BRANCH   1   7
ATOM      7  S   LIG    1       -1.674   4.205   1.822  0.00  0.00    +2.720 S 
ATOM      8  O   LIG    1       -1.518   5.402   1.074  0.00  0.00    -0.950 OA
ATOM      9  O   LIG    1       -0.991   3.957   3.043  0.00  0.00    -0.950 OA
BRANCH   7  13
ATOM     10  C   LIG    1       -0.839   1.637  -1.184  0.00  0.00    +0.240 C 
ATOM     11  C   LIG    1       -0.013   1.086   0.008  0.00  0.00    +0.040 C 
ATOM     12  C   LIG    1       -0.815   1.624   1.219  0.00  0.00    +0.270 C 
ATOM     13  N   LIG    1       -1.274   2.962   0.803  0.00  0.00    -1.010 NA
ATOM     14  C   LIG    1       -1.319   3.009  -0.666  0.00  0.00    +0.270 C 
BRANCH  10  17
ATOM     15  C   LIG    1       -3.000  -1.194  -2.587  0.00  0.00    +0.110 C 
ATOM     16  C   LIG    1       -1.827  -0.296  -2.291  0.00  0.00    +0.510 C 
ATOM     17  N   LIG    1       -1.980   0.764  -1.472  0.00  0.00    -0.730 N 
ATOM     18  H   LIG    1       -2.844   0.948  -1.073  0.00  0.00    +0.400 HD
ATOM     19  O   LIG    1       -0.745  -0.526  -2.789  0.00  0.00    -0.540 OA
ENDBRANCH  10  17
ENDBRANCH   7  13
ENDBRANCH   1   7
BRANCH   4  20
ATOM     20  N   LIG    1       -7.436   3.797   2.885  0.00  0.00    -0.720 N 
ATOM     21  H   LIG    1       -8.056   4.257   2.296  0.00  0.00    +0.410 HD
BRANCH  20  22
ATOM     22  C   LIG    1       -7.943   3.017   4.016  0.00  0.00    +0.260 C 
BRANCH  22  23
ATOM     23  C   LIG    1       -9.471   3.091   4.044  0.00  0.00    +0.030 C 
BRANCH  23  24
ATOM     24  C   LIG    1      -10.000   2.276   5.225  0.00  0.00    +0.030 C 
BRANCH  24  25
ATOM     25  C   LIG    1      -11.527   2.350   5.253  0.00  0.00    +0.340 C 
BRANCH  25  26
ATOM     26  N   LIG    1      -12.034   1.569   6.385  0.00  0.00    -0.410 N 
ATOM     27  C   LIG    1      -12.459   0.269   6.349  0.00  0.00    +0.240 C 
ATOM     28  C   LIG    1      -12.839  -0.051   7.601  0.00  0.00    +0.220 C 
ATOM     29  N   LIG    1      -12.650   1.024   8.379  0.00  0.00    -0.480 N 
ATOM     30  H   LIG    1      -12.842   1.070   9.329  0.00  0.00    +0.460 HD
ATOM     31  C   LIG    1      -12.163   1.997   7.659  0.00  0.00    +0.310 C 
ATOM     32  C   LIG    1      -11.807   3.371   8.165  0.00  0.00    +0.230 C 
ENDBRANCH  25  26
ENDBRANCH  24  25
ENDBRANCH  23  24
ENDBRANCH  22  23
ENDBRANCH  20  22
ENDBRANCH   4  20
TORSDOF 9
