REMARK  Name = ZINCvU00000005xr.0
REMARK                            x       y       z     vdW  Elec       q    Type
REMARK                         _______ _______ _______ _____ _____    ______ ____
ROOT
ATOM      1  C   LIG    1        2.017  -0.122  -0.554  0.00  0.00    +0.460 A 
ATOM      2  N   LIG    1        0.924  -0.832  -0.576  0.00  0.00    -0.550 NA
ATOM      3  C   LIG    1       -0.285  -0.253  -0.656  0.00  0.00    +0.540 A 
ATOM      4  C   LIG    1       -0.366   1.218  -0.721  0.00  0.00    -0.220 A 
ATOM      5  C   LIG    1        0.826   1.921  -0.694  0.00  0.00    +0.060 A 
ATOM      6  S   LIG    1        0.509   3.647  -0.781  0.00  0.00    +0.190 S 
ATOM      7  C   LIG    1       -1.225   3.396  -0.852  0.00  0.00    -0.040 A 
ATOM      8  C   LIG    1       -1.523   2.097  -0.817  0.00  0.00    +0.010 A 
ATOM      9  O   LIG    1       -1.300  -0.932  -0.676  0.00  0.00    -0.470 OA
ATOM     10  N   LIG    1        2.009   1.219  -0.610  0.00  0.00    -0.590 N 
ATOM     11  H   LIG    1        2.850   1.702  -0.591  0.00  0.00    +0.420 HD
ENDROOT
BRANCH   8  12
ATOM     12  C   LIG    1       -2.915   1.590  -0.869  0.00  0.00    -0.050 A 
ATOM     13  C   LIG    1       -3.261   0.589  -1.775  0.00  0.00    +0.100 A 
ATOM     14  C   LIG    1       -4.557   0.117  -1.816  0.00  0.00    -0.010 A 
ATOM     15  C   LIG    1       -5.516   0.643  -0.966  0.00  0.00    +0.110 A 
ATOM     16  C   LIG    1       -5.177   1.642  -0.067  0.00  0.00    -0.020 A 
ATOM     17  F   LIG    1       -6.785   0.181  -1.013  0.00  0.00    -0.140 F 
ATOM     18  C   LIG    1       -3.883   2.117  -0.015  0.00  0.00    +0.060 A 
ENDBRANCH   8  12
BRANCH   1  19
ATOM     19  C   LIG    1        3.342  -0.835  -0.462  0.00  0.00    +0.140 C 
BRANCH  19  20
ATOM     20  S   LIG    1        3.062  -2.626  -0.400  0.00  0.00    -0.050 S 
BRANCH  20  21
ATOM     21  C   LIG    1        4.743  -3.298  -0.293  0.00  0.00    +0.050 C 
BRANCH  21  23
ATOM     22  N   LIG    1        5.816  -5.526  -0.249  0.00  0.00    -0.610 N 
ATOM     23  C   LIG    1        4.679  -4.803  -0.233  0.00  0.00    +0.540 C 
ATOM     24  O   LIG    1        3.605  -5.362  -0.170  0.00  0.00    -0.510 OA
BRANCH  22  25
ATOM     25  C   LIG    1        5.753  -6.989  -0.300  0.00  0.00    +0.240 C 
ATOM     26  C   LIG    1        5.061  -7.425  -1.592  0.00  0.00    +0.020 C 
BRANCH  25  27
ATOM     27  C   LIG    1        4.961  -7.507   0.903  0.00  0.00    +0.010 C 
ATOM     28  C   LIG    1        5.699  -7.146   2.193  0.00  0.00    +0.010 C 
ENDBRANCH  25  27
ENDBRANCH  22  25
BRANCH  22  29
ATOM     29  C   LIG    1        7.116  -4.850  -0.215  0.00  0.00    +0.270 C 
BRANCH  29  30
ATOM     30  C   LIG    1        7.556  -4.665   1.238  0.00  0.00    -0.010 C 
BRANCH  30  32
ATOM     31  C   LIG    1        9.354  -3.772   2.726  0.00  0.00    +0.010 C 
ATOM     32  C   LIG    1        8.913  -3.958   1.273  0.00  0.00    +0.000 C 
ENDBRANCH  30  32
ENDBRANCH  29  30
ENDBRANCH  22  29
ENDBRANCH  21  23
ENDBRANCH  20  21
ENDBRANCH  19  20
ENDBRANCH   1  19
TORSDOF 10
