REMARK  Name = ZINCrg00000SjSBn.0
REMARK                            x       y       z     vdW  Elec       q    Type
REMARK                         _______ _______ _______ _____ _____    ______ ____
ROOT
ATOM      1  N   LIG    1       -5.560   3.625  -3.540  0.00  0.00    -0.490 N 
ATOM      2  C   LIG    1       -6.662   2.700  -3.240  0.00  0.00    +0.180 C 
ATOM      3  C   LIG    1       -6.321   1.903  -1.978  0.00  0.00    +0.240 C 
ATOM      4  O   LIG    1       -5.078   1.223  -2.169  0.00  0.00    -0.370 OA
ATOM      5  C   LIG    1       -3.982   2.099  -2.458  0.00  0.00    +0.100 C 
ATOM      6  C   LIG    1       -3.790   3.068  -1.293  0.00  0.00    +0.090 C 
ATOM      7  C   LIG    1       -3.820   2.297   0.033  0.00  0.00    -0.170 C 
ATOM      8  S   LIG    1       -2.453   1.093   0.020  0.00  0.00    +2.280 S 
ATOM      9  C   LIG    1       -2.585   0.220  -1.572  0.00  0.00    -0.270 C 
ATOM     10  N   LIG    1       -1.170   1.858   0.018  0.00  0.00    -1.120 NA
ATOM     11  O   LIG    1       -2.437   0.231   1.149  0.00  0.00    -0.920 OA
ATOM     12  C   LIG    1       -2.720   1.268  -2.683  0.00  0.00    +0.100 C 
ATOM     13  C   LIG    1       -4.300   2.892  -3.730  0.00  0.00    +0.210 C 
ENDROOT
BRANCH   1  17
ATOM     14  C   LIG    1       -6.410   6.000  -6.750  0.00  0.00    +0.140 A 
ATOM     15  C   LIG    1       -6.466   4.613  -6.941  0.00  0.00    +0.110 A 
ATOM     16  C   LIG    1       -6.181   3.797  -5.862  0.00  0.00    +0.020 A 
ATOM     17  C   LIG    1       -5.854   4.404  -4.649  0.00  0.00    +0.270 A 
ATOM     18  N   LIG    1       -5.830   5.729  -4.556  0.00  0.00    -0.200 NA
ATOM     19  N   LIG    1       -6.089   6.489  -5.557  0.00  0.00    -0.180 NA
BRANCH  14  21
ATOM     20  N   LIG    1       -6.926   7.592  -8.698  0.00  0.00    -0.360 NA
ATOM     21  C   LIG    1       -6.697   6.888  -7.836  0.00  0.00    +0.260 C 
ENDBRANCH  14  21
ENDBRANCH   1  17
BRANCH  10  22
ATOM     22  C   LIG    1       -0.014   1.211   0.009  0.00  0.00    +0.570 C 
ATOM     23  O   LIG    1        0.002  -0.004   0.002  0.00  0.00    -0.560 OA
BRANCH  22  24
ATOM     24  C   LIG    1        1.280   1.982   0.001  0.00  0.00    -0.030 C 
ATOM     25  C   LIG    1        2.128   1.926  -1.272  0.00  0.00    +0.060 C 
ATOM     26  C   LIG    1        2.582   1.178  -0.016  0.00  0.00    +0.180 C 
ATOM     27  F   LIG    1        2.479  -0.217  -0.022  0.00  0.00    -0.170 F 
ENDBRANCH  22  24
ENDBRANCH  10  22
TORSDOF 4
