REMARK  Name = ZINCtj00000nxqFk.1
REMARK                            x       y       z     vdW  Elec       q    Type
REMARK                         _______ _______ _______ _____ _____    ______ ____
ROOT
ATOM      1  C   LIG    1        0.621   4.954  -1.034  0.00  0.00    +0.520 C 
ATOM      2  N   LIG    1        0.479   3.622  -1.180  0.00  0.00    -0.750 N 
ATOM      3  H   LIG    1        1.259   3.065  -1.331  0.00  0.00    +0.390 HD
ATOM      4  O   LIG    1       -0.354   5.650  -0.845  0.00  0.00    -0.470 OA
ENDROOT
BRANCH   1   5
ATOM      5  C   LIG    1        1.990   5.579  -1.104  0.00  0.00    +0.230 C 
BRANCH   5   6
ATOM      6  O   LIG    1        1.879   6.992  -0.921  0.00  0.00    -0.250 OA
BRANCH   6  11
ATOM      7  C   LIG    1        5.416   7.807  -1.200  0.00  0.00    +0.200 A 
ATOM      8  C   LIG    1        5.385   9.188  -1.029  0.00  0.00    -0.110 A 
ATOM      9  C   LIG    1        4.188   9.834  -0.823  0.00  0.00    +0.140 A 
ATOM     10  C   LIG    1        2.997   9.102  -0.785  0.00  0.00    -0.210 A 
ATOM     11  C   LIG    1        3.030   7.710  -0.957  0.00  0.00    +0.220 A 
ATOM     12  C   LIG    1        4.241   7.071  -1.158  0.00  0.00    -0.120 A 
BRANCH  10  13
ATOM     13  C   LIG    1        1.713   9.789  -0.564  0.00  0.00    +0.560 C 
ATOM     14  O   LIG    1        0.679   9.150  -0.531  0.00  0.00    -0.520 OA
ATOM     15  N   LIG    1        1.684  11.127  -0.399  0.00  0.00    -0.860 N 
ATOM     16  H   LIG    1        0.839  11.579  -0.254  0.00  0.00    +0.410 HD
ATOM     17  H   LIG    1        2.509  11.636  -0.426  0.00  0.00    +0.400 HD
ENDBRANCH  10  13
BRANCH   7  19
ATOM     18  C   LIG    1        7.773   7.995  -1.429  0.00  0.00    +0.250 C 
ATOM     19  O   LIG    1        6.601   7.178  -1.402  0.00  0.00    -0.310 OA
ENDBRANCH   7  19
ENDBRANCH   6  11
ENDBRANCH   5   6
ENDBRANCH   1   5
BRANCH   2  20
ATOM     20  C   LIG    1       -0.852   3.014  -1.111  0.00  0.00    +0.320 C 
BRANCH  20  21
ATOM     21  C   LIG    1       -0.723   1.492  -1.187  0.00  0.00    +0.050 C 
ATOM     22  C   LIG    1       -2.099   0.853  -0.990  0.00  0.00    +0.060 C 
ATOM     23  C   LIG    1       -3.048   1.339  -2.087  0.00  0.00    +0.050 C 
ATOM     24  C   LIG    1       -2.492   0.941  -3.456  0.00  0.00    +0.020 C 
ATOM     25  C   LIG    1       -1.116   1.580  -3.652  0.00  0.00    +0.050 C 
ATOM     26  C   LIG    1       -0.167   1.094  -2.555  0.00  0.00    +0.050 C 
BRANCH  21  27
ATOM     27  N   LIG    1        0.189   1.025  -0.133  0.00  0.00    -0.380 N 
ATOM     28  C   LIG    1        0.289  -0.440  -0.185  0.00  0.00    +0.230 C 
ATOM     29  C   LIG    1        1.240  -0.923   0.913  0.00  0.00    +0.260 C 
ATOM     30  O   LIG    1        0.760  -0.474   2.183  0.00  0.00    -0.350 OA
ATOM     31  C   LIG    1        0.622   0.947   2.275  0.00  0.00    +0.260 C 
ATOM     32  C   LIG    1       -0.330   1.433   1.180  0.00  0.00    +0.230 C 
ATOM     33  H   LIG    1        1.102   1.430  -0.275  0.00  0.00    +0.410 HD
ENDBRANCH  21  27
ENDBRANCH  20  21
ENDBRANCH   2  20
TORSDOF 8
