REMARK  Name = ZINCwl0000000lxo.1
REMARK                            x       y       z     vdW  Elec       q    Type
REMARK                         _______ _______ _______ _____ _____    ______ ____
ROOT
ATOM      1  N   LIG    1        0.189   0.988   0.070  0.00  0.00    -0.740 N 
ATOM      2  H   LIG    1       -0.556   1.593   0.208  0.00  0.00    +0.400 HD
ATOM      3  C   LIG    1        1.433   1.478  -0.099  0.00  0.00    +0.500 C 
ATOM      4  O   LIG    1        2.364   0.721  -0.277  0.00  0.00    -0.500 OA
ENDROOT
BRANCH   1   5
ATOM      5  C   LIG    1       -0.038  -0.459   0.039  0.00  0.00    +0.330 C 
BRANCH   5  11
ATOM      6  C   LIG    1       -2.297  -0.650  -1.023  0.00  0.00    -0.140 A 
ATOM      7  C   LIG    1       -3.653  -0.910  -0.954  0.00  0.00    +0.050 A 
ATOM      8  C   LIG    1       -4.231  -1.246   0.256  0.00  0.00    +0.040 A 
ATOM      9  C   LIG    1       -3.454  -1.326   1.395  0.00  0.00    +0.060 A 
ATOM     10  C   LIG    1       -2.096  -1.072   1.325  0.00  0.00    +0.050 A 
ATOM     11  C   LIG    1       -1.518  -0.737   0.116  0.00  0.00    -0.090 A 
BRANCH   6  12
ATOM     12  C   LIG    1       -1.667  -0.279  -2.341  0.00  0.00    +0.320 C 
BRANCH  12  16
ATOM     13  N   LIG    1       -1.934   3.691  -3.718  0.00  0.00    -0.540 NA
ATOM     14  C   LIG    1       -0.610   3.053  -3.709  0.00  0.00    +0.220 C 
ATOM     15  C   LIG    1       -0.779   1.534  -3.637  0.00  0.00    +0.260 C 
ATOM     16  N   LIG    1       -1.520   1.181  -2.419  0.00  0.00    -0.390 N 
ATOM     17  C   LIG    1       -2.849   1.806  -2.453  0.00  0.00    +0.260 C 
ATOM     18  H   LIG    1       -1.014   1.512  -1.610  0.00  0.00    +0.410 HD
ATOM     19  C   LIG    1       -2.696   3.327  -2.515  0.00  0.00    +0.210 C 
BRANCH  13  21
ATOM     20  C   LIG    1       -3.196   5.755  -4.099  0.00  0.00    +0.050 C 
ATOM     21  C   LIG    1       -1.814   5.150  -3.844  0.00  0.00    +0.190 C 
ENDBRANCH  13  21
ENDBRANCH  12  16
ENDBRANCH   6  12
ENDBRANCH   5  11
ENDBRANCH   1   5
BRANCH   3  22
ATOM     22  C   LIG    1        1.667   2.966  -0.068  0.00  0.00    +0.300 C 
BRANCH  22  23
ATOM     23  N   LIG    1        3.091   3.241  -0.275  0.00  0.00    -0.720 N 
ATOM     24  H   LIG    1        3.713   2.508  -0.404  0.00  0.00    +0.420 HD
ATOM     25  C   LIG    1        3.538   4.513  -0.286  0.00  0.00    +0.580 C 
ATOM     26  O   LIG    1        2.758   5.432  -0.124  0.00  0.00    -0.530 OA
BRANCH  25  27
ATOM     27  C   LIG    1        4.972   4.790  -0.494  0.00  0.00    -0.140 A 
ATOM     28  C   LIG    1        5.869   3.735  -0.680  0.00  0.00    +0.070 A 
ATOM     29  C   LIG    1        7.208   3.996  -0.875  0.00  0.00    +0.040 A 
ATOM     30  C   LIG    1        7.671   5.304  -0.887  0.00  0.00    +0.070 A 
ATOM     31  O   LIG    1        8.923   5.816  -1.058  0.00  0.00    -0.300 OA
ATOM     32  C   LIG    1        8.858   7.168  -0.568  0.00  0.00    +0.440 C 
ATOM     33  O   LIG    1        7.479   7.535  -0.756  0.00  0.00    -0.300 OA
ATOM     34  C   LIG    1        6.780   6.363  -0.702  0.00  0.00    +0.030 A 
ATOM     35  C   LIG    1        5.436   6.108  -0.512  0.00  0.00    +0.110 A 
ENDBRANCH  25  27
ENDBRANCH  22  23
ENDBRANCH   3  22
TORSDOF 8
