REMARK  Name = ZINCwl0000000lxo.0
REMARK                            x       y       z     vdW  Elec       q    Type
REMARK                         _______ _______ _______ _____ _____    ______ ____
ROOT
ATOM      1  N   LIG    1       -2.054   9.565  -0.147  0.00  0.00    -0.700 N 
ATOM      2  H   LIG    1       -1.196   9.906   0.151  0.00  0.00    +0.400 HD
ATOM      3  C   LIG    1       -2.217   8.244  -0.360  0.00  0.00    +0.500 C 
ATOM      4  O   LIG    1       -3.289   7.818  -0.733  0.00  0.00    -0.530 OA
ENDROOT
BRANCH   1   5
ATOM      5  C   LIG    1       -3.172  10.486  -0.367  0.00  0.00    +0.330 C 
BRANCH   5  11
ATOM      6  C   LIG    1       -2.022  12.617  -1.002  0.00  0.00    -0.080 A 
ATOM      7  C   LIG    1       -1.621  13.910  -0.722  0.00  0.00    +0.000 A 
ATOM      8  C   LIG    1       -1.920  14.476   0.503  0.00  0.00    +0.020 A 
ATOM      9  C   LIG    1       -2.624  13.752   1.446  0.00  0.00    +0.020 A 
ATOM     10  C   LIG    1       -3.029  12.460   1.165  0.00  0.00    +0.030 A 
ATOM     11  C   LIG    1       -2.730  11.894  -0.060  0.00  0.00    -0.090 A 
BRANCH   6  12
ATOM     12  C   LIG    1       -1.691  11.997  -2.335  0.00  0.00    +0.260 C 
BRANCH  12  16
ATOM     13  N   LIG    1        2.035  10.098  -2.951  0.00  0.00    -0.390 N 
ATOM     14  C   LIG    1        0.815   9.303  -3.143  0.00  0.00    +0.270 C 
ATOM     15  C   LIG    1       -0.376  10.240  -3.359  0.00  0.00    +0.210 C 
ATOM     16  N   LIG    1       -0.522  11.119  -2.190  0.00  0.00    -0.530 NA
ATOM     17  C   LIG    1        0.701  11.903  -1.971  0.00  0.00    +0.200 C 
ATOM     18  C   LIG    1        1.883  10.953  -1.766  0.00  0.00    +0.270 C 
ATOM     19  H   LIG    1        2.192  10.675  -3.764  0.00  0.00    +0.420 HD
BRANCH  13  21
ATOM     20  C   LIG    1        4.428  10.022  -2.437  0.00  0.00    +0.080 C 
ATOM     21  C   LIG    1        3.180   9.198  -2.761  0.00  0.00    +0.250 C 
ENDBRANCH  13  21
ENDBRANCH  12  16
ENDBRANCH   6  12
ENDBRANCH   5  11
ENDBRANCH   1   5
BRANCH   3  22
ATOM     22  C   LIG    1       -1.067   7.297  -0.135  0.00  0.00    +0.300 C 
BRANCH  22  23
ATOM     23  N   LIG    1       -1.496   5.928  -0.433  0.00  0.00    -0.720 N 
ATOM     24  H   LIG    1       -2.405   5.758  -0.725  0.00  0.00    +0.420 HD
ATOM     25  C   LIG    1       -0.627   4.906  -0.300  0.00  0.00    +0.580 C 
ATOM     26  O   LIG    1        0.512   5.120   0.066  0.00  0.00    -0.540 OA
BRANCH  25  27
ATOM     27  C   LIG    1       -1.060   3.527  -0.601  0.00  0.00    -0.140 A 
ATOM     28  C   LIG    1       -2.368   3.280  -1.022  0.00  0.00    +0.070 A 
ATOM     29  C   LIG    1       -2.768   1.992  -1.308  0.00  0.00    +0.040 A 
ATOM     30  C   LIG    1       -1.878   0.936  -1.168  0.00  0.00    +0.070 A 
ATOM     31  O   LIG    1       -2.027  -0.402  -1.379  0.00  0.00    -0.300 OA
ATOM     32  C   LIG    1       -0.925  -1.026  -0.694  0.00  0.00    +0.440 C 
ATOM     33  O   LIG    1        0.098  -0.013  -0.696  0.00  0.00    -0.300 OA
ATOM     34  C   LIG    1       -0.569   1.177  -0.747  0.00  0.00    +0.020 A 
ATOM     35  C   LIG    1       -0.161   2.466  -0.464  0.00  0.00    +0.110 A 
ENDBRANCH  25  27
ENDBRANCH  22  23
ENDBRANCH   3  22
TORSDOF 8
