REMARK  Name = ZINCnE000001FJaT.1
REMARK                            x       y       z     vdW  Elec       q    Type
REMARK                         _______ _______ _______ _____ _____    ______ ____
ROOT
ATOM      1  C   LIG    1       -0.022   1.806   0.012  0.00  0.00    +0.120 C 
ENDROOT
BRANCH   1   2
ATOM      2  S   LIG    1        0.002  -0.004   0.002  0.00  0.00    -0.020 S 
BRANCH   2   7
ATOM      3  C   LIG    1        1.908   0.566  -3.383  0.00  0.00    +0.180 A 
ATOM      4  C   LIG    1        2.177  -0.694  -3.836  0.00  0.00    -0.260 A 
ATOM      5  C   LIG    1        1.756  -1.796  -3.070  0.00  0.00    +0.500 A 
ATOM      6  N   LIG    1        1.100  -1.569  -1.912  0.00  0.00    -0.640 NA
ATOM      7  C   LIG    1        0.859  -0.290  -1.510  0.00  0.00    +0.330 A 
ATOM      8  O   LIG    1        1.980  -2.935  -3.445  0.00  0.00    -0.620 OA
ATOM      9  N   LIG    1        1.253   0.738  -2.237  0.00  0.00    -0.620 NA
BRANCH   3  10
ATOM     10  C   LIG    1        2.348   1.763  -4.185  0.00  0.00    +0.080 C 
BRANCH  10  12
ATOM     11  C   LIG    1        1.642   3.447  -5.890  0.00  0.00    +0.000 C 
ATOM     12  C   LIG    1        1.196   2.232  -5.076  0.00  0.00    +0.010 C 
ENDBRANCH  10  12
ENDBRANCH   3  10
ENDBRANCH   2   7
ENDBRANCH   1   2
BRANCH   1  13
ATOM     13  C   LIG    1       -0.739   2.299   1.271  0.00  0.00    -0.290 C 
BRANCH  13  14
ATOM     14  S   LIG    1       -0.763   4.113   1.281  0.00  0.00    +2.500 S 
ATOM     15  O   LIG    1       -1.606   4.606   0.248  0.00  0.00    -0.930 OA
ATOM     16  O   LIG    1        0.548   4.628   1.465  0.00  0.00    -0.930 OA
BRANCH  14  17
ATOM     17  C   LIG    1       -1.608   4.533   2.769  0.00  0.00    -0.650 A 
ATOM     18  C   LIG    1       -2.981   4.692   2.762  0.00  0.00    +0.130 A 
ATOM     19  C   LIG    1       -3.645   5.016   3.931  0.00  0.00    +0.030 A 
ATOM     20  C   LIG    1       -2.934   5.192   5.104  0.00  0.00    -0.040 A 
ATOM     21  C   LIG    1       -1.559   5.038   5.109  0.00  0.00    +0.030 A 
ATOM     22 BR   LIG    1       -3.841   5.644   6.701  0.00  0.00    -0.040 Br
ATOM     23  C   LIG    1       -0.897   4.709   3.941  0.00  0.00    +0.130 A 
ENDBRANCH  14  17
ENDBRANCH  13  14
ENDBRANCH   1  13
TORSDOF 7
