REMARK  Name = ZINCpe00000c7VSp.0
REMARK                            x       y       z     vdW  Elec       q    Type
REMARK                         _______ _______ _______ _____ _____    ______ ____
ROOT
ATOM      1  C   LIG    1       -3.811   0.404   1.517  0.00  0.00    +0.590 C 
ATOM      2  N   LIG    1       -2.997   0.777   0.510  0.00  0.00    -0.720 N 
ATOM      3  H   LIG    1       -2.947   0.241  -0.297  0.00  0.00    +0.390 HD
ATOM      4  O   LIG    1       -3.874   1.076   2.529  0.00  0.00    -0.520 OA
ENDROOT
BRANCH   2   5
ATOM      5  C   LIG    1       -2.187   1.991   0.634  0.00  0.00    +0.240 C 
ATOM      6  C   LIG    1       -0.777   1.646   1.226  0.00  0.00    +0.030 C 
ATOM      7  C   LIG    1       -0.013   1.086   0.008  0.00  0.00    -0.010 C 
ATOM      8  C   LIG    1        1.411   1.684  -0.002  0.00  0.00    +0.270 C 
ATOM      9  N   LIG    1        1.674   1.982  -1.432  0.00  0.00    -0.630 N 
ATOM     10  C   LIG    1        0.393   2.557  -1.909  0.00  0.00    +0.260 C 
ATOM     11  C   LIG    1        2.808   1.778  -2.131  0.00  0.00    +0.540 C 
ATOM     12  O   LIG    1        3.777   1.292  -1.586  0.00  0.00    -0.540 OA
ATOM     13  C   LIG    1       -0.691   1.667  -1.262  0.00  0.00    -0.020 C 
ATOM     14  C   LIG    1       -1.838   2.569  -0.761  0.00  0.00    +0.050 C 
BRANCH  11  15
ATOM     15  C   LIG    1        2.872   2.152  -3.589  0.00  0.00    -0.030 C 
ATOM     16  C   LIG    1        2.279   1.086  -4.526  0.00  0.00    +0.030 C 
ATOM     17  C   LIG    1        3.449   1.386  -5.478  0.00  0.00    +0.010 C 
ATOM     18  C   LIG    1        4.233   1.857  -4.242  0.00  0.00    +0.050 C 
ENDBRANCH  11  15
ENDBRANCH   2   5
BRANCH   1  23
ATOM     19  C   LIG    1       -6.049  -2.480   1.803  0.00  0.00    -0.230 A 
ATOM     20  C   LIG    1       -5.502  -2.665   0.547  0.00  0.00    +0.260 A 
ATOM     21  N   LIG    1       -4.645  -1.660   0.306  0.00  0.00    -0.520 N 
ATOM     22  H   LIG    1       -4.125  -1.548  -0.505  0.00  0.00    +0.420 HD
ATOM     23  C   LIG    1       -4.623  -0.813   1.393  0.00  0.00    -0.060 A 
ATOM     24  C   LIG    1       -5.479  -1.302   2.334  0.00  0.00    +0.120 A 
BRANCH  19  28
ATOM     25  N   LIG    1       -7.492  -4.453   1.836  0.00  0.00    -0.850 N 
ATOM     26  H   LIG    1       -8.142  -5.027   2.272  0.00  0.00    +0.410 HD
ATOM     27  H   LIG    1       -7.170  -4.673   0.948  0.00  0.00    +0.400 HD
ATOM     28  C   LIG    1       -7.037  -3.351   2.465  0.00  0.00    +0.590 C 
ATOM     29  O   LIG    1       -7.441  -3.076   3.578  0.00  0.00    -0.540 OA
ENDBRANCH  19  28
ENDBRANCH   1  23
TORSDOF 4
