REMARK  Name = ZINCvU0000000CVq.0
REMARK                            x       y       z     vdW  Elec       q    Type
REMARK                         _______ _______ _______ _____ _____    ______ ____
ROOT
ATOM      1  N   LIG    1       -2.767  -1.889   0.131  0.00  0.00    -0.630 N 
ATOM      2  C   LIG    1       -4.004  -2.396  -0.047  0.00  0.00    +0.700 C 
ATOM      3  N   LIG    1       -4.479  -3.327   0.804  0.00  0.00    -0.740 N 
ATOM      4  H   LIG    1       -3.931  -3.633   1.544  0.00  0.00    +0.400 HD
ATOM      5  O   LIG    1       -4.690  -2.013  -0.974  0.00  0.00    -0.560 OA
ENDROOT
BRANCH   1   7
ATOM      6  C   LIG    1       -2.353  -1.422   2.495  0.00  0.00    +0.010 C 
ATOM      7  C   LIG    1       -1.972  -2.289   1.294  0.00  0.00    +0.260 C 
ENDBRANCH   1   7
BRANCH   1   8
ATOM      8  C   LIG    1       -2.219  -0.938  -0.840  0.00  0.00    +0.360 C 
BRANCH   8   9
ATOM      9  C   LIG    1       -3.177   0.213  -1.010  0.00  0.00    -0.080 A 
ATOM     10  C   LIG    1       -3.884   0.690   0.077  0.00  0.00    +0.060 A 
ATOM     11  C   LIG    1       -4.758   1.750  -0.077  0.00  0.00    -0.020 A 
ATOM     12  C   LIG    1       -4.933   2.326  -1.323  0.00  0.00    +0.100 A 
ATOM     13  C   LIG    1       -4.228   1.844  -2.413  0.00  0.00    -0.020 A 
ATOM     14  F   LIG    1       -5.791   3.359  -1.476  0.00  0.00    -0.140 F 
ATOM     15  C   LIG    1       -3.351   0.788  -2.256  0.00  0.00    +0.070 A 
ENDBRANCH   8   9
BRANCH   8  16
ATOM     16  C   LIG    1       -2.023  -1.629  -2.165  0.00  0.00    -0.100 A 
ATOM     17  C   LIG    1       -2.670  -2.823  -2.424  0.00  0.00    +0.040 A 
ATOM     18  C   LIG    1       -2.494  -3.455  -3.641  0.00  0.00    +0.000 A 
ATOM     19  C   LIG    1       -1.664  -2.897  -4.595  0.00  0.00    +0.000 A 
ATOM     20  C   LIG    1       -1.013  -1.705  -4.334  0.00  0.00    +0.000 A 
ATOM     21  C   LIG    1       -1.193  -1.072  -3.119  0.00  0.00    +0.000 A 
ENDBRANCH   8  16
ENDBRANCH   1   8
BRANCH   3  22
ATOM     22  C   LIG    1       -5.822  -3.878   0.611  0.00  0.00    +0.330 C 
BRANCH  22  23
ATOM     23  C   LIG    1       -6.109  -4.893   1.688  0.00  0.00    -0.110 A 
ATOM     24  C   LIG    1       -5.791  -6.222   1.485  0.00  0.00    +0.040 A 
ATOM     25  C   LIG    1       -6.047  -7.156   2.473  0.00  0.00    -0.040 A 
ATOM     26  C   LIG    1       -6.634  -6.761   3.664  0.00  0.00    +0.110 A 
ATOM     27  C   LIG    1       -6.959  -5.423   3.866  0.00  0.00    +0.100 A 
ATOM     28  C   LIG    1       -6.694  -4.492   2.875  0.00  0.00    -0.010 A 
BRANCH  27  29
ATOM     29  O   LIG    1       -7.534  -5.030   5.034  0.00  0.00    -0.310 OA
ATOM     30  C   LIG    1       -7.840  -3.640   5.172  0.00  0.00    +0.240 C 
ENDBRANCH  27  29
BRANCH  26  31
ATOM     31  O   LIG    1       -6.892  -7.679   4.634  0.00  0.00    -0.310 OA
ATOM     32  C   LIG    1       -6.532  -9.034   4.357  0.00  0.00    +0.240 C 
ENDBRANCH  26  31
ENDBRANCH  22  23
ENDBRANCH   3  22
TORSDOF 8
