REMARK  Name = ZINCvU0000000Cvq.1
REMARK                            x       y       z     vdW  Elec       q    Type
REMARK                         _______ _______ _______ _____ _____    ______ ____
ROOT
ATOM      1  C   LIG    1       -0.020   1.131  -0.020  0.00  0.00    +0.360 C 
ATOM      2  C   LIG    1       -0.704   1.604   1.242  0.00  0.00    -0.210 C 
ATOM      3  C   LIG    1        0.238   2.233   1.984  0.00  0.00    +0.110 C 
ATOM      4  C   LIG    1        1.527   2.199   1.264  0.00  0.00    +0.520 C 
ATOM      5  O   LIG    1        2.566   2.680   1.670  0.00  0.00    -0.480 OA
ATOM      6  N   LIG    1        1.381   1.555   0.091  0.00  0.00    -0.500 N 
ENDROOT
BRANCH   1  10
ATOM      7  C   LIG    1       -1.834   2.934  -3.441  0.00  0.00    -0.050 A 
ATOM      8  C   LIG    1       -2.064   1.601  -3.159  0.00  0.00    +0.020 A 
ATOM      9  C   LIG    1       -1.477   1.017  -2.052  0.00  0.00    +0.040 A 
ATOM     10  C   LIG    1       -0.659   1.767  -1.227  0.00  0.00    -0.100 A 
ATOM     11  C   LIG    1       -0.433   3.102  -1.506  0.00  0.00    +0.020 A 
ATOM     12  C   LIG    1       -1.016   3.684  -2.616  0.00  0.00    +0.010 A 
BRANCH   7  14
ATOM     13  C   LIG    1       -3.997   3.476  -4.526  0.00  0.00    +0.040 C 
ATOM     14  C   LIG    1       -2.475   3.570  -4.648  0.00  0.00    -0.030 C 
ATOM     15  C   LIG    1       -2.017   2.841  -5.912  0.00  0.00    +0.040 C 
ATOM     16  C   LIG    1       -2.060   5.041  -4.729  0.00  0.00    +0.030 C 
ENDBRANCH   7  14
ENDBRANCH   1  10
BRANCH   6  17
ATOM     17  C   LIG    1        2.378   1.331  -0.847  0.00  0.00    +0.270 A 
ATOM     18  N   LIG    1        2.215   0.703  -1.970  0.00  0.00    -0.490 NA
ATOM     19  C   LIG    1        3.274   0.584  -2.748  0.00  0.00    +0.250 A 
ATOM     20  C   LIG    1        4.388   1.130  -2.256  0.00  0.00    -0.110 A 
ATOM     21  S   LIG    1        4.004   1.838  -0.689  0.00  0.00    +0.210 S 
ENDBRANCH   6  17
BRANCH   3  22
ATOM     22  O   LIG    1        0.031   2.804   3.193  0.00  0.00    -0.420 OA
ATOM     23  H   LIG    1        0.821   3.208   3.578  0.00  0.00    +0.420 HD
ENDBRANCH   3  22
BRANCH   2  24
ATOM     24  C   LIG    1       -2.114   1.417   1.594  0.00  0.00    +0.480 C 
ATOM     25  O   LIG    1       -2.852   2.381   1.682  0.00  0.00    -0.420 OA
BRANCH  24  26
ATOM     26  C   LIG    1       -2.639   0.059   1.844  0.00  0.00    -0.170 A 
ATOM     27  C   LIG    1       -1.773  -1.037   1.856  0.00  0.00    +0.100 A 
ATOM     28  C   LIG    1       -2.268  -2.301   2.096  0.00  0.00    -0.010 A 
ATOM     29  C   LIG    1       -3.625  -2.487   2.312  0.00  0.00    +0.140 A 
ATOM     30  C   LIG    1       -4.491  -1.404   2.295  0.00  0.00    -0.010 A 
ATOM     31  F   LIG    1       -4.106  -3.729   2.541  0.00  0.00    -0.130 F 
ATOM     32  C   LIG    1       -4.006  -0.135   2.062  0.00  0.00    +0.120 A 
ENDBRANCH  24  26
ENDBRANCH   2  24
TORSDOF 6
