REMARK  Name = ZINCb80000006kOs.0
REMARK                            x       y       z     vdW  Elec       q    Type
REMARK                         _______ _______ _______ _____ _____    ______ ____
ROOT
ATOM      1  C   LIG    1       -1.264  -0.758   0.010  0.00  0.00    -0.070 A 
ATOM      2  C   LIG    1       -1.408  -2.118   0.004  0.00  0.00    +0.110 A 
ATOM      3  C   LIG    1       -2.818  -2.309   0.017  0.00  0.00    -0.090 A 
ATOM      4  N   LIG    1       -3.351  -1.111   0.028  0.00  0.00    -0.290 NA
ATOM      5  O   LIG    1       -2.509  -0.245   0.031  0.00  0.00    +0.170 OA
ENDROOT
BRANCH   1   6
ATOM      6  C   LIG    1        0.002  -0.004   0.002  0.00  0.00    +0.560 C 
ATOM      7  O   LIG    1        1.062  -0.597  -0.011  0.00  0.00    -0.470 OA
BRANCH   6   9
ATOM      8  C   LIG    1        1.268   2.020   0.001  0.00  0.00    +0.290 C 
ATOM      9  O   LIG    1       -0.016   1.344   0.009  0.00  0.00    -0.340 OA
ENDBRANCH   6   9
ENDBRANCH   1   6
BRANCH   3  10
ATOM     10  C   LIG    1       -3.537  -3.600   0.017  0.00  0.00    +0.570 C 
ATOM     11  O   LIG    1       -2.917  -4.637   0.006  0.00  0.00    -0.430 OA
ENDBRANCH   3  10
TORSDOF 3
