REMARK  Name = ZINCpk00000KfLPd.0
REMARK                            x       y       z     vdW  Elec       q    Type
REMARK                         _______ _______ _______ _____ _____    ______ ____
ROOT
ATOM      1  C   LIG    1       -0.753   1.758  -3.426  0.00  0.00    +0.350 A 
ATOM      2  N   LIG    1        0.055   1.462  -4.439  0.00  0.00    -0.550 NA
ATOM      3  C   LIG    1        1.306   1.108  -4.219  0.00  0.00    +0.510 A 
ATOM      4  N   LIG    1        1.801   1.031  -3.001  0.00  0.00    -0.520 NA
ATOM      5  C   LIG    1        1.054   1.310  -1.938  0.00  0.00    +0.180 A 
ATOM      6  C   LIG    1        1.662   1.206  -0.565  0.00  0.00    +0.080 C 
ATOM      7  C   LIG    1        0.791   1.951   0.448  0.00  0.00    +0.240 C 
ATOM      8  N   LIG    1       -0.602   1.507   0.287  0.00  0.00    -0.510 NA
ATOM      9  C   LIG    1       -1.160   2.024  -0.968  0.00  0.00    +0.310 C 
ATOM     10  C   LIG    1       -0.255   1.687  -2.120  0.00  0.00    -0.190 A 
ENDROOT
BRANCH   1  12
ATOM     11  C   LIG    1       -2.132   3.372  -4.439  0.00  0.00    +0.230 C 
ATOM     12  N   LIG    1       -2.067   2.129  -3.659  0.00  0.00    -0.490 N 
ATOM     13  C   LIG    1       -2.809   1.050  -4.325  0.00  0.00    +0.230 C 
ENDBRANCH   1  12
BRANCH   8  14
ATOM     14  C   LIG    1       -0.697   0.042   0.341  0.00  0.00    +0.150 C 
BRANCH  14  15
ATOM     15  C   LIG    1       -0.321  -0.442   1.743  0.00  0.00    +0.230 C 
BRANCH  15  16
ATOM     16  O   LIG    1       -1.283   0.034   2.686  0.00  0.00    -0.540 OA
ATOM     17  H   LIG    1       -2.185  -0.267   2.513  0.00  0.00    +0.370 HD
ENDBRANCH  15  16
BRANCH  15  18
ATOM     18  C   LIG    1       -0.298  -1.972   1.766  0.00  0.00    +0.160 C 
BRANCH  18  19
ATOM     19  O   LIG    1        0.166  -2.422   3.040  0.00  0.00    -0.300 OA
BRANCH  19  20
ATOM     20  C   LIG    1        0.246  -3.767   3.227  0.00  0.00    +0.120 A 
ATOM     21  C   LIG    1       -0.120  -4.633   2.208  0.00  0.00    -0.040 A 
ATOM     22  C   LIG    1       -0.034  -5.998   2.398  0.00  0.00    +0.030 A 
ATOM     23  C   LIG    1        0.408  -6.503   3.609  0.00  0.00    +0.060 A 
ATOM     24  C   LIG    1        0.769  -5.639   4.630  0.00  0.00    +0.030 A 
ATOM     25  F   LIG    1        0.487  -7.838   3.796  0.00  0.00    -0.140 F 
ATOM     26  C   LIG    1        0.688  -4.273   4.440  0.00  0.00    +0.020 A 
ENDBRANCH  19  20
ENDBRANCH  18  19
ENDBRANCH  15  18
ENDBRANCH  14  15
ENDBRANCH   8  14
TORSDOF 7
