REMARK  Name = ZINCpk00000ebAtV.0
REMARK                            x       y       z     vdW  Elec       q    Type
REMARK                         _______ _______ _______ _____ _____    ______ ____
ROOT
ATOM      1  O   LIG    1        4.830  -5.066   3.594  0.00  0.00    -0.490 OA
ATOM      2  C   LIG    1        5.141  -5.577   2.535  0.00  0.00    +0.560 C 
ATOM      3  N   LIG    1        4.775  -4.998   1.374  0.00  0.00    -0.730 N 
ATOM      4  H   LIG    1        5.023  -5.406   0.530  0.00  0.00    +0.400 HD
ENDROOT
BRANCH   2   5
ATOM      5  C   LIG    1        5.917  -6.830   2.521  0.00  0.00    -0.110 A 
ATOM      6  C   LIG    1        6.271  -7.422   1.318  0.00  0.00    +0.070 A 
ATOM      7  C   LIG    1        7.006  -8.601   1.295  0.00  0.00    +0.010 A 
ATOM      8  C   LIG    1        7.391  -9.211   2.451  0.00  0.00    +0.080 A 
ATOM      9  C   LIG    1        7.050  -8.649   3.693  0.00  0.00    -0.110 A 
ATOM     10  C   LIG    1        7.435  -9.258   4.901  0.00  0.00    +0.080 A 
ATOM     11  C   LIG    1        7.069  -8.656   6.072  0.00  0.00    -0.030 A 
ATOM     12  C   LIG    1        6.337  -7.473   6.045  0.00  0.00    +0.300 A 
ATOM     13  N   LIG    1        5.980  -6.909   4.915  0.00  0.00    -0.440 NA
ATOM     14  C   LIG    1        6.306  -7.445   3.739  0.00  0.00    +0.160 A 
ENDBRANCH   2   5
BRANCH   3  15
ATOM     15  C   LIG    1        4.004  -3.753   1.388  0.00  0.00    +0.270 C 
BRANCH  15  16
ATOM     16  C   LIG    1        3.722  -3.312  -0.050  0.00  0.00    +0.370 C 
BRANCH  16  17
ATOM     17  N   LIG    1        2.950  -2.066  -0.036  0.00  0.00    -0.430 N 
ATOM     18  N   LIG    1        1.553  -1.958  -0.023  0.00  0.00    -0.280 NA
ATOM     19  C   LIG    1        1.248  -0.682  -0.013  0.00  0.00    +0.300 A 
ATOM     20  C   LIG    1        0.002  -0.004   0.002  0.00  0.00    +0.040 A 
ATOM     21  C   LIG    1       -0.016   1.351   0.009  0.00  0.00    +0.110 A 
ATOM     22  C   LIG    1        1.197   2.070   0.002  0.00  0.00    -0.020 A 
ATOM     23  C   LIG    1        2.375   1.423  -0.013  0.00  0.00    +0.300 A 
ATOM     24  N   LIG    1        2.421   0.049  -0.021  0.00  0.00    -0.480 N 
ATOM     25  C   LIG    1        3.456  -0.816  -0.035  0.00  0.00    +0.650 A 
ATOM     26  O   LIG    1        4.638  -0.520  -0.044  0.00  0.00    -0.530 OA
ENDBRANCH  16  17
ENDBRANCH  15  16
ENDBRANCH   3  15
TORSDOF 4
