REMARK  Name = ZINCpk00000KfLw9.0
REMARK                            x       y       z     vdW  Elec       q    Type
REMARK                         _______ _______ _______ _____ _____    ______ ____
ROOT
ATOM      1  N   LIG    1       -5.714   2.484   4.394  0.00  0.00    -0.740 N 
ATOM      2  H   LIG    1       -5.586   3.378   4.039  0.00  0.00    +0.400 HD
ATOM      3  C   LIG    1       -4.799   1.525   4.151  0.00  0.00    +0.710 C 
ATOM      4  N   LIG    1       -3.659   1.831   3.500  0.00  0.00    -0.630 N 
ATOM      5  C   LIG    1       -3.443   3.176   2.947  0.00  0.00    +0.280 C 
ATOM      6  C   LIG    1       -3.025   3.037   1.479  0.00  0.00    +0.170 C 
ATOM      7  N   LIG    1       -1.870   2.134   1.386  0.00  0.00    -0.530 NA
ATOM      8  C   LIG    1       -2.213   0.781   1.842  0.00  0.00    +0.170 C 
ATOM      9  C   LIG    1       -2.598   0.827   3.325  0.00  0.00    +0.310 C 
ATOM     10  O   LIG    1       -5.002   0.384   4.519  0.00  0.00    -0.580 OA
ENDROOT
BRANCH   1  11
ATOM     11  C   LIG    1       -6.902   2.178   5.196  0.00  0.00    +0.420 C 
BRANCH  11  16
ATOM     12  N   LIG    1       -7.679   4.351   6.292  0.00  0.00    -0.470 N 
ATOM     13  C   LIG    1       -8.630   5.271   6.002  0.00  0.00    +0.380 A 
ATOM     14  N   LIG    1       -9.234   4.877   4.914  0.00  0.00    -0.290 NA
ATOM     15  N   LIG    1       -8.716   3.772   4.508  0.00  0.00    -0.270 NA
ATOM     16  C   LIG    1       -7.758   3.412   5.318  0.00  0.00    +0.150 A 
BRANCH  12  18
ATOM     17  C   LIG    1       -5.429   5.004   6.994  0.00  0.00    +0.040 C 
ATOM     18  C   LIG    1       -6.753   4.368   7.426  0.00  0.00    +0.300 C 
ENDBRANCH  12  18
ENDBRANCH  11  16
ENDBRANCH   1  11
BRANCH   7  19
ATOM     19  C   LIG    1       -1.331   2.109   0.020  0.00  0.00    +0.230 C 
BRANCH  19  20
ATOM     20  C   LIG    1       -0.014   1.375   0.013  0.00  0.00    -0.110 A 
ATOM     21  C   LIG    1        1.172   2.084   0.004  0.00  0.00    +0.060 A 
ATOM     22  C   LIG    1        2.380   1.411  -0.008  0.00  0.00    +0.000 A 
ATOM     23  C   LIG    1        2.403   0.029  -0.011  0.00  0.00    +0.040 A 
ATOM     24  C   LIG    1        1.218  -0.682  -0.002  0.00  0.00    -0.010 A 
ATOM     25  C   LIG    1        0.007  -0.009   0.010  0.00  0.00    +0.100 A 
ATOM     26  F   LIG    1       -1.152  -0.704   0.019  0.00  0.00    -0.140 F 
ENDBRANCH  19  20
ENDBRANCH   7  19
TORSDOF 5
