REMARK  Name = ZINCrH000004mgJr.0
REMARK                            x       y       z     vdW  Elec       q    Type
REMARK                         _______ _______ _______ _____ _____    ______ ____
ROOT
ATOM      1  C   LIG    1       -3.049   1.656   0.247  0.00  0.00    +0.390 C 
ENDROOT
BRANCH   1   6
ATOM      2  C   LIG    1       -5.652  -0.690   1.663  0.00  0.00    +0.170 A 
ATOM      3  C   LIG    1       -5.373  -1.861   0.975  0.00  0.00    -0.150 A 
ATOM      4  C   LIG    1       -4.340  -1.891   0.051  0.00  0.00    +0.170 A 
ATOM      5  C   LIG    1       -3.588  -0.748  -0.184  0.00  0.00    -0.040 A 
ATOM      6  C   LIG    1       -3.868   0.417   0.503  0.00  0.00    -0.020 A 
ATOM      7  C   LIG    1       -4.893   0.448   1.429  0.00  0.00    -0.020 A 
BRANCH   2   9
ATOM      8  C   LIG    1       -7.399  -1.869   2.765  0.00  0.00    +0.250 C 
ATOM      9  O   LIG    1       -6.663  -0.659   2.570  0.00  0.00    -0.310 OA
ENDBRANCH   2   9
BRANCH   4  10
ATOM     10  O   LIG    1       -4.064  -3.037  -0.624  0.00  0.00    -0.310 OA
ATOM     11  C   LIG    1       -4.879  -4.174  -0.332  0.00  0.00    +0.250 C 
ENDBRANCH   4  10
ENDBRANCH   1   6
BRANCH   1  12
ATOM     12  C   LIG    1       -2.019   1.812   1.337  0.00  0.00    +0.190 A 
ATOM     13  N   LIG    1       -2.256   2.211   2.556  0.00  0.00    -0.470 NA
ATOM     14  C   LIG    1       -1.106   2.236   3.245  0.00  0.00    +0.140 A 
ATOM     15  C   LIG    1       -0.119   1.831   2.423  0.00  0.00    +0.130 A 
ATOM     16  N   LIG    1       -0.698   1.558   1.213  0.00  0.00    -0.450 N 
ATOM     17  C   LIG    1       -0.013   1.086   0.008  0.00  0.00    +0.330 C 
ENDBRANCH   1  12
BRANCH   1  18
ATOM     18  N   LIG    1       -3.927   2.829   0.235  0.00  0.00    -0.700 N 
ATOM     19  H   LIG    1       -4.770   2.808   0.715  0.00  0.00    +0.410 HD
ATOM     20  C   LIG    1       -3.565   3.935  -0.444  0.00  0.00    +0.570 C 
ATOM     21  O   LIG    1       -2.509   3.961  -1.046  0.00  0.00    -0.530 OA
BRANCH  20  22
ATOM     22  C   LIG    1       -4.451   5.118  -0.457  0.00  0.00    -0.120 A 
ATOM     23  C   LIG    1       -5.667   5.090   0.229  0.00  0.00    +0.060 A 
ATOM     24  C   LIG    1       -6.488   6.198   0.216  0.00  0.00    +0.040 A 
ATOM     25  C   LIG    1       -6.113   7.333  -0.482  0.00  0.00    -0.070 A 
ATOM     26  C   LIG    1       -4.910   7.366  -1.167  0.00  0.00    +0.040 A 
ATOM     27 BR   LIG    1       -7.247   8.846  -0.499  0.00  0.00    -0.040 Br
ATOM     28  C   LIG    1       -4.079   6.265  -1.159  0.00  0.00    +0.100 A 
ENDBRANCH  20  22
ENDBRANCH   1  18
TORSDOF 6
