REMARK  Name = ZINCqH0000003YVe.0
REMARK                            x       y       z     vdW  Elec       q    Type
REMARK                         _______ _______ _______ _____ _____    ______ ____
ROOT
ATOM      1  C   LIG    1        0.716   3.404  -0.097  0.00  0.00    +0.520 C 
ATOM      2  N   LIG    1        1.184   2.180  -0.412  0.00  0.00    -0.670 N 
ATOM      3  H   LIG    1        1.170   1.470   0.249  0.00  0.00    +0.410 HD
ATOM      4  O   LIG    1        0.642   4.263  -0.950  0.00  0.00    -0.510 OA
ENDROOT
BRANCH   2   5
ATOM      5  C   LIG    1        1.689   1.933  -1.693  0.00  0.00    +0.130 A 
ATOM      6  C   LIG    1        2.350   2.938  -2.386  0.00  0.00    +0.070 A 
ATOM      7  C   LIG    1        2.853   2.689  -3.648  0.00  0.00    +0.020 A 
ATOM      8  C   LIG    1        2.689   1.443  -4.226  0.00  0.00    +0.100 A 
ATOM      9  C   LIG    1        2.026   0.442  -3.541  0.00  0.00    -0.660 A 
ATOM     10  C   LIG    1        1.526   0.682  -2.276  0.00  0.00    +0.090 A 
BRANCH   9  11
ATOM     11  S   LIG    1        1.821  -1.144  -4.281  0.00  0.00    +2.690 S 
ATOM     12  O   LIG    1        1.639  -2.065  -3.214  0.00  0.00    -0.950 OA
ATOM     13  O   LIG    1        2.852  -1.271  -5.250  0.00  0.00    -0.950 OA
BRANCH  11  14
ATOM     14  N   LIG    1        0.393  -1.112  -5.119  0.00  0.00    -1.000 NA
ATOM     15  C   LIG    1       -0.854  -1.501  -4.457  0.00  0.00    +0.300 C 
ATOM     16  C   LIG    1        0.377  -0.695  -6.524  0.00  0.00    +0.300 C 
ENDBRANCH  11  14
ENDBRANCH   9  11
ENDBRANCH   2   5
BRANCH   1  17
ATOM     17  C   LIG    1        0.284   3.705   1.315  0.00  0.00    +0.050 C 
BRANCH  17  18
ATOM     18  C   LIG    1       -0.236   5.117   1.391  0.00  0.00    -0.070 A 
ATOM     19  C   LIG    1       -1.149   5.569   0.457  0.00  0.00    +0.050 A 
ATOM     20  C   LIG    1       -1.630   6.863   0.529  0.00  0.00    -0.010 A 
ATOM     21  C   LIG    1       -1.190   7.709   1.530  0.00  0.00    +0.000 A 
ATOM     22  C   LIG    1       -0.273   7.259   2.461  0.00  0.00    +0.000 A 
ATOM     23  C   LIG    1        0.204   5.963   2.392  0.00  0.00    +0.010 A 
ENDBRANCH  17  18
BRANCH  17  24
ATOM     24  C   LIG    1       -0.821   2.732   1.730  0.00  0.00    +0.000 C 
ATOM     25  C   LIG    1       -2.005   2.867   0.771  0.00  0.00    +0.020 C 
BRANCH  24  27
ATOM     26  C   LIG    1       -0.135   2.776   4.132  0.00  0.00    +0.010 C 
ATOM     27  C   LIG    1       -1.278   3.055   3.153  0.00  0.00    +0.020 C 
ENDBRANCH  24  27
ENDBRANCH  17  24
ENDBRANCH   1  17
TORSDOF 7
