REMARK  Name = ZINCvU00000004Lj.0
REMARK                            x       y       z     vdW  Elec       q    Type
REMARK                         _______ _______ _______ _____ _____    ______ ____
ROOT
ATOM      1  C   LIG    1       -0.847   2.104   1.220  0.00  0.00    +0.190 C 
ATOM      2  C   LIG    1       -0.098   1.675  -0.043  0.00  0.00    +0.030 C 
ENDROOT
BRANCH   1   3
ATOM      3  C   LIG    1        0.024   1.867   2.426  0.00  0.00    +0.520 C 
ATOM      4  N   LIG    1        1.168   2.563   2.579  0.00  0.00    -0.670 N 
ATOM      5  H   LIG    1        1.401   3.259   1.945  0.00  0.00    +0.410 HD
ATOM      6  O   LIG    1       -0.304   1.050   3.260  0.00  0.00    -0.500 OA
BRANCH   4   7
ATOM      7  C   LIG    1        2.019   2.282   3.651  0.00  0.00    +0.160 A 
ATOM      8  C   LIG    1        1.513   1.718   4.813  0.00  0.00    +0.030 A 
ATOM      9  C   LIG    1        2.357   1.435   5.870  0.00  0.00    +0.030 A 
ATOM     10  C   LIG    1        3.707   1.724   5.782  0.00  0.00    -0.010 A 
ATOM     11  C   LIG    1        4.224   2.291   4.634  0.00  0.00    +0.040 A 
ATOM     12  C   LIG    1        3.385   2.574   3.560  0.00  0.00    -0.080 A 
BRANCH  12  13
ATOM     13  C   LIG    1        3.936   3.183   2.325  0.00  0.00    -0.050 A 
ATOM     14  C   LIG    1        3.650   2.622   1.081  0.00  0.00    +0.000 A 
ATOM     15  C   LIG    1        4.160   3.196  -0.066  0.00  0.00    +0.000 A 
ATOM     16  C   LIG    1        4.964   4.319   0.018  0.00  0.00    +0.000 A 
ATOM     17  C   LIG    1        5.255   4.876   1.250  0.00  0.00    +0.010 A 
ATOM     18  C   LIG    1        4.745   4.314   2.403  0.00  0.00    +0.030 A 
ENDBRANCH  12  13
ENDBRANCH   4   7
ENDBRANCH   1   3
BRANCH   1  19
ATOM     19  N   LIG    1       -2.083   1.321   1.346  0.00  0.00    -0.500 NA
ATOM     20  C   LIG    1       -3.066   1.719   0.330  0.00  0.00    +0.200 C 
BRANCH  19  21
ATOM     21  C   LIG    1       -1.803  -0.119   1.272  0.00  0.00    +0.230 C 
BRANCH  21  24
ATOM     22  N   LIG    1       -3.020  -2.240   1.649  0.00  0.00    -0.670 N 
ATOM     23  H   LIG    1       -2.236  -2.713   1.329  0.00  0.00    +0.410 HD
ATOM     24  C   LIG    1       -3.041  -0.892   1.647  0.00  0.00    +0.520 C 
ATOM     25  O   LIG    1       -4.057  -0.301   1.948  0.00  0.00    -0.490 OA
BRANCH  22  33
ATOM     26  C   LIG    1       -3.409  -4.888   0.684  0.00  0.00    +0.110 C 
ATOM     27  C   LIG    1       -4.356  -4.252   1.670  0.00  0.00    -0.110 A 
ATOM     28  C   LIG    1       -5.447  -4.959   2.134  0.00  0.00    +0.070 A 
ATOM     29  C   LIG    1       -6.320  -4.373   3.034  0.00  0.00    -0.110 A 
ATOM     30  C   LIG    1       -6.098  -3.081   3.476  0.00  0.00    +0.070 A 
ATOM     31  C   LIG    1       -5.005  -2.372   3.018  0.00  0.00    +0.040 A 
ATOM     32 BR   LIG    1       -7.818  -5.341   3.663  0.00  0.00    -0.050 Br
ATOM     33  C   LIG    1       -4.128  -2.957   2.115  0.00  0.00    +0.170 A 
ENDBRANCH  22  33
ENDBRANCH  21  24
ENDBRANCH  19  21
ENDBRANCH   1  19
TORSDOF 7
