REMARK  Name = ZINCpe000000Wobo.0
REMARK                            x       y       z     vdW  Elec       q    Type
REMARK                         _______ _______ _______ _____ _____    ______ ____
ROOT
ATOM      1  C   LIG    1        4.235   0.066  -1.481  0.00  0.00    +0.510 C 
ATOM      2  N   LIG    1        4.811  -0.258  -2.655  0.00  0.00    -0.610 N 
ATOM      3  C   LIG    1        6.101  -0.975  -2.639  0.00  0.00    +0.270 C 
ATOM      4  C   LIG    1        6.129  -2.090  -3.703  0.00  0.00    +0.050 C 
ATOM      5  C   LIG    1        4.786  -2.785  -3.752  0.00  0.00    +0.210 C 
ATOM      6  N   LIG    1        3.950  -2.139  -4.762  0.00  0.00    -0.460 N 
ATOM      7  C   LIG    1        3.196  -1.022  -4.332  0.00  0.00    +0.180 C 
ATOM      8  C   LIG    1        4.144   0.117  -3.885  0.00  0.00    +0.310 C 
ATOM      9  O   LIG    1        4.774  -0.237  -0.437  0.00  0.00    -0.530 OA
ENDROOT
BRANCH   6  10
ATOM     10  C   LIG    1        3.145  -3.063  -5.405  0.00  0.00    +0.410 A 
ATOM     11  N   LIG    1        3.311  -3.529  -6.623  0.00  0.00    -0.300 NA
ATOM     12  N   LIG    1        2.389  -4.375  -6.910  0.00  0.00    -0.030 NA
ATOM     13  N   LIG    1        1.574  -4.503  -5.920  0.00  0.00    -0.070 NA
ATOM     14  N   LIG    1        2.037  -3.652  -4.900  0.00  0.00    -0.400 N 
ATOM     15  C   LIG    1        1.445  -3.447  -3.576  0.00  0.00    +0.370 C 
ENDBRANCH   6  10
BRANCH   1  16
ATOM     16  C   LIG    1        2.921   0.803  -1.464  0.00  0.00    +0.050 C 
BRANCH  16  17
ATOM     17  C   LIG    1        2.490   1.045  -0.016  0.00  0.00    +0.100 C 
BRANCH  17  21
ATOM     18  C   LIG    1       -1.237   3.137   0.031  0.00  0.00    +0.130 A 
ATOM     19  C   LIG    1       -1.218   1.750   0.017  0.00  0.00    -0.080 A 
ATOM     20  C   LIG    1       -0.013   1.076   0.008  0.00  0.00    +0.040 A 
ATOM     21  C   LIG    1        1.176   1.783   0.000  0.00  0.00    -0.120 A 
ATOM     22  C   LIG    1        1.160   3.165   0.007  0.00  0.00    +0.060 A 
ATOM     23  C   LIG    1       -0.043   3.844   0.023  0.00  0.00    -0.020 A 
BRANCH  18  25
ATOM     24  C   LIG    1       -3.611   3.009   0.053  0.00  0.00    +0.250 C 
ATOM     25  O   LIG    1       -2.422   3.802   0.045  0.00  0.00    -0.320 OA
ENDBRANCH  18  25
ENDBRANCH  17  21
ENDBRANCH  16  17
ENDBRANCH   1  16
TORSDOF 5
