REMARK  Name = ZINCrH000004jXLT.0
REMARK                            x       y       z     vdW  Elec       q    Type
REMARK                         _______ _______ _______ _____ _____    ______ ____
ROOT
ATOM      1  C   LIG    1       -2.948  -1.814  -1.412  0.00  0.00    +0.240 C 
ENDROOT
BRANCH   1   2
ATOM      2  C   LIG    1       -3.445  -1.862  -2.834  0.00  0.00    -0.120 A 
ATOM      3  C   LIG    1       -4.208  -0.823  -3.333  0.00  0.00    +0.080 A 
ATOM      4  C   LIG    1       -4.660  -0.861  -4.638  0.00  0.00    -0.080 A 
ATOM      5  C   LIG    1       -4.357  -1.948  -5.444  0.00  0.00    +0.130 A 
ATOM      6  C   LIG    1       -3.595  -2.992  -4.939  0.00  0.00    -0.020 A 
ATOM      7  C   LIG    1       -3.141  -2.946  -3.635  0.00  0.00    +0.060 A 
BRANCH   5   8
ATOM      8  O   LIG    1       -4.804  -1.991  -6.726  0.00  0.00    -0.310 OA
BRANCH   8   9
ATOM      9  C   LIG    1       -5.583  -0.881  -7.179  0.00  0.00    +0.210 C 
BRANCH   9  10
ATOM     10  C   LIG    1       -5.994  -1.107  -8.635  0.00  0.00    +0.160 C 
ATOM     11  C   LIG    1       -6.915   0.042  -9.118  0.00  0.00    +0.020 C 
ATOM     12  C   LIG    1       -6.671  -0.010 -10.652  0.00  0.00    +0.010 C 
ATOM     13  C   LIG    1       -5.186  -0.427 -10.734  0.00  0.00    +0.190 C 
ATOM     14  O   LIG    1       -4.843  -1.052  -9.492  0.00  0.00    -0.370 OA
ENDBRANCH   9  10
ENDBRANCH   8   9
ENDBRANCH   5   8
ENDBRANCH   1   2
BRANCH   1  16
ATOM     15  C   LIG    1       -0.623  -1.972  -2.070  0.00  0.00    +0.190 C 
ATOM     16  N   LIG    1       -1.632  -1.162  -1.374  0.00  0.00    -0.530 NA
BRANCH  16  17
ATOM     17  C   LIG    1       -1.221  -0.884   0.009  0.00  0.00    +0.300 C 
BRANCH  17  18
ATOM     18  C   LIG    1        0.002  -0.004   0.002  0.00  0.00    +0.290 A 
ATOM     19  N   LIG    1       -0.016   1.297   0.009  0.00  0.00    -0.470 NA
ATOM     20  C   LIG    1        1.257   1.771  -0.000  0.00  0.00    +0.050 A 
ATOM     21  C   LIG    1        1.807   3.055   0.003  0.00  0.00    +0.070 A 
ATOM     22  C   LIG    1        3.164   3.215  -0.010  0.00  0.00    +0.000 A 
ATOM     23  C   LIG    1        4.006   2.112  -0.024  0.00  0.00    +0.030 A 
ATOM     24  C   LIG    1        3.485   0.835  -0.026  0.00  0.00    +0.010 A 
ATOM     25  C   LIG    1        2.110   0.654  -0.015  0.00  0.00    +0.050 A 
ATOM     26  N   LIG    1        1.286  -0.454  -0.013  0.00  0.00    -0.490 N 
ATOM     27  C   LIG    1        1.714  -1.855  -0.025  0.00  0.00    +0.330 C 
ENDBRANCH  17  18
ENDBRANCH  16  17
ENDBRANCH   1  16
TORSDOF 7
