REMARK  Name = ZINCpk00000y6uLQ.0
REMARK                            x       y       z     vdW  Elec       q    Type
REMARK                         _______ _______ _______ _____ _____    ______ ____
ROOT
ATOM      1  C   LIG    1       -1.920   2.351  -0.707  0.00  0.00    +0.150 C 
ATOM      2  C   LIG    1       -1.546   2.816   0.723  0.00  0.00    +0.060 C 
ATOM      3  C   LIG    1       -0.758   1.588   1.259  0.00  0.00    +0.180 C 
ATOM      4  C   LIG    1       -0.014   1.083   0.005  0.00  0.00    +0.200 C 
ATOM      5  F   LIG    1       -1.635   0.611   1.741  0.00  0.00    -0.200 F 
ATOM      6  N   LIG    1       -0.745   1.583  -1.173  0.00  0.00    -0.500 NA
ENDROOT
BRANCH   1   8
ATOM      7  O   LIG    1       -1.240   4.017  -2.234  0.00  0.00    -0.500 OA
ATOM      8  C   LIG    1       -2.159   3.540  -1.602  0.00  0.00    +0.530 C 
ATOM      9  N   LIG    1       -3.393   4.073  -1.699  0.00  0.00    -0.620 N 
ATOM     10  C   LIG    1       -4.499   3.580  -0.863  0.00  0.00    +0.240 C 
ATOM     11  C   LIG    1       -5.167   4.790  -0.191  0.00  0.00    +0.220 C 
ATOM     12  O   LIG    1       -5.508   5.753  -1.191  0.00  0.00    -0.380 OA
ATOM     13  C   LIG    1       -4.385   6.290  -1.893  0.00  0.00    +0.220 C 
ATOM     14  C   LIG    1       -3.675   5.161  -2.649  0.00  0.00    +0.260 C 
ENDBRANCH   1   8
BRANCH   6  15
ATOM     15  C   LIG    1       -1.154   0.477  -2.048  0.00  0.00    +0.340 C 
BRANCH  15  16
ATOM     16  C   LIG    1        0.064  -0.116  -2.710  0.00  0.00    +0.190 A 
ATOM     17  N   LIG    1        0.802  -1.097  -2.251  0.00  0.00    -0.480 NA
ATOM     18  C   LIG    1        1.768  -1.283  -3.169  0.00  0.00    +0.180 A 
ATOM     19  N   LIG    1        1.571  -0.422  -4.121  0.00  0.00    -0.370 NA
ATOM     20  O   LIG    1        0.593   0.255  -3.880  0.00  0.00    +0.090 OA
BRANCH  18  21
ATOM     21  C   LIG    1        2.875  -2.304  -3.104  0.00  0.00    +0.100 C 
ATOM     22  C   LIG    1        4.247  -1.601  -3.172  0.00  0.00    +0.020 C 
ATOM     23  C   LIG    1        5.122  -2.558  -4.019  0.00  0.00    +0.020 C 
ATOM     24  C   LIG    1        4.128  -3.075  -5.089  0.00  0.00    +0.020 C 
ATOM     25  C   LIG    1        2.800  -3.241  -4.322  0.00  0.00    +0.040 C 
ENDBRANCH  18  21
ENDBRANCH  15  16
ENDBRANCH   6  15
TORSDOF 4
