REMARK  Name = ZINCrH000004k8Fy.1
REMARK                            x       y       z     vdW  Elec       q    Type
REMARK                         _______ _______ _______ _____ _____    ______ ____
ROOT
ATOM      1  N   LIG    1        4.150   0.236   1.627  0.00  0.00    -0.680 N 
ATOM      2  H   LIG    1        3.671   1.039   1.369  0.00  0.00    +0.410 HD
ATOM      3  C   LIG    1        4.445  -0.699   0.702  0.00  0.00    +0.510 C 
ATOM      4  O   LIG    1        5.117  -1.662   1.007  0.00  0.00    -0.510 OA
ENDROOT
BRANCH   1   8
ATOM      5  C   LIG    1        5.297  -0.322   5.598  0.00  0.00    +0.100 A 
ATOM      6  C   LIG    1        6.112  -0.777   4.569  0.00  0.00    +0.010 A 
ATOM      7  C   LIG    1        5.732  -0.592   3.254  0.00  0.00    +0.050 A 
ATOM      8  C   LIG    1        4.536   0.049   2.961  0.00  0.00    +0.120 A 
ATOM      9  C   LIG    1        3.724   0.508   3.989  0.00  0.00    +0.010 A 
ATOM     10  C   LIG    1        4.100   0.319   5.304  0.00  0.00    -0.020 A 
BRANCH   5  15
ATOM     11  C   LIG    1        5.818  -1.730  10.972  0.00  0.00    +0.190 C 
ATOM     12  N   LIG    1        5.414  -1.532   9.573  0.00  0.00    -0.550 NA
ATOM     13  C   LIG    1        5.173  -0.111   9.290  0.00  0.00    +0.170 C 
ATOM     14  C   LIG    1        4.679   0.044   7.850  0.00  0.00    +0.200 C 
ATOM     15  N   LIG    1        5.681  -0.510   6.929  0.00  0.00    -0.490 N 
ATOM     16  C   LIG    1        5.923  -1.932   7.212  0.00  0.00    +0.200 C 
ATOM     17  C   LIG    1        6.417  -2.086   8.653  0.00  0.00    +0.180 C 
ENDBRANCH   5  15
ENDBRANCH   1   8
BRANCH   3  18
ATOM     18  C   LIG    1        3.941  -0.548  -0.710  0.00  0.00    +0.120 C 
BRANCH  18  19
ATOM     19  C   LIG    1        4.407  -1.718  -1.538  0.00  0.00    -0.060 A 
ATOM     20  C   LIG    1        5.544  -1.622  -2.280  0.00  0.00    +0.020 A 
ATOM     21  C   LIG    1        5.987  -2.692  -3.055  0.00  0.00    +0.000 A 
ATOM     22  C   LIG    1        5.303  -3.867  -3.084  0.00  0.00    +0.030 A 
ATOM     23  C   LIG    1        4.124  -4.004  -2.331  0.00  0.00    -0.050 A 
ATOM     24  C   LIG    1        3.387  -5.201  -2.340  0.00  0.00    +0.030 A 
ATOM     25  C   LIG    1        2.250  -5.297  -1.598  0.00  0.00    +0.000 A 
ATOM     26  C   LIG    1        1.804  -4.226  -0.827  0.00  0.00    +0.010 A 
ATOM     27  C   LIG    1        2.491  -3.051  -0.794  0.00  0.00    +0.010 A 
ATOM     28  C   LIG    1        3.670  -2.914  -1.547  0.00  0.00    -0.030 A 
ENDBRANCH  18  19
ENDBRANCH   3  18
TORSDOF 4
