REMARK  Name = ZINCtV00000L6kZ2.0
REMARK                            x       y       z     vdW  Elec       q    Type
REMARK                         _______ _______ _______ _____ _____    ______ ____
ROOT
ATOM      1 CL   LIG    1        0.758   9.059  -4.250  0.00  0.00    -0.130 Cl
ATOM      2  C   LIG    1       -0.719   8.429  -5.070  0.00  0.00    +0.420 C 
ENDROOT
BRANCH   2   3
ATOM      3  C   LIG    1       -0.865   6.958  -4.780  0.00  0.00    -0.230 A 
ATOM      4  C   LIG    1        0.066   6.303  -3.985  0.00  0.00    +0.130 A 
ATOM      5  C   LIG    1       -0.106   4.952  -3.743  0.00  0.00    -0.110 A 
ATOM      6  C   LIG    1       -1.200   4.298  -4.301  0.00  0.00    +0.410 A 
ATOM      7  N   LIG    1       -2.064   4.957  -5.058  0.00  0.00    -0.540 NA
ATOM      8  C   LIG    1       -1.928   6.247  -5.302  0.00  0.00    +0.320 A 
BRANCH   6   9
ATOM      9  N   LIG    1       -1.384   2.941  -4.066  0.00  0.00    -0.720 N 
ATOM     10  H   LIG    1       -2.145   2.481  -4.454  0.00  0.00    +0.400 HD
BRANCH   9  11
ATOM     11  C   LIG    1       -0.429   2.205  -3.235  0.00  0.00    +0.230 C 
ATOM     12  C   LIG    1       -0.458   0.723  -3.614  0.00  0.00    +0.010 C 
ATOM     13  C   LIG    1        0.540  -0.046  -2.745  0.00  0.00    +0.020 C 
ATOM     14  C   LIG    1        0.160   0.111  -1.272  0.00  0.00    +0.010 C 
ATOM     15  C   LIG    1        0.189   1.593  -0.892  0.00  0.00    +0.010 C 
ATOM     16  C   LIG    1       -0.809   2.362  -1.761  0.00  0.00    +0.000 C 
ENDBRANCH   9  11
ENDBRANCH   6   9
ENDBRANCH   2   3
BRANCH   2  17
ATOM     17  N   LIG    1       -1.900   9.147  -4.572  0.00  0.00    -0.660 NA
ATOM     18  H   LIG    1       -2.745   8.786  -4.989  0.00  0.00    +0.350 HD
BRANCH  17  19
ATOM     19  C   LIG    1       -1.774  10.592  -4.802  0.00  0.00    +0.170 C 
ATOM     20  C   LIG    1       -1.601  11.309  -3.461  0.00  0.00    +0.020 C 
ATOM     21  C   LIG    1       -1.470  12.814  -3.701  0.00  0.00    +0.000 C 
ATOM     22  C   LIG    1       -2.730  13.332  -4.397  0.00  0.00    +0.000 C 
ATOM     23  C   LIG    1       -2.902  12.615  -5.738  0.00  0.00    +0.010 C 
ATOM     24  C   LIG    1       -3.034  11.109  -5.498  0.00  0.00    +0.000 C 
ENDBRANCH  17  19
ENDBRANCH   2  17
BRANCH   2  25
ATOM     25  N   LIG    1       -0.598   8.633  -6.520  0.00  0.00    -0.700 NA
ATOM     26  H   LIG    1       -1.447   8.366  -6.995  0.00  0.00    +0.350 HD
BRANCH  25  27
ATOM     27  C   LIG    1        0.558   7.904  -7.059  0.00  0.00    +0.150 C 
ATOM     28  C   LIG    1        1.754   8.853  -7.166  0.00  0.00    +0.020 C 
ATOM     29  C   LIG    1        2.958   8.094  -7.728  0.00  0.00    +0.000 C 
ATOM     30  C   LIG    1        2.615   7.549  -9.115  0.00  0.00    +0.000 C 
ATOM     31  C   LIG    1        1.419   6.600  -9.009  0.00  0.00    +0.010 C 
ATOM     32  C   LIG    1        0.215   7.359  -8.447  0.00  0.00    +0.010 C 
ENDBRANCH  25  27
ENDBRANCH   2  25
TORSDOF 7
