REMARK  Name = ZINCvU00000004B1.0
REMARK                            x       y       z     vdW  Elec       q    Type
REMARK                         _______ _______ _______ _____ _____    ______ ____
ROOT
ATOM      1  N   LIG    1        2.403   1.067  -0.134  0.00  0.00    -0.670 N 
ATOM      2  H   LIG    1        2.557   0.112  -0.057  0.00  0.00    +0.410 HD
ATOM      3  C   LIG    1        3.442   1.904  -0.322  0.00  0.00    +0.590 C 
ATOM      4  O   LIG    1        3.259   3.107  -0.342  0.00  0.00    -0.510 OA
ENDROOT
BRANCH   1   8
ATOM      5  C   LIG    1       -1.474   2.580   0.116  0.00  0.00    +0.140 A 
ATOM      6  C   LIG    1       -0.411   3.303   0.642  0.00  0.00    +0.030 A 
ATOM      7  C   LIG    1        0.873   2.804   0.554  0.00  0.00    +0.050 A 
ATOM      8  C   LIG    1        1.101   1.575  -0.051  0.00  0.00    +0.140 A 
ATOM      9  C   LIG    1        0.037   0.849  -0.571  0.00  0.00    +0.000 A 
ATOM     10  C   LIG    1       -1.246   1.350  -0.488  0.00  0.00    +0.040 A 
BRANCH   5  12
ATOM     11  C   LIG    1       -3.514   3.241  -0.918  0.00  0.00    +0.650 C 
ATOM     12  N   LIG    1       -2.777   3.088   0.200  0.00  0.00    -0.550 N 
ATOM     13  C   LIG    1       -3.338   3.454   1.503  0.00  0.00    +0.310 C 
ATOM     14  O   LIG    1       -3.018   3.028  -2.007  0.00  0.00    -0.550 OA
BRANCH  11  15
ATOM     15  O   LIG    1       -4.800   3.631  -0.829  0.00  0.00    -0.370 OA
BRANCH  15  17
ATOM     16  C   LIG    1       -6.965   4.220  -1.774  0.00  0.00    +0.070 C 
ATOM     17  C   LIG    1       -5.533   3.775  -2.074  0.00  0.00    +0.220 C 
ENDBRANCH  15  17
ENDBRANCH  11  15
ENDBRANCH   5  12
ENDBRANCH   1   8
BRANCH   3  18
ATOM     18  C   LIG    1        4.792   1.366  -0.502  0.00  0.00    -0.270 A 
ATOM     19  C   LIG    1        5.918   2.115  -0.700  0.00  0.00    +0.120 A 
ATOM     20  C   LIG    1        7.069   1.390  -0.843  0.00  0.00    +0.010 A 
ATOM     21  C   LIG    1        6.907   0.037  -0.766  0.00  0.00    -0.110 A 
ATOM     22  S   LIG    1        5.212  -0.342  -0.491  0.00  0.00    +0.170 S 
BRANCH  21  23
ATOM     23  C   LIG    1        7.992  -0.958  -0.889  0.00  0.00    -0.050 A 
ATOM     24  C   LIG    1        9.306  -0.538  -1.108  0.00  0.00    +0.090 A 
ATOM     25  C   LIG    1       10.315  -1.470  -1.217  0.00  0.00    -0.050 A 
ATOM     26  C   LIG    1       10.026  -2.825  -1.122  0.00  0.00    +0.120 A 
ATOM     27  C   LIG    1        8.720  -3.247  -0.909  0.00  0.00    +0.010 A 
ATOM     28  C   LIG    1        7.705  -2.322  -0.794  0.00  0.00    +0.060 A 
BRANCH  26  29
ATOM     29  O   LIG    1       11.023  -3.740  -1.236  0.00  0.00    -0.320 OA
BRANCH  29  30
ATOM     30  C   LIG    1       12.343  -3.238  -1.453  0.00  0.00    +0.600 C 
ATOM     31  F   LIG    1       12.710  -2.413  -0.384  0.00  0.00    -0.200 F 
ATOM     32  F   LIG    1       12.371  -2.501  -2.642  0.00  0.00    -0.200 F 
ENDBRANCH  29  30
ENDBRANCH  26  29
ENDBRANCH  21  23
ENDBRANCH   3  18
TORSDOF 8
