REMARK  Name = ZINCrg000000tOI0.0
REMARK                            x       y       z     vdW  Elec       q    Type
REMARK                         _______ _______ _______ _____ _____    ______ ____
ROOT
ATOM      1  O   LIG    1       -0.014   1.210  -0.061  0.00  0.00    -0.520 OA
ATOM      2  C   LIG    1        0.002  -0.004   0.002  0.00  0.00    +0.570 C 
ATOM      3  N   LIG    1        1.177  -0.659   0.089  0.00  0.00    -0.610 N 
ATOM      4  C   LIG    1        2.446   0.078   0.186  0.00  0.00    +0.300 C 
ATOM      5  C   LIG    1        3.233  -0.474   1.386  0.00  0.00    +0.170 C 
ATOM      6  N   LIG    1        3.370  -1.930   1.247  0.00  0.00    -0.540 NA
ATOM      7  C   LIG    1        2.060  -2.594   1.280  0.00  0.00    +0.170 C 
ATOM      8  C   LIG    1        1.224  -2.129   0.083  0.00  0.00    +0.280 C 
ENDROOT
BRANCH   2   9
ATOM      9  C   LIG    1       -1.267  -0.762  -0.017  0.00  0.00    -0.160 A 
ATOM     10  C   LIG    1       -1.431  -1.848  -0.878  0.00  0.00    +0.320 A 
ATOM     11  N   LIG    1       -2.560  -2.526  -0.898  0.00  0.00    -0.450 NA
ATOM     12  C   LIG    1       -3.575  -2.215  -0.116  0.00  0.00    +0.300 A 
ATOM     13  C   LIG    1       -3.494  -1.148   0.770  0.00  0.00    +0.070 A 
ATOM     14  C   LIG    1       -2.321  -0.406   0.832  0.00  0.00    +0.150 A 
BRANCH  13  15
ATOM     15  N   LIG    1       -4.581  -0.827   1.597  0.00  0.00    -0.250 N 
ATOM     16  C   LIG    1       -5.740  -1.534   1.703  0.00  0.00    +0.150 A 
ATOM     17  C   LIG    1       -6.501  -0.872   2.605  0.00  0.00    +0.160 A 
ATOM     18  N   LIG    1       -5.787   0.188   3.001  0.00  0.00    -0.250 NA
ATOM     19  N   LIG    1       -4.654   0.183   2.391  0.00  0.00    -0.080 NA
ENDBRANCH  13  15
ENDBRANCH   2   9
BRANCH   6  20
ATOM     20  C   LIG    1        4.263  -2.476   2.278  0.00  0.00    +0.180 C 
BRANCH  20  21
ATOM     21  C   LIG    1        5.681  -1.947   2.055  0.00  0.00    +0.090 C 
BRANCH  21  22
ATOM     22  C   LIG    1        6.598  -2.506   3.113  0.00  0.00    -0.040 A 
ATOM     23  C   LIG    1        6.795  -1.834   4.309  0.00  0.00    -0.040 A 
ATOM     24  C   LIG    1        7.639  -2.380   5.257  0.00  0.00    +0.260 A 
ATOM     25  N   LIG    1        8.261  -3.521   5.030  0.00  0.00    -0.490 NA
ATOM     26  C   LIG    1        8.100  -4.186   3.902  0.00  0.00    +0.260 A 
ATOM     27  C   LIG    1        7.268  -3.703   2.910  0.00  0.00    -0.030 A 
ENDBRANCH  21  22
ENDBRANCH  20  21
ENDBRANCH   6  20
TORSDOF 5
