REMARK  Name = ZINCb70000006lwc.1
REMARK                            x       y       z     vdW  Elec       q    Type
REMARK                         _______ _______ _______ _____ _____    ______ ____
ROOT
ATOM      1  C   LIG    1        4.431   0.695  -0.038  0.00  0.00    +0.180 A 
ATOM      2  N   LIG    1        3.699  -0.394  -0.036  0.00  0.00    -0.310 NA
ATOM      3  N   LIG    1        2.357   0.011  -0.021  0.00  0.00    -0.270 N 
ATOM      4  C   LIG    1        1.179  -0.668  -0.013  0.00  0.00    +0.280 A 
ATOM      5  C   LIG    1        0.002  -0.004   0.002  0.00  0.00    +0.040 A 
ATOM      6  C   LIG    1       -0.017   1.399   0.010  0.00  0.00    +0.120 A 
ATOM      7  C   LIG    1        1.158   2.088   0.002  0.00  0.00    +0.060 A 
ATOM      8  C   LIG    1        2.372   1.377  -0.014  0.00  0.00    +0.290 A 
ATOM      9  N   LIG    1        3.643   1.761  -0.024  0.00  0.00    -0.530 NA
ENDROOT
BRANCH   1  10
ATOM     10  C   LIG    1        5.937   0.729  -0.052  0.00  0.00    +0.430 C 
BRANCH  10  11
ATOM     11  N   LIG    1        6.414   0.747  -1.441  0.00  0.00    -0.630 N 
ATOM     12  H   LIG    1        6.055   1.565  -1.909  0.00  0.00    +0.440 HD
ATOM     13  H   LIG    1        6.091  -0.082  -1.918  0.00  0.00    +0.440 HD
ATOM     14  H   LIG    1        7.423   0.769  -1.451  0.00  0.00    +0.450 HD
ENDBRANCH  10  11
ENDBRANCH   1  10
TORSDOF 2
