REMARK  Name = ZINCvU0000000ECS.0
REMARK                            x       y       z     vdW  Elec       q    Type
REMARK                         _______ _______ _______ _____ _____    ______ ____
ROOT
ATOM      1  C   LIG    1        1.448   9.832  -0.184  0.00  0.00    -0.070 A 
ATOM      2  C   LIG    1        2.710  10.398  -0.297  0.00  0.00    +0.070 A 
ATOM      3  C   LIG    1        2.833  11.792  -0.408  0.00  0.00    +0.200 A 
ATOM      4  N   LIG    1        1.789  12.593  -0.398  0.00  0.00    -0.440 NA
ATOM      5  C   LIG    1        0.540  12.137  -0.287  0.00  0.00    +0.130 A 
ATOM      6  C   LIG    1       -0.556  13.018  -0.279  0.00  0.00    +0.050 A 
ATOM      7  C   LIG    1       -1.819  12.522  -0.165  0.00  0.00    +0.040 A 
ATOM      8  C   LIG    1       -2.047  11.153  -0.056  0.00  0.00    +0.030 A 
ATOM      9  C   LIG    1       -1.008  10.269  -0.060  0.00  0.00    +0.050 A 
ATOM     10  C   LIG    1        0.302  10.743  -0.175  0.00  0.00    -0.060 A 
ENDROOT
BRANCH   3  11
ATOM     11  C   LIG    1        4.187  12.382  -0.535  0.00  0.00    -0.100 A 
ATOM     12  C   LIG    1        5.311  11.557  -0.543  0.00  0.00    +0.080 A 
ATOM     13  C   LIG    1        6.568  12.108  -0.666  0.00  0.00    -0.080 A 
ATOM     14  C   LIG    1        6.717  13.485  -0.771  0.00  0.00    +0.150 A 
ATOM     15  C   LIG    1        5.599  14.310  -0.758  0.00  0.00    -0.020 A 
ATOM     16  C   LIG    1        4.339  13.764  -0.640  0.00  0.00    +0.110 A 
BRANCH  14  17
ATOM     17  O   LIG    1        7.957  14.027  -0.887  0.00  0.00    -0.310 OA
ATOM     18  C   LIG    1        9.062  13.120  -0.893  0.00  0.00    +0.240 C 
ENDBRANCH  14  17
ENDBRANCH   3  11
BRANCH   1  19
ATOM     19  C   LIG    1        1.268   8.370  -0.071  0.00  0.00    +0.520 C 
ATOM     20  O   LIG    1        0.151   7.893  -0.086  0.00  0.00    -0.470 OA
BRANCH  19  21
ATOM     21  O   LIG    1        2.342   7.566   0.048  0.00  0.00    -0.290 OA
BRANCH  21  25
ATOM     22  C   LIG    1        1.651   3.496   0.002  0.00  0.00    -0.170 A 
ATOM     23  C   LIG    1        2.102   4.119   1.173  0.00  0.00    +0.080 A 
ATOM     24  C   LIG    1        2.336   5.475   1.181  0.00  0.00    +0.010 A 
ATOM     25  C   LIG    1        2.116   6.228   0.033  0.00  0.00    +0.110 A 
ATOM     26  C   LIG    1        1.663   5.615  -1.130  0.00  0.00    +0.010 A 
ATOM     27  C   LIG    1        1.431   4.259  -1.151  0.00  0.00    +0.100 A 
BRANCH  22  28
ATOM     28  C   LIG    1        1.405   2.048  -0.014  0.00  0.00    +0.390 C 
ATOM     29  O   LIG    1        1.010   1.511  -1.028  0.00  0.00    -0.450 OA
BRANCH  28  31
ATOM     30  C   LIG    1        1.313  -0.238   0.944  0.00  0.00    +0.030 C 
ATOM     31  C   LIG    1        1.643   1.229   1.228  0.00  0.00    +0.030 C 
ENDBRANCH  28  31
ENDBRANCH  22  28
ENDBRANCH  21  25
ENDBRANCH  19  21
ENDBRANCH   1  19
TORSDOF 7
