REMARK  Name = ZINCkj00000wRwV1.0
REMARK                            x       y       z     vdW  Elec       q    Type
REMARK                         _______ _______ _______ _____ _____    ______ ____
ROOT
ATOM      1  C   LIG    1        0.070   2.522  -2.040  0.00  0.00    +0.110 A 
ATOM      2  N   LIG    1       -0.277   3.140  -3.144  0.00  0.00    -0.450 NA
ATOM      3  C   LIG    1        0.812   3.828  -3.531  0.00  0.00    +0.190 A 
ATOM      4  N   LIG    1        1.750   3.591  -2.664  0.00  0.00    -0.340 NA
ATOM      5  O   LIG    1        1.344   2.844  -1.799  0.00  0.00    +0.100 OA
ENDROOT
BRANCH   3   6
ATOM      6  C   LIG    1        0.925   4.706  -4.750  0.00  0.00    +0.160 C 
ATOM      7  C   LIG    1        1.345   6.135  -4.344  0.00  0.00    +0.060 C 
ATOM      8  C   LIG    1        2.236   6.568  -5.527  0.00  0.00    +0.100 C 
ATOM      9  C   LIG    1        2.787   5.280  -6.101  0.00  0.00    -0.080 A 
ATOM     10  C   LIG    1        3.861   5.061  -6.946  0.00  0.00    +0.030 A 
ATOM     11  C   LIG    1        4.182   3.778  -7.345  0.00  0.00    +0.020 A 
ATOM     12  C   LIG    1        3.429   2.708  -6.898  0.00  0.00    +0.010 A 
ATOM     13  C   LIG    1        2.357   2.925  -6.054  0.00  0.00    +0.010 A 
ATOM     14  C   LIG    1        2.033   4.210  -5.654  0.00  0.00    -0.110 A 
ENDBRANCH   3   6
BRANCH   1  15
ATOM     15  C   LIG    1       -0.801   1.618  -1.207  0.00  0.00    +0.230 C 
ATOM     16  C   LIG    1       -0.013   1.086   0.008  0.00  0.00    +0.110 C 
ATOM     17  C   LIG    1       -0.778   1.605   1.244  0.00  0.00    +0.290 C 
ATOM     18  N   LIG    1       -2.164   1.837   0.753  0.00  0.00    -0.510 N 
ATOM     19  H   LIG    1       -2.672   0.968   0.701  0.00  0.00    +0.440 HD
ATOM     20  H   LIG    1       -2.644   2.492   1.352  0.00  0.00    +0.440 HD
ATOM     21  C   LIG    1       -1.978   2.413  -0.604  0.00  0.00    +0.290 C 
BRANCH  15  22
ATOM     22  O   LIG    1       -1.289   0.531  -1.996  0.00  0.00    -0.520 OA
ATOM     23  H   LIG    1       -1.792   0.805  -2.775  0.00  0.00    +0.410 HD
ENDBRANCH  15  22
ENDBRANCH   1  15
TORSDOF 3
