REMARK  Name = ZINCvU00000005tT.0
REMARK                            x       y       z     vdW  Elec       q    Type
REMARK                         _______ _______ _______ _____ _____    ______ ____
ROOT
ATOM      1  C   LIG    1       -1.107   1.159  -1.202  0.00  0.00    +0.470 A 
ATOM      2  N   LIG    1       -0.947   0.461  -2.292  0.00  0.00    -0.570 NA
ATOM      3  C   LIG    1       -1.668   0.714  -3.397  0.00  0.00    +0.540 A 
ATOM      4  C   LIG    1       -2.650   1.815  -3.368  0.00  0.00    -0.220 A 
ATOM      5  C   LIG    1       -2.773   2.524  -2.187  0.00  0.00    +0.060 A 
ATOM      6  S   LIG    1       -3.987   3.782  -2.365  0.00  0.00    +0.200 S 
ATOM      7  C   LIG    1       -4.310   3.333  -4.029  0.00  0.00    -0.040 A 
ATOM      8  C   LIG    1       -3.547   2.306  -4.404  0.00  0.00    +0.010 A 
ATOM      9  O   LIG    1       -1.510   0.048  -4.408  0.00  0.00    -0.470 OA
ATOM     10  N   LIG    1       -1.983   2.171  -1.114  0.00  0.00    -0.580 N 
ATOM     11  H   LIG    1       -2.063   2.662  -0.281  0.00  0.00    +0.430 HD
ENDROOT
BRANCH   8  12
ATOM     12  C   LIG    1       -3.608   1.714  -5.762  0.00  0.00    -0.040 A 
ATOM     13  C   LIG    1       -2.437   1.517  -6.492  0.00  0.00    +0.060 A 
ATOM     14  C   LIG    1       -2.500   0.959  -7.753  0.00  0.00    +0.000 A 
ATOM     15  C   LIG    1       -3.722   0.607  -8.297  0.00  0.00    +0.010 A 
ATOM     16  C   LIG    1       -4.888   0.805  -7.579  0.00  0.00    -0.010 A 
ATOM     17  C   LIG    1       -4.837   1.356  -6.315  0.00  0.00    +0.020 A 
ENDBRANCH   8  12
BRANCH   1  18
ATOM     18  C   LIG    1       -0.270   0.819   0.004  0.00  0.00    +0.100 C 
ATOM     19  C   LIG    1        1.082   1.527  -0.097  0.00  0.00    +0.090 C 
BRANCH  18  20
ATOM     20  S   LIG    1       -1.127   1.364   1.508  0.00  0.00    -0.170 S 
BRANCH  20  21
ATOM     21  C   LIG    1       -0.059   0.741   2.835  0.00  0.00    +0.120 C 
BRANCH  21  24
ATOM     22  N   LIG    1       -0.017   0.760   5.308  0.00  0.00    -0.670 N 
ATOM     23  H   LIG    1        0.769   0.193   5.270  0.00  0.00    +0.410 HD
ATOM     24  C   LIG    1       -0.645   1.119   4.170  0.00  0.00    +0.530 C 
ATOM     25  O   LIG    1       -1.682   1.747   4.222  0.00  0.00    -0.490 OA
BRANCH  22  30
ATOM     26  C   LIG    1       -1.976   2.560  10.319  0.00  0.00    +0.090 C 
ATOM     27  C   LIG    1       -1.456   2.082   8.988  0.00  0.00    -0.100 A 
ATOM     28  C   LIG    1       -1.575   2.888   7.870  0.00  0.00    +0.030 A 
ATOM     29  C   LIG    1       -1.095   2.454   6.650  0.00  0.00    +0.010 A 
ATOM     30  C   LIG    1       -0.500   1.204   6.544  0.00  0.00    +0.140 A 
ATOM     31  C   LIG    1       -0.381   0.397   7.668  0.00  0.00    -0.010 A 
ATOM     32  C   LIG    1       -0.859   0.838   8.886  0.00  0.00    -0.070 A 
ATOM     33  C   LIG    1       -0.730  -0.036  10.107  0.00  0.00    +0.090 C 
ENDBRANCH  22  30
ENDBRANCH  21  24
ENDBRANCH  20  21
ENDBRANCH  18  20
ENDBRANCH   1  18
TORSDOF 6
