REMARK  Name = ZINCrD00000F5Ls0.0
REMARK                            x       y       z     vdW  Elec       q    Type
REMARK                         _______ _______ _______ _____ _____    ______ ____
ROOT
ATOM      1  C   LIG    1       -0.817   3.955  -2.490  0.00  0.00    +0.220 A 
ATOM      2  C   LIG    1       -0.476   5.260  -2.203  0.00  0.00    +0.080 A 
ATOM      3  N   LIG    1        0.466   5.242  -1.242  0.00  0.00    -0.430 NA
ATOM      4  C   LIG    1        0.731   3.988  -0.915  0.00  0.00    +0.220 A 
ATOM      5  C   LIG    1        1.624   3.425   0.021  0.00  0.00    +0.100 A 
ATOM      6  C   LIG    1        1.688   2.075   0.148  0.00  0.00    +0.050 A 
ATOM      7  C   LIG    1        0.869   1.248  -0.648  0.00  0.00    -0.090 A 
ATOM      8  C   LIG    1        0.019   1.795  -1.540  0.00  0.00    +0.060 A 
ATOM      9  C   LIG    1       -0.746   0.709  -2.269  0.00  0.00    +0.240 C 
ATOM     10  C   LIG    1        0.057  -0.585  -2.016  0.00  0.00    +0.030 C 
ATOM     11  C   LIG    1        0.767  -0.264  -0.683  0.00  0.00    +0.110 C 
ATOM     12  N   LIG    1       -0.056   3.160  -1.679  0.00  0.00    -0.370 N 
ENDROOT
BRANCH   2  13
ATOM     13  C   LIG    1       -1.047   6.470  -2.840  0.00  0.00    +0.320 A 
ATOM     14  N   LIG    1       -2.040   6.486  -3.703  0.00  0.00    -0.240 NA
ATOM     15  N   LIG    1       -2.256   7.831  -4.045  0.00  0.00    -0.450 N 
ATOM     16  H   LIG    1       -2.923   8.173  -4.661  0.00  0.00    +0.450 HD
ATOM     17  C   LIG    1       -1.354   8.551  -3.355  0.00  0.00    +0.190 A 
ATOM     18  N   LIG    1       -0.635   7.729  -2.637  0.00  0.00    -0.450 NA
BRANCH  17  19
ATOM     19  C   LIG    1       -1.198  10.049  -3.402  0.00  0.00    +0.560 C 
ATOM     20  F   LIG    1       -2.235  10.649  -2.680  0.00  0.00    -0.160 F 
ATOM     21  F   LIG    1       -1.245  10.481  -4.732  0.00  0.00    -0.160 F 
ATOM     22  F   LIG    1        0.032  10.408  -2.839  0.00  0.00    -0.140 F 
ENDBRANCH  17  19
ENDBRANCH   2  13
BRANCH   1  23
ATOM     23  N   LIG    1       -1.757   3.528  -3.429  0.00  0.00    -0.580 N 
ATOM     24  H   LIG    1       -1.826   2.522  -3.439  0.00  0.00    +0.370 HD
BRANCH  23  25
ATOM     25  C   LIG    1       -1.439   4.048  -4.766  0.00  0.00    +0.180 C 
ATOM     26  C   LIG    1       -2.713   4.092  -5.612  0.00  0.00    +0.050 C 
BRANCH  25  28
ATOM     27  C   LIG    1        0.904   3.187  -4.660  0.00  0.00    +0.000 C 
ATOM     28  C   LIG    1       -0.413   3.134  -5.438  0.00  0.00    -0.000 C 
ENDBRANCH  25  28
ENDBRANCH  23  25
ENDBRANCH   1  23
BRANCH   9  29
ATOM     29  O   LIG    1       -0.800   0.993  -3.669  0.00  0.00    -0.560 OA
ATOM     30  H   LIG    1       -1.171   0.277  -4.202  0.00  0.00    +0.390 HD
ENDBRANCH   9  29
TORSDOF 6
