REMARK  Name = ZINCvU000000070A.0
REMARK                            x       y       z     vdW  Elec       q    Type
REMARK                         _______ _______ _______ _____ _____    ______ ____
ROOT
ATOM      1  C   LIG    1        5.035   5.845  -1.526  0.00  0.00    +0.290 A 
ATOM      2  N   LIG    1        4.503   7.032  -1.529  0.00  0.00    -0.480 NA
ATOM      3  C   LIG    1        5.237   7.859  -2.317  0.00  0.00    +0.050 A 
ATOM      4  C   LIG    1        5.123   9.206  -2.669  0.00  0.00    +0.070 A 
ATOM      5  C   LIG    1        6.044   9.771  -3.506  0.00  0.00    +0.000 A 
ATOM      6  C   LIG    1        7.095   9.021  -4.012  0.00  0.00    +0.030 A 
ATOM      7  C   LIG    1        7.227   7.689  -3.678  0.00  0.00    +0.010 A 
ATOM      8  C   LIG    1        6.302   7.098  -2.829  0.00  0.00    +0.060 A 
ATOM      9  N   LIG    1        6.149   5.829  -2.307  0.00  0.00    -0.480 N 
ENDROOT
BRANCH   1  12
ATOM     10  N   LIG    1        2.362   3.886   0.000  0.00  0.00    -0.570 N 
ATOM     11  C   LIG    1        3.063   4.316  -1.216  0.00  0.00    +0.290 C 
ATOM     12  C   LIG    1        4.499   4.660  -0.764  0.00  0.00    +0.090 C 
ATOM     13  C   LIG    1        4.285   5.013   0.727  0.00  0.00    +0.090 C 
ATOM     14  C   LIG    1        3.021   4.274   1.106  0.00  0.00    +0.530 C 
ATOM     15  O   LIG    1        2.656   4.060   2.243  0.00  0.00    -0.510 OA
BRANCH  10  21
ATOM     16  C   LIG    1       -0.058   3.846   0.022  0.00  0.00    +0.140 A 
ATOM     17  C   LIG    1       -1.245   3.131   0.030  0.00  0.00    -0.080 A 
ATOM     18  C   LIG    1       -1.220   1.749   0.017  0.00  0.00    +0.060 A 
ATOM     19  C   LIG    1       -0.013   1.076   0.008  0.00  0.00    -0.020 A 
ATOM     20  C   LIG    1        1.176   1.782   0.000  0.00  0.00    +0.060 A 
ATOM     21  C   LIG    1        1.159   3.168   0.007  0.00  0.00    +0.110 A 
BRANCH  16  22
ATOM     22  O   LIG    1       -0.082   5.206   0.029  0.00  0.00    -0.300 OA
BRANCH  22  24
ATOM     23  C   LIG    1       -1.191   7.353   0.050  0.00  0.00    +0.070 C 
ATOM     24  C   LIG    1       -1.365   5.833   0.044  0.00  0.00    +0.170 C 
ENDBRANCH  22  24
ENDBRANCH  16  22
ENDBRANCH  10  21
ENDBRANCH   1  12
BRANCH   9  25
ATOM     25  C   LIG    1        7.023   4.679  -2.551  0.00  0.00    +0.350 C 
BRANCH  25  26
ATOM     26  C   LIG    1        6.531   3.921  -3.757  0.00  0.00    -0.120 A 
ATOM     27  C   LIG    1        5.618   2.894  -3.602  0.00  0.00    +0.020 A 
ATOM     28  C   LIG    1        5.163   2.202  -4.709  0.00  0.00    +0.010 A 
ATOM     29  C   LIG    1        5.628   2.530  -5.969  0.00  0.00    +0.020 A 
ATOM     30  C   LIG    1        6.545   3.552  -6.122  0.00  0.00    +0.010 A 
ATOM     31  C   LIG    1        6.996   4.248  -5.016  0.00  0.00    +0.020 A 
ENDBRANCH  25  26
ENDBRANCH   9  25
TORSDOF 6
