REMARK  Name = ZINCtV000002qFRL.0
REMARK                            x       y       z     vdW  Elec       q    Type
REMARK                         _______ _______ _______ _____ _____    ______ ____
ROOT
ATOM      1  C   LIG    1       -0.762   1.598  -1.227  0.00  0.00    +0.000 C 
ATOM      2  C   LIG    1       -0.013   1.086   0.008  0.00  0.00    +0.030 C 
ATOM      3  C   LIG    1       -0.736   1.582   1.258  0.00  0.00    +0.110 C 
ATOM      4  C   LIG    1       -0.958   3.074   1.184  0.00  0.00    +0.170 A 
ATOM      5  N   LIG    1       -1.237   3.693   2.314  0.00  0.00    -0.460 NA
ATOM      6  C   LIG    1       -1.461   5.005   2.380  0.00  0.00    +0.140 A 
ATOM      7  C   LIG    1       -1.755   5.633   3.604  0.00  0.00    +0.050 A 
ATOM      8  C   LIG    1       -1.980   6.975   3.637  0.00  0.00    +0.040 A 
ATOM      9  C   LIG    1       -1.924   7.742   2.476  0.00  0.00    +0.030 A 
ATOM     10  C   LIG    1       -1.641   7.168   1.272  0.00  0.00    +0.010 A 
ATOM     11  C   LIG    1       -1.403   5.790   1.202  0.00  0.00    -0.070 A 
ATOM     12  C   LIG    1       -1.103   5.149  -0.025  0.00  0.00    -0.060 A 
ATOM     13  C   LIG    1       -0.878   3.773  -0.014  0.00  0.00    -0.070 A 
ATOM     14  C   LIG    1       -0.554   3.108  -1.325  0.00  0.00    +0.080 C 
ENDROOT
BRANCH   1  16
ATOM     15  C   LIG    1       -0.398  -0.595  -2.368  0.00  0.00    +0.040 C 
ATOM     16  C   LIG    1       -0.211   0.919  -2.483  0.00  0.00    -0.060 C 
ATOM     17  C   LIG    1        1.278   1.240  -2.624  0.00  0.00    +0.030 C 
ATOM     18  C   LIG    1       -0.963   1.433  -3.712  0.00  0.00    +0.020 C 
ENDBRANCH   1  16
BRANCH  12  19
ATOM     19  C   LIG    1       -1.030   5.919  -1.284  0.00  0.00    +0.520 C 
ATOM     20  O   LIG    1       -2.025   6.067  -1.964  0.00  0.00    -0.480 OA
BRANCH  19  21
ATOM     21  O   LIG    1        0.141   6.457  -1.678  0.00  0.00    -0.340 OA
BRANCH  21  22
ATOM     22  C   LIG    1        0.139   7.200  -2.925  0.00  0.00    +0.290 C 
BRANCH  22  23
ATOM     23  C   LIG    1        1.525   7.724  -3.201  0.00  0.00    -0.100 A 
ATOM     24  C   LIG    1        1.898   8.970  -2.733  0.00  0.00    +0.060 A 
ATOM     25  C   LIG    1        3.171   9.448  -2.981  0.00  0.00    +0.030 A 
ATOM     26  C   LIG    1        4.068   8.684  -3.706  0.00  0.00    -0.020 A 
ATOM     27  C   LIG    1        3.692   7.439  -4.179  0.00  0.00    +0.030 A 
ATOM     28 CL   LIG    1        5.665   9.287  -4.023  0.00  0.00    -0.060 Cl
ATOM     29  C   LIG    1        2.420   6.960  -3.926  0.00  0.00    +0.060 A 
ENDBRANCH  22  23
ENDBRANCH  21  22
ENDBRANCH  19  21
ENDBRANCH  12  19
TORSDOF 5
