REMARK  Name = ZINC550000002rAo.2
REMARK                            x       y       z     vdW  Elec       q    Type
REMARK                         _______ _______ _______ _____ _____    ______ ____
ROOT
ATOM      1  C   LIG    1       -0.019   1.526   0.010  0.00  0.00    +0.040 C 
ATOM      2  C   LIG    1        0.002  -0.004   0.002  0.00  0.00    +0.170 C 
ENDROOT
BRANCH   2   3
ATOM      3  N   LIG    1        0.713  -0.491   1.192  0.00  0.00    -0.860 NA
ATOM      4  H   LIG    1        0.259  -0.178   2.037  0.00  0.00    +0.370 HD
ATOM      5  H   LIG    1        1.681  -0.208   1.176  0.00  0.00    +0.350 HD
ENDBRANCH   2   3
BRANCH   2   6
ATOM      6  C   LIG    1        0.718  -0.497  -1.257  0.00  0.00    +0.270 C 
BRANCH   6   7
ATOM      7  N   LIG    1        0.844  -1.960  -1.207  0.00  0.00    -0.630 N 
ATOM      8  H   LIG    1        1.377  -2.224  -0.392  0.00  0.00    +0.440 HD
ATOM      9  H   LIG    1        1.316  -2.286  -2.037  0.00  0.00    +0.440 HD
ATOM     10  H   LIG    1       -0.074  -2.375  -1.158  0.00  0.00    +0.440 HD
ENDBRANCH   6   7
ENDBRANCH   2   6
TORSDOF 3
