REMARK  Name = ZINC550000002rAo.1
REMARK                            x       y       z     vdW  Elec       q    Type
REMARK                         _______ _______ _______ _____ _____    ______ ____
ROOT
ATOM      1  C   LIG    1       -0.601   1.566   3.711  0.00  0.00    +0.140 C 
ATOM      2  C   LIG    1        0.041   0.972   2.456  0.00  0.00    +0.180 C 
ENDROOT
BRANCH   2   3
ATOM      3  N   LIG    1        1.450   1.380   2.386  0.00  0.00    -0.650 N 
ATOM      4  H   LIG    1        1.873   0.988   1.558  0.00  0.00    +0.420 HD
ATOM      5  H   LIG    1        1.938   1.046   3.203  0.00  0.00    +0.460 HD
ATOM      6  H   LIG    1        1.507   2.387   2.348  0.00  0.00    +0.450 HD
ENDBRANCH   2   3
BRANCH   2   7
ATOM      7  C   LIG    1       -0.699   1.479   1.216  0.00  0.00    +0.310 C 
BRANCH   7   8
ATOM      8  N   LIG    1       -0.012   1.005   0.008  0.00  0.00    -0.650 N 
ATOM      9  H   LIG    1       -0.500   1.339  -0.810  0.00  0.00    +0.460 HD
ATOM     10  H   LIG    1        0.935   1.354   0.000  0.00  0.00    +0.420 HD
ATOM     11  H   LIG    1        0.002  -0.004   0.002  0.00  0.00    +0.450 HD
ENDBRANCH   7   8
ENDBRANCH   2   7
TORSDOF 3
