REMARK  Name = ZINC550000002rAo.0
REMARK                            x       y       z     vdW  Elec       q    Type
REMARK                         _______ _______ _______ _____ _____    ______ ____
ROOT
ATOM      1  C   LIG    1       -3.060   1.575  -2.174  0.00  0.00    +0.090 C 
ATOM      2  C   LIG    1       -2.207   0.938  -1.076  0.00  0.00    +0.170 C 
ENDROOT
BRANCH   2   3
ATOM      3  N   LIG    1       -2.811   1.212   0.235  0.00  0.00    -0.630 N 
ATOM      4  H   LIG    1       -3.742   0.824   0.264  0.00  0.00    +0.430 HD
ATOM      5  H   LIG    1       -2.858   2.210   0.381  0.00  0.00    +0.430 HD
ATOM      6  H   LIG    1       -2.249   0.792   0.959  0.00  0.00    +0.440 HD
ENDBRANCH   2   3
BRANCH   2   7
ATOM      7  C   LIG    1       -0.795   1.527  -1.120  0.00  0.00    +0.210 C 
BRANCH   7   8
ATOM      8  N   LIG    1       -0.012   1.005   0.008  0.00  0.00    -0.870 NA
ATOM      9  H   LIG    1        0.925   1.379   0.001  0.00  0.00    +0.370 HD
ATOM     10  H   LIG    1        0.002  -0.004   0.002  0.00  0.00    +0.350 HD
ENDBRANCH   7   8
ENDBRANCH   2   7
TORSDOF 3
