REMARK  Name = ZINCrD00000l359G.0
REMARK                            x       y       z     vdW  Elec       q    Type
REMARK                         _______ _______ _______ _____ _____    ______ ____
ROOT
ATOM      1  C   LIG    1        5.137   1.179   2.724  0.00  0.00    +0.150 C 
ATOM      2  C   LIG    1        4.345   1.580   1.506  0.00  0.00    +0.180 C 
ATOM      3  C   LIG    1        3.403   0.744   1.021  0.00  0.00    -0.240 C 
ATOM      4  C   LIG    1        2.630   1.186  -0.205  0.00  0.00    +0.370 C 
ATOM      5  N   LIG    1        2.972   2.503  -0.770  0.00  0.00    -0.650 N 
ATOM      6  H   LIG    1        2.511   2.841  -1.554  0.00  0.00    +0.450 HD
ATOM      7  C   LIG    1        3.938   3.227  -0.172  0.00  0.00    +0.550 C 
ATOM      8  S   LIG    1        4.346   4.758  -0.819  0.00  0.00    -0.570 S 
ATOM      9  N   LIG    1        4.591   2.787   0.911  0.00  0.00    -0.450 N 
ENDROOT
BRANCH   3  10
ATOM     10  C   LIG    1        3.147  -0.506   1.637  0.00  0.00    +0.600 C 
ATOM     11  N   LIG    1        3.884  -1.585   1.305  0.00  0.00    -0.610 N 
ATOM     12  C   LIG    1        5.026  -1.468   0.385  0.00  0.00    +0.240 C 
ATOM     13  C   LIG    1        6.241  -2.142   1.041  0.00  0.00    +0.220 C 
ATOM     14  O   LIG    1        5.883  -3.466   1.443  0.00  0.00    -0.370 OA
ATOM     15  C   LIG    1        4.849  -3.519   2.429  0.00  0.00    +0.220 C 
ATOM     16  C   LIG    1        3.566  -2.915   1.848  0.00  0.00    +0.270 C 
ATOM     17  O   LIG    1        2.261  -0.606   2.466  0.00  0.00    -0.510 OA
ENDBRANCH   3  10
BRANCH   9  18
ATOM     18  C   LIG    1        5.581   3.607   1.466  0.00  0.00    +0.120 A 
ATOM     19  C   LIG    1        6.881   3.555   0.980  0.00  0.00    +0.050 A 
ATOM     20  C   LIG    1        7.854   4.369   1.525  0.00  0.00    +0.020 A 
ATOM     21  C   LIG    1        7.537   5.228   2.562  0.00  0.00    +0.030 A 
ATOM     22  C   LIG    1        6.245   5.279   3.051  0.00  0.00    +0.020 A 
ATOM     23  C   LIG    1        5.266   4.471   2.506  0.00  0.00    +0.030 A 
ENDBRANCH   9  18
BRANCH   4  24
ATOM     24  C   LIG    1        1.166   1.198   0.149  0.00  0.00    -0.220 A 
ATOM     25  C   LIG    1        0.298   0.227  -0.136  0.00  0.00    +0.040 A 
ATOM     26  C   LIG    1       -1.000   0.462   0.284  0.00  0.00    +0.000 A 
ATOM     27  C   LIG    1       -1.184   1.619   0.921  0.00  0.00    -0.030 A 
ATOM     28  S   LIG    1        0.339   2.496   1.002  0.00  0.00    +0.130 S 
ENDBRANCH   4  24
TORSDOF 3
