REMARK  Name = ZINCrD000000B8kR.0
REMARK                            x       y       z     vdW  Elec       q    Type
REMARK                         _______ _______ _______ _____ _____    ______ ____
ROOT
ATOM      1  O   LIG    1       -0.114  -0.075  -0.093  0.00  0.00    -0.580 OA
ATOM      2  C   LIG    1       -1.156  -0.694   0.009  0.00  0.00    +0.710 C 
ATOM      3  N   LIG    1       -1.134  -2.038   0.104  0.00  0.00    -0.630 N 
ATOM      4  C   LIG    1        0.141  -2.762   0.193  0.00  0.00    +0.310 C 
ATOM      5  C   LIG    1        0.183  -3.832  -0.897  0.00  0.00    +0.060 C 
ATOM      6  C   LIG    1       -1.055  -4.723  -0.782  0.00  0.00    -0.410 C 
ATOM      7  C   LIG    1       -2.315  -3.877  -0.981  0.00  0.00    +0.060 C 
ATOM      8  C   LIG    1       -2.386  -2.808   0.113  0.00  0.00    +0.290 C 
ATOM      9  N   LIG    1       -2.332  -0.035   0.029  0.00  0.00    -0.750 N 
ATOM     10  H   LIG    1       -3.165  -0.532   0.038  0.00  0.00    +0.400 HD
ENDROOT
BRANCH   6  11
ATOM     11  S   LIG    1       -0.989  -6.017  -2.052  0.00  0.00    +2.490 S 
ATOM     12  O   LIG    1       -0.763  -5.447  -3.333  0.00  0.00    -0.930 OA
ATOM     13  O   LIG    1       -2.022  -6.971  -1.846  0.00  0.00    -0.930 OA
BRANCH  11  14
ATOM     14  C   LIG    1        0.495  -6.901  -1.702  0.00  0.00    -0.660 A 
ATOM     15  C   LIG    1        1.685  -6.513  -2.288  0.00  0.00    +0.120 A 
ATOM     16  C   LIG    1        2.850  -7.204  -2.010  0.00  0.00    -0.010 A 
ATOM     17  C   LIG    1        2.823  -8.288  -1.153  0.00  0.00    +0.070 A 
ATOM     18  C   LIG    1        1.631  -8.678  -0.570  0.00  0.00    -0.010 A 
ATOM     19  C   LIG    1        0.468  -7.985  -0.845  0.00  0.00    +0.120 A 
ENDBRANCH  11  14
ENDBRANCH   6  11
BRANCH   9  20
ATOM     20  C   LIG    1       -2.351   1.429   0.036  0.00  0.00    +0.290 C 
BRANCH  20  21
ATOM     21  C   LIG    1       -3.800   1.920   0.059  0.00  0.00    +0.230 C 
ATOM     22  F   LIG    1       -4.438   1.439   1.207  0.00  0.00    -0.200 F 
BRANCH  21  23
ATOM     23  C   LIG    1       -3.820   3.427   0.067  0.00  0.00    -0.130 A 
ATOM     24  C   LIG    1       -3.314   4.119   1.151  0.00  0.00    +0.040 A 
ATOM     25  C   LIG    1       -3.329   5.501   1.156  0.00  0.00    +0.010 A 
ATOM     26  C   LIG    1       -3.857   6.191   0.081  0.00  0.00    +0.020 A 
ATOM     27  C   LIG    1       -4.368   5.499  -1.001  0.00  0.00    +0.010 A 
ATOM     28  C   LIG    1       -4.350   4.117  -1.008  0.00  0.00    +0.030 A 
ENDBRANCH  21  23
ENDBRANCH  20  21
ENDBRANCH   9  20
TORSDOF 5
