REMARK  Name = ZINCrH00000No4HY.0
REMARK                            x       y       z     vdW  Elec       q    Type
REMARK                         _______ _______ _______ _____ _____    ______ ____
ROOT
ATOM      1  C   LIG    1       -1.438  -1.941   5.572  0.00  0.00    +0.250 C 
ATOM      2  C   LIG    1       -0.250  -2.817   5.976  0.00  0.00    +0.060 C 
ENDROOT
BRANCH   1   4
ATOM      3  C   LIG    1       -2.903  -1.953   7.519  0.00  0.00    +0.550 C 
ATOM      4  N   LIG    1       -1.998  -1.299   6.764  0.00  0.00    -0.710 N 
ATOM      5  H   LIG    1       -1.718  -0.404   7.009  0.00  0.00    +0.410 HD
ATOM      6  O   LIG    1       -3.255  -3.077   7.210  0.00  0.00    -0.550 OA
BRANCH   3   8
ATOM      7  C   LIG    1       -4.370  -1.967   9.464  0.00  0.00    +0.140 C 
ATOM      8  C   LIG    1       -3.463  -1.312   8.708  0.00  0.00    -0.100 C 
BRANCH   7  12
ATOM      9  C   LIG    1       -5.992  -0.109  12.915  0.00  0.00    +0.140 A 
ATOM     10  C   LIG    1       -6.396  -1.393  12.564  0.00  0.00    -0.020 A 
ATOM     11  C   LIG    1       -5.872  -2.000  11.445  0.00  0.00    +0.090 A 
ATOM     12  C   LIG    1       -4.932  -1.323  10.660  0.00  0.00    -0.120 A 
ATOM     13  C   LIG    1       -4.526  -0.033  11.020  0.00  0.00    +0.070 A 
ATOM     14  C   LIG    1       -5.059   0.567  12.137  0.00  0.00    -0.080 A 
BRANCH   9  16
ATOM     15  C   LIG    1       -6.053   1.804  14.322  0.00  0.00    +0.240 C 
ATOM     16  O   LIG    1       -6.511   0.485  14.019  0.00  0.00    -0.310 OA
ENDBRANCH   9  16
ENDBRANCH   7  12
ENDBRANCH   3   8
ENDBRANCH   1   4
BRANCH   1  17
ATOM     17  C   LIG    1       -0.975  -0.884   4.603  0.00  0.00    +0.520 C 
ATOM     18  N   LIG    1       -0.421  -1.243   3.428  0.00  0.00    -0.720 N 
ATOM     19  H   LIG    1       -0.320  -2.182   3.206  0.00  0.00    +0.400 HD
ATOM     20  O   LIG    1       -1.101   0.290   4.880  0.00  0.00    -0.530 OA
BRANCH  18  21
ATOM     21  C   LIG    1        0.029  -0.215   2.485  0.00  0.00    +0.310 C 
ATOM     22  C   LIG    1        1.447   0.227   2.851  0.00  0.00    +0.040 C 
BRANCH  21  23
ATOM     23  C   LIG    1        0.023  -0.779   1.088  0.00  0.00    -0.120 A 
ATOM     24  C   LIG    1        0.002  -0.004   0.002  0.00  0.00    -0.170 A 
ATOM     25  S   LIG    1       -0.006  -1.010  -1.441  0.00  0.00    +0.110 S 
ATOM     26  C   LIG    1        0.030  -2.470  -0.459  0.00  0.00    -0.170 A 
ATOM     27  C   LIG    1        0.043  -3.877  -0.996  0.00  0.00    +0.140 C 
ATOM     28  C   LIG    1       -0.018   1.503   0.010  0.00  0.00    +0.140 C 
ATOM     29  C   LIG    1        0.038  -2.139   0.833  0.00  0.00    +0.000 A 
ENDBRANCH  21  23
ENDBRANCH  18  21
ENDBRANCH   1  17
TORSDOF 7
