REMARK  Name = ZINCpe000000XQch.0
REMARK                            x       y       z     vdW  Elec       q    Type
REMARK                         _______ _______ _______ _____ _____    ______ ____
ROOT
ATOM      1  C   LIG    1       -3.429  -6.551   0.497  0.00  0.00    +0.560 C 
ATOM      2  N   LIG    1       -3.436  -5.220   0.714  0.00  0.00    -0.720 N 
ATOM      3  H   LIG    1       -4.274  -4.732   0.708  0.00  0.00    +0.400 HD
ATOM      4  O   LIG    1       -2.378  -7.162   0.504  0.00  0.00    -0.520 OA
ENDROOT
BRANCH   1  11
ATOM      5  C   LIG    1       -3.376  -9.347  -0.246  0.00  0.00    +0.130 C 
ATOM      6  C   LIG    1       -4.686  -8.615  -0.109  0.00  0.00    +0.040 A 
ATOM      7  C   LIG    1       -5.875  -9.278  -0.332  0.00  0.00    -0.010 A 
ATOM      8  C   LIG    1       -7.078  -8.605  -0.212  0.00  0.00    +0.160 A 
ATOM      9  C   LIG    1       -7.098  -7.267   0.138  0.00  0.00    -0.690 A 
ATOM     10  C   LIG    1       -5.916  -6.594   0.370  0.00  0.00    +0.170 A 
ATOM     11  C   LIG    1       -4.699  -7.266   0.250  0.00  0.00    -0.160 A 
BRANCH   9  12
ATOM     12  S   LIG    1       -8.636  -6.421   0.287  0.00  0.00    +2.700 S 
ATOM     13  O   LIG    1       -8.404  -5.317   1.152  0.00  0.00    -0.960 OA
ATOM     14  O   LIG    1       -9.618  -7.415   0.544  0.00  0.00    -0.960 OA
BRANCH  12  15
ATOM     15  N   LIG    1       -8.993  -5.784  -1.199  0.00  0.00    -1.250 NA
ATOM     16  H   LIG    1       -9.809  -5.275  -1.326  0.00  0.00    +0.420 HD
ATOM     17  H   LIG    1       -8.385  -5.920  -1.943  0.00  0.00    +0.420 HD
ENDBRANCH  12  15
ENDBRANCH   9  12
ENDBRANCH   1  11
BRANCH   2  18
ATOM     18  C   LIG    1       -2.177  -4.512   0.958  0.00  0.00    +0.270 C 
BRANCH  18  19
ATOM     19  C   LIG    1       -2.463  -3.024   1.173  0.00  0.00    +0.270 C 
BRANCH  19  20
ATOM     20  N   LIG    1       -1.204  -2.315   1.417  0.00  0.00    -0.730 N 
ATOM     21  H   LIG    1       -0.366  -2.803   1.423  0.00  0.00    +0.400 HD
ATOM     22  C   LIG    1       -1.211  -0.985   1.634  0.00  0.00    +0.560 C 
ATOM     23  O   LIG    1       -2.262  -0.373   1.627  0.00  0.00    -0.530 OA
BRANCH  22  24
ATOM     24  C   LIG    1        0.059  -0.270   1.881  0.00  0.00    -0.140 A 
ATOM     25  C   LIG    1        0.055   1.108   2.106  0.00  0.00    +0.080 A 
ATOM     26  C   LIG    1        1.244   1.769   2.336  0.00  0.00    +0.000 A 
ATOM     27  C   LIG    1        2.438   1.070   2.344  0.00  0.00    +0.040 A 
ATOM     28  C   LIG    1        2.448  -0.295   2.122  0.00  0.00    +0.000 A 
ATOM     29  C   LIG    1        1.267  -0.969   1.890  0.00  0.00    +0.040 A 
ENDBRANCH  22  24
ENDBRANCH  19  20
ENDBRANCH  18  19
ENDBRANCH   2  18
TORSDOF 7
