REMARK  Name = ZINCrg00000SjSH4.0
REMARK                            x       y       z     vdW  Elec       q    Type
REMARK                         _______ _______ _______ _____ _____    ______ ____
ROOT
ATOM      1  N   LIG    1       -0.193  -6.335   3.413  0.00  0.00    -0.540 N 
ATOM      2  C   LIG    1        0.937  -7.064   3.328  0.00  0.00    +0.560 A 
ATOM      3  C   LIG    1        0.857  -8.442   3.063  0.00  0.00    -0.100 A 
ATOM      4  C   LIG    1       -0.375  -9.015   2.898  0.00  0.00    +0.450 A 
ATOM      5  N   LIG    1       -1.502  -8.231   2.993  0.00  0.00    -0.540 N 
ATOM      6  C   LIG    1       -2.826  -8.834   2.818  0.00  0.00    +0.330 C 
ATOM      7  O   LIG    1        2.024  -6.530   3.479  0.00  0.00    -0.510 OA
ATOM      8  C   LIG    1       -1.396  -6.915   3.253  0.00  0.00    +0.710 A 
ATOM      9  O   LIG    1       -2.403  -6.239   3.339  0.00  0.00    -0.540 OA
ENDROOT
BRANCH   3  10
ATOM     10  N   LIG    1        2.031  -9.225   2.969  0.00  0.00    -0.620 N 
ATOM     11  C   LIG    1        2.404  -9.866   1.701  0.00  0.00    +0.260 C 
ATOM     12  C   LIG    1        3.843  -9.458   1.352  0.00  0.00    -0.010 C 
ATOM     13  C   LIG    1        4.763  -9.803   2.525  0.00  0.00    +0.010 C 
ATOM     14  C   LIG    1        4.328  -9.020   3.765  0.00  0.00    -0.010 C 
ATOM     15  C   LIG    1        2.897  -9.418   4.140  0.00  0.00    +0.270 C 
ENDBRANCH   3  10
BRANCH   4  16
ATOM     16  N   LIG    1       -0.486 -10.362   2.638  0.00  0.00    -0.840 N 
ATOM     17  H   LIG    1       -1.361 -10.777   2.593  0.00  0.00    +0.400 HD
ATOM     18  H   LIG    1        0.312 -10.896   2.498  0.00  0.00    +0.420 HD
ENDBRANCH   4  16
BRANCH   1  19
ATOM     19  C   LIG    1       -0.111  -4.898   3.688  0.00  0.00    +0.360 C 
BRANCH  19  22
ATOM     20  N   LIG    1        0.067  -2.797   2.395  0.00  0.00    -0.670 N 
ATOM     21  H   LIG    1        0.136  -2.320   3.237  0.00  0.00    +0.410 HD
ATOM     22  C   LIG    1       -0.018  -4.142   2.388  0.00  0.00    +0.510 C 
ATOM     23  O   LIG    1       -0.020  -4.744   1.335  0.00  0.00    -0.510 OA
BRANCH  20  29
ATOM     24  C   LIG    1       -1.243   1.196  -0.157  0.00  0.00    +0.100 C 
ATOM     25  C   LIG    1       -0.572  -0.151  -0.077  0.00  0.00    -0.070 A 
ATOM     26  C   LIG    1        0.028  -0.691  -1.200  0.00  0.00    -0.010 A 
ATOM     27  C   LIG    1        0.649  -1.925  -1.129  0.00  0.00    +0.030 A 
ATOM     28  C   LIG    1        0.662  -2.626   0.060  0.00  0.00    +0.020 A 
ATOM     29  C   LIG    1        0.055  -2.089   1.188  0.00  0.00    +0.150 A 
ATOM     30  C   LIG    1       -0.562  -0.848   1.116  0.00  0.00    -0.010 A 
ENDBRANCH  20  29
ENDBRANCH  19  22
ENDBRANCH   1  19
TORSDOF 5
