REMARK  Name = ZINCpk00000xXllW.0
REMARK                            x       y       z     vdW  Elec       q    Type
REMARK                         _______ _______ _______ _____ _____    ______ ____
ROOT
ATOM      1  C   LIG    1        1.192  -2.140  -0.017  0.00  0.00    +0.580 C 
ATOM      2  N   LIG    1        0.041  -2.834   0.091  0.00  0.00    -0.590 N 
ATOM      3  C   LIG    1       -1.252  -2.137   0.123  0.00  0.00    +0.290 C 
ATOM      4  C   LIG    1       -2.140  -2.710  -0.994  0.00  0.00    +0.260 C 
ATOM      5  N   LIG    1       -2.123  -4.177  -0.899  0.00  0.00    -0.630 N 
ATOM      6  C   LIG    1       -0.830  -4.873  -0.925  0.00  0.00    +0.300 C 
ATOM      7  C   LIG    1       -3.274  -4.870  -0.790  0.00  0.00    +0.710 C 
ATOM      8  N   LIG    1       -4.457  -4.231  -0.876  0.00  0.00    -0.740 N 
ATOM      9  H   LIG    1       -4.482  -3.264  -0.943  0.00  0.00    +0.400 HD
ATOM     10  O   LIG    1       -3.244  -6.073  -0.615  0.00  0.00    -0.580 OA
ATOM     11  C   LIG    1        0.058  -4.300   0.186  0.00  0.00    +0.290 C 
ATOM     12  O   LIG    1        2.234  -2.723  -0.239  0.00  0.00    -0.520 OA
ENDROOT
BRANCH   1  17
ATOM     13  C   LIG    1        1.218   3.499   0.544  0.00  0.00    +0.160 C 
ATOM     14  C   LIG    1        1.226   1.999   0.391  0.00  0.00    +0.110 A 
ATOM     15  C   LIG    1        0.075   1.271   0.654  0.00  0.00    +0.230 A 
ATOM     16  N   LIG    1        0.077  -0.040   0.521  0.00  0.00    -0.400 NA
ATOM     17  C   LIG    1        1.185  -0.666   0.133  0.00  0.00    +0.020 A 
ATOM     18  C   LIG    1        2.340   0.069  -0.131  0.00  0.00    +0.310 A 
ATOM     19  N   LIG    1        2.329   1.383   0.005  0.00  0.00    -0.440 NA
ENDBRANCH   1  17
BRANCH   8  20
ATOM     20  C   LIG    1       -5.706  -4.997  -0.867  0.00  0.00    +0.340 C 
BRANCH  20  21
ATOM     21  C   LIG    1       -6.875  -4.052  -0.973  0.00  0.00    -0.110 A 
ATOM     22  C   LIG    1       -7.457  -3.541   0.172  0.00  0.00    +0.020 A 
ATOM     23  C   LIG    1       -8.527  -2.670   0.074  0.00  0.00    +0.010 A 
ATOM     24  C   LIG    1       -9.021  -2.319  -1.168  0.00  0.00    +0.010 A 
ATOM     25  C   LIG    1       -8.442  -2.835  -2.313  0.00  0.00    +0.000 A 
ATOM     26  C   LIG    1       -7.370  -3.701  -2.216  0.00  0.00    +0.020 A 
ENDBRANCH  20  21
ENDBRANCH   8  20
TORSDOF 3
