REMARK  Name = ZINCpk00000y3tcg.1
REMARK                            x       y       z     vdW  Elec       q    Type
REMARK                         _______ _______ _______ _____ _____    ______ ____
ROOT
ATOM      1  N   LIG    1        1.851   3.598   1.388  0.00  0.00    -0.540 NA
ATOM      2  C   LIG    1        0.556   3.650   2.082  0.00  0.00    +0.190 C 
ATOM      3  C   LIG    1        0.778   4.055   3.541  0.00  0.00    +0.180 C 
ATOM      4  N   LIG    1        1.450   5.361   3.587  0.00  0.00    -0.540 NA
ATOM      5  C   LIG    1        2.745   5.309   2.894  0.00  0.00    +0.180 C 
ATOM      6  C   LIG    1        2.523   4.904   1.435  0.00  0.00    +0.200 C 
ENDROOT
BRANCH   1   7
ATOM      7  C   LIG    1        1.688   3.139   0.002  0.00  0.00    +0.330 C 
BRANCH   7  11
ATOM      8  N   LIG    1        0.002  -0.004   0.002  0.00  0.00    -0.130 N 
ATOM      9  N   LIG    1        1.224  -0.409  -0.012  0.00  0.00    -0.060 NA
ATOM     10  N   LIG    1        2.002   0.621  -0.014  0.00  0.00    -0.270 NA
ATOM     11  C   LIG    1        1.226   1.705  -0.001  0.00  0.00    +0.170 A 
ATOM     12  N   LIG    1       -0.015   1.285   0.009  0.00  0.00    -0.300 NA
BRANCH   8  14
ATOM     13  C   LIG    1       -2.029  -0.583  -1.232  0.00  0.00    +0.080 C 
ATOM     14  C   LIG    1       -1.180  -0.870   0.008  0.00  0.00    +0.180 C 
ATOM     15  C   LIG    1       -2.006  -0.596   1.267  0.00  0.00    +0.080 C 
ATOM     16  C   LIG    1       -0.739  -2.335  -0.004  0.00  0.00    +0.100 C 
ENDBRANCH   8  14
ENDBRANCH   7  11
ENDBRANCH   1   7
BRANCH   4  17
ATOM     17  C   LIG    1        1.613   5.820   4.973  0.00  0.00    +0.180 C 
BRANCH  17  18
ATOM     18  C   LIG    1        0.238   6.100   5.583  0.00  0.00    +0.070 C 
BRANCH  18  19
ATOM     19  C   LIG    1        0.406   6.571   7.005  0.00  0.00    -0.090 A 
ATOM     20  C   LIG    1        0.416   5.653   8.039  0.00  0.00    +0.020 A 
ATOM     21  C   LIG    1        0.575   6.082   9.343  0.00  0.00    -0.010 A 
ATOM     22  C   LIG    1        0.713   7.436   9.615  0.00  0.00    +0.100 A 
ATOM     23  C   LIG    1        0.696   8.355   8.575  0.00  0.00    -0.010 A 
ATOM     24  C   LIG    1        0.543   7.920   7.273  0.00  0.00    +0.030 A 
BRANCH  22  25
ATOM     25  O   LIG    1        0.863   7.860  10.897  0.00  0.00    -0.500 OA
ATOM     26  H   LIG    1        0.029   8.056  11.346  0.00  0.00    +0.390 HD
ENDBRANCH  22  25
ENDBRANCH  18  19
ENDBRANCH  17  18
ENDBRANCH   4  17
TORSDOF 7
