REMARK  Name = ZINCvU0000000Ccp.0
REMARK                            x       y       z     vdW  Elec       q    Type
REMARK                         _______ _______ _______ _____ _____    ______ ____
ROOT
ATOM      1  C   LIG    1        1.345   4.051   6.886  0.00  0.00    -0.120 A 
ATOM      2  C   LIG    1        1.231   5.437   6.757  0.00  0.00    +0.090 A 
ATOM      3  C   LIG    1        1.581   6.255   7.811  0.00  0.00    +0.030 A 
ATOM      4  C   LIG    1        2.055   5.706   8.990  0.00  0.00    -0.050 A 
ATOM      5  C   LIG    1        2.176   4.334   9.122  0.00  0.00    +0.030 A 
ATOM      6  C   LIG    1        1.824   3.504   8.078  0.00  0.00    +0.090 A 
ENDROOT
BRANCH   1   7
ATOM      7  C   LIG    1        0.966   3.169   5.763  0.00  0.00    +0.510 C 
ATOM      8  O   LIG    1        1.071   1.964   5.876  0.00  0.00    -0.500 OA
BRANCH   7   9
ATOM      9  O   LIG    1        0.504   3.700   4.615  0.00  0.00    -0.330 OA
BRANCH   9  10
ATOM     10  C   LIG    1        0.151   2.773   3.554  0.00  0.00    +0.250 C 
BRANCH  10  19
ATOM     11  C   LIG    1       -1.531   5.104   0.520  0.00  0.00    +0.050 C 
ATOM     12  C   LIG    1       -1.421   3.621   0.161  0.00  0.00    +0.220 C 
ATOM     13  C   LIG    1       -2.817   3.053  -0.111  0.00  0.00    +0.020 C 
ATOM     14  C   LIG    1       -2.716   1.542  -0.332  0.00  0.00    +0.020 C 
ATOM     15  C   LIG    1       -2.161   0.877   0.929  0.00  0.00    +0.020 C 
ATOM     16  C   LIG    1       -0.757   1.419   1.213  0.00  0.00    +0.220 C 
ATOM     17  C   LIG    1        0.192   0.998   0.090  0.00  0.00    +0.030 C 
ATOM     18  N   LIG    1       -0.822   2.885   1.283  0.00  0.00    -0.600 N 
ATOM     19  C   LIG    1       -0.341   3.544   2.357  0.00  0.00    +0.520 C 
ATOM     20  O   LIG    1       -0.305   4.756   2.359  0.00  0.00    -0.510 OA
ENDBRANCH  10  19
ENDBRANCH   9  10
ENDBRANCH   7   9
ENDBRANCH   1   7
BRANCH   4  21
ATOM     21  C   LIG    1        2.442   6.607  10.135  0.00  0.00    +0.150 C 
BRANCH  21  22
ATOM     22  S   LIG    1        4.191   7.049   9.990  0.00  0.00    +0.020 S 
BRANCH  22  23
ATOM     23  C   LIG    1        4.365   8.074  11.413  0.00  0.00    +0.080 A 
ATOM     24  N   LIG    1        3.417   8.352  12.241  0.00  0.00    -0.470 NA
ATOM     25  C   LIG    1        3.708   9.149  13.289  0.00  0.00    +0.090 A 
ATOM     26  C   LIG    1        2.858   9.593  14.323  0.00  0.00    +0.070 A 
ATOM     27  C   LIG    1        3.337  10.416  15.312  0.00  0.00    +0.040 A 
ATOM     28  C   LIG    1        4.662  10.824  15.309  0.00  0.00    +0.040 A 
ATOM     29  C   LIG    1        5.511  10.403  14.309  0.00  0.00    +0.060 A 
ATOM     30  C   LIG    1        5.042   9.569  13.298  0.00  0.00    -0.170 A 
ATOM     31  S   LIG    1        5.856   8.868  11.901  0.00  0.00    +0.110 S 
ENDBRANCH  22  23
ENDBRANCH  21  22
ENDBRANCH   4  21
TORSDOF 7
