REMARK  Name = ZINCpe000000Wr1x.1
REMARK                            x       y       z     vdW  Elec       q    Type
REMARK                         _______ _______ _______ _____ _____    ______ ____
ROOT
ATOM      1  N   LIG    1       -2.714   5.301  -0.160  0.00  0.00    -0.560 N 
ATOM      2  C   LIG    1       -2.628   4.022  -0.875  0.00  0.00    +0.300 C 
ATOM      3  C   LIG    1       -1.190   3.512  -0.638  0.00  0.00    -0.010 C 
ATOM      4  C   LIG    1       -0.825   4.207   0.695  0.00  0.00    +0.080 C 
ATOM      5  C   LIG    1       -1.716   5.428   0.733  0.00  0.00    +0.530 C 
ATOM      6  O   LIG    1       -1.555   6.384   1.462  0.00  0.00    -0.520 OA
ENDROOT
BRANCH   3   7
ATOM      7  C   LIG    1       -1.167   2.013  -0.488  0.00  0.00    +0.530 C 
ATOM      8  N   LIG    1        0.000   1.374  -0.273  0.00  0.00    -0.610 N 
ATOM      9  C   LIG    1        1.276   2.106  -0.295  0.00  0.00    +0.220 C 
ATOM     10  C   LIG    1        2.238   1.380  -1.240  0.00  0.00    +0.210 C 
ATOM     11  N   LIG    1        2.338  -0.031  -0.843  0.00  0.00    -0.680 NA
ATOM     12  H   LIG    1        2.699  -0.118   0.095  0.00  0.00    +0.340 HD
ATOM     13  C   LIG    1        1.044  -0.714  -0.974  0.00  0.00    +0.220 C 
ATOM     14  C   LIG    1        0.033  -0.074  -0.018  0.00  0.00    +0.180 C 
ATOM     15  C   LIG    1       -1.356  -0.669  -0.257  0.00  0.00    +0.050 C 
ATOM     16  O   LIG    1       -2.200   1.381  -0.561  0.00  0.00    -0.520 OA
ENDBRANCH   3   7
BRANCH   1  20
ATOM     17  C   LIG    1       -5.673   8.172  -0.812  0.00  0.00    +0.180 A 
ATOM     18  C   LIG    1       -5.866   7.178   0.135  0.00  0.00    -0.100 A 
ATOM     19  C   LIG    1       -4.888   6.224   0.348  0.00  0.00    +0.110 A 
ATOM     20  C   LIG    1       -3.708   6.266  -0.379  0.00  0.00    +0.070 A 
ATOM     21  C   LIG    1       -3.513   7.264  -1.331  0.00  0.00    +0.180 A 
ATOM     22  C   LIG    1       -4.497   8.215  -1.546  0.00  0.00    -0.100 A 
BRANCH  17  24
ATOM     23  C   LIG    1       -7.825   9.002  -0.233  0.00  0.00    +0.240 C 
ATOM     24  O   LIG    1       -6.639   9.106  -1.023  0.00  0.00    -0.310 OA
ENDBRANCH  17  24
BRANCH  21  25
ATOM     25  O   LIG    1       -2.359   7.305  -2.049  0.00  0.00    -0.300 OA
ATOM     26  C   LIG    1       -2.228   8.356  -3.008  0.00  0.00    +0.240 C 
ENDBRANCH  21  25
ENDBRANCH   1  20
TORSDOF 4
