REMARK  Name = ZINCrD00000F5LEX.0
REMARK                            x       y       z     vdW  Elec       q    Type
REMARK                         _______ _______ _______ _____ _____    ______ ____
ROOT
ATOM      1  N   LIG    1        4.811   0.172  -0.842  0.00  0.00    -0.530 N 
ATOM      2  C   LIG    1        3.701  -0.595  -0.949  0.00  0.00    +0.550 A 
ATOM      3  C   LIG    1        2.399   0.086  -0.915  0.00  0.00    -0.200 A 
ATOM      4  C   LIG    1        1.200  -0.617  -1.020  0.00  0.00    +0.100 A 
ATOM      5  C   LIG    1        0.006   0.068  -0.983  0.00  0.00    -0.010 A 
ATOM      6  C   LIG    1       -0.013   1.450  -0.843  0.00  0.00    +0.060 A 
ATOM      7  C   LIG    1        1.159   2.164  -0.738  0.00  0.00    +0.030 A 
ATOM      8  C   LIG    1        2.385   1.492  -0.772  0.00  0.00    +0.170 A 
ATOM      9  N   LIG    1        3.560   2.156  -0.673  0.00  0.00    -0.530 NA
ATOM     10  O   LIG    1        3.779  -1.803  -1.071  0.00  0.00    -0.500 OA
ATOM     11  C   LIG    1        4.708   1.527  -0.706  0.00  0.00    +0.360 A 
ENDROOT
BRANCH   1  12
ATOM     12  C   LIG    1        6.134  -0.457  -0.870  0.00  0.00    +0.300 C 
BRANCH  12  13
ATOM     13  C   LIG    1        6.556  -0.823   0.555  0.00  0.00    +0.000 C 
BRANCH  13  14
ATOM     14  C   LIG    1        7.937  -1.480   0.525  0.00  0.00    +0.020 C 
BRANCH  14  15
ATOM     15  C   LIG    1        8.358  -1.845   1.950  0.00  0.00    +0.000 C 
BRANCH  15  17
ATOM     16  C   LIG    1       10.161  -2.868   3.345  0.00  0.00    +0.000 C 
ATOM     17  C   LIG    1        9.740  -2.502   1.921  0.00  0.00    -0.010 C 
ENDBRANCH  15  17
ENDBRANCH  14  15
ENDBRANCH  13  14
ENDBRANCH  12  13
ENDBRANCH   1  12
BRANCH  11  18
ATOM     18  S   LIG    1        6.189   2.472  -0.569  0.00  0.00    +0.060 S 
BRANCH  18  19
ATOM     19  C   LIG    1        5.488   4.134  -0.419  0.00  0.00    +0.090 C 
BRANCH  19  20
ATOM     20  C   LIG    1        6.603   5.139  -0.286  0.00  0.00    +0.440 C 
ATOM     21  O   LIG    1        7.759   4.768  -0.293  0.00  0.00    -0.470 OA
BRANCH  20  22
ATOM     22  C   LIG    1        6.302   6.516  -0.154  0.00  0.00    -0.310 C 
ATOM     23  C   LIG    1        7.318   7.427   0.075  0.00  0.00    +0.350 C 
ATOM     24  C   LIG    1        8.755   6.973   0.059  0.00  0.00    +0.160 C 
BRANCH  23  25
ATOM     25  N   LIG    1        7.022   8.722   0.315  0.00  0.00    -0.800 N 
ATOM     26  H   LIG    1        7.734   9.360   0.476  0.00  0.00    +0.420 HD
ATOM     27  H   LIG    1        6.097   9.014   0.326  0.00  0.00    +0.410 HD
ENDBRANCH  23  25
BRANCH  22  28
ATOM     28  C   LIG    1        4.947   6.967  -0.258  0.00  0.00    +0.260 C 
ATOM     29  N   LIG    1        3.872   7.324  -0.341  0.00  0.00    -0.440 NA
ENDBRANCH  22  28
ENDBRANCH  20  22
ENDBRANCH  19  20
ENDBRANCH  18  19
ENDBRANCH  11  18
TORSDOF 11
