REMARK  Name = ZINCrH000004qhQI.1
REMARK                            x       y       z     vdW  Elec       q    Type
REMARK                         _______ _______ _______ _____ _____    ______ ____
ROOT
ATOM      1  C   LIG    1        1.974   0.775  -0.013  0.00  0.00    +0.220 A 
ATOM      2  N   LIG    1        1.118   1.763   0.001  0.00  0.00    -0.350 NA
ATOM      3  O   LIG    1       -0.016   1.333   0.009  0.00  0.00    +0.110 OA
ATOM      4  C   LIG    1        0.002  -0.004   0.002  0.00  0.00    +0.170 A 
ATOM      5  N   LIG    1        1.259  -0.372  -0.012  0.00  0.00    -0.420 NA
ENDROOT
BRANCH   1   9
ATOM      6  C   LIG    1        6.054   3.644  -0.035  0.00  0.00    +0.120 C 
ATOM      7  C   LIG    1        5.399   2.287  -0.036  0.00  0.00    -0.020 A 
ATOM      8  C   LIG    1        4.041   2.166  -0.030  0.00  0.00    +0.000 A 
ATOM      9  C   LIG    1        3.454   0.892  -0.025  0.00  0.00    +0.230 A 
ATOM     10  N   LIG    1        4.186  -0.205  -0.037  0.00  0.00    -0.430 NA
ATOM     11  C   LIG    1        5.519  -0.148  -0.049  0.00  0.00    +0.130 A 
ATOM     12  C   LIG    1        6.295  -1.321  -0.061  0.00  0.00    +0.060 A 
ATOM     13  C   LIG    1        7.653  -1.233  -0.070  0.00  0.00    +0.030 A 
ATOM     14  C   LIG    1        8.293   0.004  -0.070  0.00  0.00    +0.020 A 
ATOM     15  C   LIG    1        7.577   1.162  -0.059  0.00  0.00    +0.040 A 
ATOM     16  C   LIG    1        6.174   1.110  -0.048  0.00  0.00    -0.090 A 
ENDBRANCH   1   9
BRANCH   4  17
ATOM     17  C   LIG    1       -1.198  -0.916   0.009  0.00  0.00    +0.460 C 
BRANCH  17  18
ATOM     18  N   LIG    1       -1.573  -1.218   1.392  0.00  0.00    -1.110 NA
ATOM     19  H   LIG    1       -0.955  -1.030   2.115  0.00  0.00    +0.430 HD
BRANCH  18  20
ATOM     20  S   LIG    1       -3.055  -1.881   1.722  0.00  0.00    +2.730 S 
ATOM     21  O   LIG    1       -4.010  -1.099   1.019  0.00  0.00    -0.940 OA
ATOM     22  O   LIG    1       -3.100  -2.083   3.128  0.00  0.00    -0.930 OA
BRANCH  20  23
ATOM     23  C   LIG    1       -3.084  -3.482   0.988  0.00  0.00    -0.800 A 
ATOM     24  C   LIG    1       -2.700  -4.610   1.588  0.00  0.00    +0.200 A 
ATOM     25  C   LIG    1       -2.814  -5.751   0.812  0.00  0.00    +0.010 A 
ATOM     26  C   LIG    1       -3.290  -5.549  -0.419  0.00  0.00    -0.110 A 
ATOM     27 CL   LIG    1       -3.542  -6.786  -1.611  0.00  0.00    +0.010 Cl
ATOM     28  S   LIG    1       -3.632  -3.839  -0.645  0.00  0.00    +0.270 S 
ENDBRANCH  20  23
ENDBRANCH  18  20
ENDBRANCH  17  18
ENDBRANCH   4  17
TORSDOF 5
