REMARK  Name = ZINCpk000000oYgh.0
REMARK                            x       y       z     vdW  Elec       q    Type
REMARK                         _______ _______ _______ _____ _____    ______ ____
ROOT
ATOM      1  S   LIG    1       -2.266   2.477   1.131  0.00  0.00    +2.780 S 
ATOM      2  O   LIG    1       -2.558   2.678  -0.245  0.00  0.00    -0.970 OA
ATOM      3  O   LIG    1       -2.436   3.486   2.116  0.00  0.00    -0.950 OA
ENDROOT
BRANCH   1   8
ATOM      4  C   LIG    1       -4.302  -2.449   2.820  0.00  0.00    +0.650 C 
ATOM      5  N   LIG    1       -3.557  -1.399   2.422  0.00  0.00    -0.590 N 
ATOM      6  C   LIG    1       -2.996  -0.464   3.407  0.00  0.00    +0.300 C 
ATOM      7  C   LIG    1       -3.448   0.957   3.046  0.00  0.00    +0.290 C 
ATOM      8  N   LIG    1       -3.181   1.187   1.620  0.00  0.00    -1.010 NA
ATOM      9  C   LIG    1       -3.747   0.254   0.634  0.00  0.00    +0.290 C 
ATOM     10  C   LIG    1       -3.290  -1.169   0.995  0.00  0.00    +0.290 C 
ATOM     11  O   LIG    1       -4.516  -2.629   4.002  0.00  0.00    -0.570 OA
BRANCH   4  12
ATOM     12  O   LIG    1       -4.810  -3.299   1.907  0.00  0.00    -0.370 OA
BRANCH  12  14
ATOM     13  C   LIG    1       -6.090  -5.257   1.232  0.00  0.00    +0.070 C 
ATOM     14  C   LIG    1       -5.603  -4.408   2.408  0.00  0.00    +0.220 C 
ENDBRANCH  12  14
ENDBRANCH   4  12
ENDBRANCH   1   8
BRANCH   1  15
ATOM     15  N   LIG    1       -0.679   2.010   1.209  0.00  0.00    -1.010 NA
ATOM     16  C   LIG    1       -0.074   1.282   0.090  0.00  0.00    +0.300 C 
BRANCH  15  17
ATOM     17  C   LIG    1        0.120   2.324   2.396  0.00  0.00    +0.360 C 
BRANCH  17  18
ATOM     18  C   LIG    1        1.183   3.329   2.035  0.00  0.00    -0.160 A 
ATOM     19  C   LIG    1        2.497   2.925   1.899  0.00  0.00    +0.100 A 
ATOM     20  C   LIG    1        3.472   3.845   1.562  0.00  0.00    -0.020 A 
ATOM     21  C   LIG    1        3.135   5.175   1.372  0.00  0.00    +0.140 A 
ATOM     22  C   LIG    1        1.819   5.581   1.514  0.00  0.00    -0.050 A 
ATOM     23  F   LIG    1        4.089   6.074   1.048  0.00  0.00    -0.130 F 
ATOM     24  C   LIG    1        0.843   4.658   1.846  0.00  0.00    +0.140 A 
ATOM     25  F   LIG    1       -0.442   5.054   1.985  0.00  0.00    -0.110 F 
ENDBRANCH  17  18
ENDBRANCH  15  17
ENDBRANCH   1  15
TORSDOF 6
