REMARK  Name = ZINCvU00000009K8.0
REMARK                            x       y       z     vdW  Elec       q    Type
REMARK                         _______ _______ _______ _____ _____    ______ ____
ROOT
ATOM      1  C   LIG    1        1.215   1.912  -0.259  0.00  0.00    -0.120 A 
ATOM      2  C   LIG    1        0.076   1.106  -0.253  0.00  0.00    +0.040 A 
ATOM      3  C   LIG    1       -1.158   1.663   0.014  0.00  0.00    +0.010 A 
ATOM      4  C   LIG    1       -1.266   3.015   0.287  0.00  0.00    +0.040 A 
ATOM      5  C   LIG    1       -0.140   3.820   0.283  0.00  0.00    +0.030 A 
ATOM      6  C   LIG    1        1.099   3.276   0.012  0.00  0.00    -0.030 A 
ENDROOT
BRANCH   1   9
ATOM      7  N   LIG    1        2.667  -0.012  -0.691  0.00  0.00    -0.720 N 
ATOM      8  H   LIG    1        1.890  -0.585  -0.602  0.00  0.00    +0.400 HD
ATOM      9  C   LIG    1        2.539   1.323  -0.550  0.00  0.00    +0.560 C 
ATOM     10  O   LIG    1        3.513   2.042  -0.662  0.00  0.00    -0.510 OA
BRANCH   7  12
ATOM     11  C   LIG    1        4.233  -0.559  -2.489  0.00  0.00    +0.040 C 
ATOM     12  C   LIG    1        3.979  -0.595  -0.980  0.00  0.00    +0.290 C 
BRANCH  12  13
ATOM     13  C   LIG    1        4.011  -2.023  -0.500  0.00  0.00    -0.080 A 
ATOM     14  C   LIG    1        2.904  -2.833  -0.671  0.00  0.00    +0.030 A 
ATOM     15  C   LIG    1        2.928  -4.144  -0.232  0.00  0.00    +0.050 A 
ATOM     16  C   LIG    1        4.062  -4.649   0.381  0.00  0.00    +0.030 A 
ATOM     17  O   LIG    1        4.340  -5.882   0.896  0.00  0.00    -0.310 OA
ATOM     18  C   LIG    1        5.485  -5.694   1.749  0.00  0.00    +0.430 C 
ATOM     19  O   LIG    1        6.155  -4.555   1.176  0.00  0.00    -0.310 OA
ATOM     20  C   LIG    1        5.178  -3.833   0.554  0.00  0.00    +0.040 A 
ATOM     21  C   LIG    1        5.149  -2.522   0.106  0.00  0.00    +0.050 A 
ENDBRANCH  12  13
ENDBRANCH   7  12
ENDBRANCH   1   9
BRANCH   6  22
ATOM     22  C   LIG    1        2.324   4.154   0.009  0.00  0.00    +0.160 C 
BRANCH  22  23
ATOM     23  S   LIG    1        2.703   4.655  -1.688  0.00  0.00    +0.080 S 
BRANCH  23  24
ATOM     24  C   LIG    1        4.135   5.642  -1.404  0.00  0.00    +0.230 A 
ATOM     25  N   LIG    1        4.667   5.870  -0.230  0.00  0.00    -0.480 NA
ATOM     26  C   LIG    1        5.758   6.668  -0.393  0.00  0.00    +0.030 A 
ATOM     27  C   LIG    1        6.691   7.216   0.487  0.00  0.00    +0.070 A 
ATOM     28  C   LIG    1        7.707   8.010  -0.000  0.00  0.00    +0.020 A 
ATOM     29  C   LIG    1        7.806   8.266  -1.359  0.00  0.00    +0.040 A 
ATOM     30  C   LIG    1        6.890   7.729  -2.241  0.00  0.00    +0.050 A 
ATOM     31  C   LIG    1        5.863   6.929  -1.768  0.00  0.00    +0.010 A 
ATOM     32  O   LIG    1        4.837   6.274  -2.361  0.00  0.00    -0.200 OA
ENDBRANCH  23  24
ENDBRANCH  22  23
ENDBRANCH   6  22
TORSDOF 6
