REMARK  Name = ZINCkj000005eX4Y.0
REMARK                            x       y       z     vdW  Elec       q    Type
REMARK                         _______ _______ _______ _____ _____    ______ ____
ROOT
ATOM      1  C   LIG    1       -2.444   1.354   4.364  0.00  0.00    +0.040 C 
ATOM      2  C   LIG    1       -2.730   1.639   2.888  0.00  0.00    +0.190 C 
ATOM      3  C   LIG    1       -2.876   3.147   2.679  0.00  0.00    +0.050 C 
ENDROOT
BRANCH   2   4
ATOM      4  N   LIG    1       -3.971   0.968   2.493  0.00  0.00    -1.110 NA
ATOM      5  H   LIG    1       -3.987   0.403   1.705  0.00  0.00    +0.420 HD
BRANCH   4   6
ATOM      6  S   LIG    1       -5.346   1.174   3.393  0.00  0.00    +2.610 S 
ATOM      7  O   LIG    1       -6.376   0.610   2.592  0.00  0.00    -0.940 OA
ATOM      8  O   LIG    1       -5.346   2.556   3.720  0.00  0.00    -0.940 OA
BRANCH   6   9
ATOM      9  C   LIG    1       -5.070   0.168   4.877  0.00  0.00    -0.530 C 
ATOM     10  C   LIG    1       -5.333  -1.335   4.668  0.00  0.00    +0.280 C 
ATOM     11  O   LIG    1       -6.003  -1.278   5.946  0.00  0.00    -0.360 OA
ATOM     12  C   LIG    1       -6.275   0.133   5.837  0.00  0.00    +0.280 C 
ENDBRANCH   6   9
ENDBRANCH   4   6
ENDBRANCH   2   4
BRANCH   2  13
ATOM     13  C   LIG    1       -1.573   1.115   2.034  0.00  0.00    +0.050 C 
BRANCH  13  14
ATOM     14  C   LIG    1       -0.277   1.815   2.447  0.00  0.00    +0.250 C 
BRANCH  14  15
ATOM     15  N   LIG    1        0.811   1.398   1.553  0.00  0.00    -0.390 N 
ATOM     16  C   LIG    1        1.984   2.263   1.806  0.00  0.00    +0.250 C 
ATOM     17  C   LIG    1        2.752   1.868   3.038  0.00  0.00    +0.050 C 
ATOM     18  C   LIG    1        3.903   0.931   2.611  0.00  0.00    +0.020 C 
ATOM     19  C   LIG    1        3.441  -0.428   2.358  0.00  0.00    +0.020 C 
ATOM     20  C   LIG    1        2.401  -0.486   1.218  0.00  0.00    +0.060 C 
ATOM     21  C   LIG    1        1.073  -0.041   1.767  0.00  0.00    +0.250 C 
ATOM     22  H   LIG    1        0.512   1.533   0.599  0.00  0.00    +0.420 HD
ENDBRANCH  14  15
ENDBRANCH  13  14
ENDBRANCH   2  13
TORSDOF 6
