REMARK  Name = ZINCrH000004pNQ9.0
REMARK                            x       y       z     vdW  Elec       q    Type
REMARK                         _______ _______ _______ _____ _____    ______ ____
ROOT
ATOM      1  C   LIG    1       -0.509   1.859   6.126  0.00  0.00    -0.060 A 
ATOM      2  C   LIG    1        0.135   3.008   6.548  0.00  0.00    +0.010 A 
ATOM      3  C   LIG    1       -0.339   3.707   7.640  0.00  0.00    +0.040 A 
ATOM      4  C   LIG    1       -1.464   3.245   8.325  0.00  0.00    -0.130 A 
ATOM      5  C   LIG    1       -2.105   2.081   7.898  0.00  0.00    +0.080 A 
ATOM      6  C   LIG    1       -1.625   1.395   6.802  0.00  0.00    +0.030 A 
ENDROOT
BRANCH   4   7
ATOM      7  C   LIG    1       -1.973   3.985   9.500  0.00  0.00    +0.560 C 
ATOM      8  N   LIG    1       -1.351   5.108   9.910  0.00  0.00    -0.720 N 
ATOM      9  H   LIG    1       -0.570   5.431   9.435  0.00  0.00    +0.400 HD
ATOM     10  O   LIG    1       -2.952   3.580  10.095  0.00  0.00    -0.530 OA
BRANCH   8  11
ATOM     11  C   LIG    1       -1.856   5.841  11.074  0.00  0.00    +0.280 C 
ATOM     12  C   LIG    1       -0.729   6.686  11.704  0.00  0.00    +0.050 C 
ATOM     13  C   LIG    1       -0.900   8.047  10.997  0.00  0.00    +0.080 C 
ATOM     14  C   LIG    1       -2.361   8.109  10.604  0.00  0.00    -0.090 A 
ATOM     15  C   LIG    1       -3.147   9.188  10.238  0.00  0.00    +0.010 A 
ATOM     16  C   LIG    1       -4.478   9.001   9.917  0.00  0.00    +0.010 A 
ATOM     17  C   LIG    1       -5.027   7.734   9.961  0.00  0.00    +0.000 A 
ATOM     18  C   LIG    1       -4.244   6.655  10.326  0.00  0.00    +0.040 A 
ATOM     19  C   LIG    1       -2.912   6.839  10.649  0.00  0.00    -0.120 A 
ENDBRANCH   8  11
ENDBRANCH   4   7
BRANCH   1  20
ATOM     20  C   LIG    1        0.010   1.104   4.930  0.00  0.00    +0.230 C 
BRANCH  20  24
ATOM     21  C   LIG    1       -0.013   1.086   0.008  0.00  0.00    +0.050 C 
ATOM     22  C   LIG    1       -0.729   1.579   1.267  0.00  0.00    +0.160 C 
ATOM     23  C   LIG    1        0.011   1.073   2.508  0.00  0.00    +0.150 C 
ATOM     24  N   LIG    1       -0.636   1.613   3.712  0.00  0.00    -0.530 NA
ATOM     25  C   LIG    1       -0.634   3.083   3.690  0.00  0.00    +0.150 C 
ATOM     26  C   LIG    1       -1.368   3.569   2.437  0.00  0.00    +0.160 C 
ATOM     27  C   LIG    1       -1.301   5.096   2.366  0.00  0.00    +0.050 C 
ATOM     28  O   LIG    1       -0.744   3.009   1.278  0.00  0.00    -0.380 OA
ENDBRANCH  20  24
ENDBRANCH   1  20
TORSDOF 4
