REMARK  Name = ZINCpk00000FaxI4.0
REMARK                            x       y       z     vdW  Elec       q    Type
REMARK                         _______ _______ _______ _____ _____    ______ ____
ROOT
ATOM      1  C   LIG    1       -0.013   1.086   0.008  0.00  0.00    +0.250 C 
ATOM      2  C   LIG    1       -0.732   1.581   1.268  0.00  0.00    +0.300 C 
ATOM      3  N   LIG    1       -2.154   1.216   1.164  0.00  0.00    -0.610 N 
ATOM      4  C   LIG    1       -2.870   1.570  -0.072  0.00  0.00    +0.250 C 
ATOM      5  C   LIG    1       -2.046   1.075  -1.267  0.00  0.00    +0.230 C 
ATOM      6  C   LIG    1       -2.782   0.577   2.171  0.00  0.00    +0.500 C 
ATOM      7  O   LIG    1       -2.174   0.294   3.181  0.00  0.00    -0.510 OA
ATOM      8  O   LIG    1       -0.706   1.560  -1.149  0.00  0.00    -0.360 OA
ENDROOT
BRANCH   6   9
ATOM      9  C   LIG    1       -4.239   0.214   2.041  0.00  0.00    +0.210 C 
ATOM     10  C   LIG    1       -5.115   1.486   1.960  0.00  0.00    +0.110 C 
ATOM     11  C   LIG    1       -5.490   1.702   3.413  0.00  0.00    -0.150 A 
ATOM     12  C   LIG    1       -6.016   2.785   4.082  0.00  0.00    +0.060 A 
ATOM     13  C   LIG    1       -6.259   2.709   5.442  0.00  0.00    +0.030 A 
ATOM     14  C   LIG    1       -5.970   1.543   6.126  0.00  0.00    +0.030 A 
ATOM     15  C   LIG    1       -5.446   0.454   5.458  0.00  0.00    +0.090 A 
ATOM     16  F   LIG    1       -5.167  -0.681   6.136  0.00  0.00    -0.130 F 
ATOM     17  C   LIG    1       -5.202   0.522   4.087  0.00  0.00    +0.070 A 
ATOM     18  O   LIG    1       -4.713  -0.424   3.239  0.00  0.00    -0.260 OA
ENDBRANCH   6   9
BRANCH   1  22
ATOM     19  C   LIG    1        3.560   1.748  -0.077  0.00  0.00    +0.190 A 
ATOM     20  N   LIG    1        3.046   2.941   0.048  0.00  0.00    -0.290 NA
ATOM     21  N   LIG    1        1.764   2.859   0.086  0.00  0.00    -0.260 NA
ATOM     22  C   LIG    1        1.401   1.609  -0.003  0.00  0.00    +0.170 A 
ATOM     23  N   LIG    1        2.530   0.868  -0.113  0.00  0.00    -0.570 N 
ATOM     24  H   LIG    1        2.589  -0.097  -0.199  0.00  0.00    +0.430 HD
BRANCH  19  26
ATOM     25  C   LIG    1        5.664   2.203  -1.308  0.00  0.00    +0.050 C 
ATOM     26  C   LIG    1        5.026   1.411  -0.165  0.00  0.00    +0.140 C 
ENDBRANCH  19  26
ENDBRANCH   1  22
TORSDOF 3
