REMARK  Name = ZINCpk00000FaxI4.1
REMARK                            x       y       z     vdW  Elec       q    Type
REMARK                         _______ _______ _______ _____ _____    ______ ____
ROOT
ATOM      1  C   LIG    1        8.065   1.893   0.232  0.00  0.00    +0.280 C 
ATOM      2  C   LIG    1        6.939   1.958  -0.812  0.00  0.00    +0.300 C 
ATOM      3  N   LIG    1        5.652   1.864  -0.105  0.00  0.00    -0.610 N 
ATOM      4  C   LIG    1        5.468   0.763   0.854  0.00  0.00    +0.250 C 
ATOM      5  C   LIG    1        6.665   0.753   1.813  0.00  0.00    +0.230 C 
ATOM      6  C   LIG    1        4.668   2.756  -0.333  0.00  0.00    +0.520 C 
ATOM      7  O   LIG    1        4.838   3.657  -1.127  0.00  0.00    -0.500 OA
ATOM      8  O   LIG    1        7.876   0.739   1.054  0.00  0.00    -0.360 OA
ENDROOT
BRANCH   6   9
ATOM      9  C   LIG    1        3.356   2.635   0.400  0.00  0.00    +0.180 C 
ATOM     10  C   LIG    1        2.621   1.335  -0.005  0.00  0.00    +0.110 C 
ATOM     11  C   LIG    1        1.171   1.781   0.000  0.00  0.00    -0.150 A 
ATOM     12  C   LIG    1       -0.013   1.076   0.008  0.00  0.00    +0.060 A 
ATOM     13  C   LIG    1       -1.220   1.751   0.017  0.00  0.00    +0.030 A 
ATOM     14  C   LIG    1       -1.234   3.134   0.032  0.00  0.00    +0.030 A 
ATOM     15  C   LIG    1       -0.049   3.843   0.022  0.00  0.00    +0.090 A 
ATOM     16  F   LIG    1       -0.072   5.194   0.032  0.00  0.00    -0.130 F 
ATOM     17  C   LIG    1        1.172   3.169   0.003  0.00  0.00    +0.070 A 
ATOM     18  O   LIG    1        2.441   3.662  -0.021  0.00  0.00    -0.260 OA
ENDBRANCH   6   9
BRANCH   1  21
ATOM     19  C   LIG    1       11.326   2.370  -1.253  0.00  0.00    +0.290 A 
ATOM     20  N   LIG    1       10.281   2.787  -0.586  0.00  0.00    -0.530 NA
ATOM     21  C   LIG    1        9.395   1.799  -0.470  0.00  0.00    +0.230 A 
ATOM     22  N   LIG    1        9.868   0.733  -1.060  0.00  0.00    -0.280 NA
ATOM     23  N   LIG    1       11.124   1.082  -1.583  0.00  0.00    -0.480 N 
ATOM     24  H   LIG    1       11.727   0.507  -2.080  0.00  0.00    +0.440 HD
BRANCH  19  26
ATOM     25  C   LIG    1       12.388   3.780  -2.995  0.00  0.00    +0.050 C 
ATOM     26  C   LIG    1       12.545   3.189  -1.592  0.00  0.00    +0.150 C 
ENDBRANCH  19  26
ENDBRANCH   1  21
TORSDOF 3
