REMARK  Name = ZINCpe000027pHjQ.0
REMARK                            x       y       z     vdW  Elec       q    Type
REMARK                         _______ _______ _______ _____ _____    ______ ____
ROOT
ATOM      1  C   LIG    1       -4.822   4.790  -2.820  0.00  0.00    +0.290 C 
ATOM      2  C   LIG    1       -4.384   4.605  -1.365  0.00  0.00    +0.190 C 
ATOM      3  N   LIG    1       -3.000   4.109  -1.334  0.00  0.00    -0.530 NA
ATOM      4  C   LIG    1       -2.096   5.045  -2.018  0.00  0.00    +0.160 C 
ATOM      5  C   LIG    1       -2.557   5.225  -3.467  0.00  0.00    +0.250 C 
ATOM      6  O   LIG    1       -3.914   5.678  -3.477  0.00  0.00    -0.390 OA
ENDROOT
BRANCH   1  10
ATOM      7  C   LIG    1       -7.918   6.640  -3.265  0.00  0.00    +0.180 A 
ATOM      8  N   LIG    1       -8.285   5.636  -2.516  0.00  0.00    -0.280 NA
ATOM      9  N   LIG    1       -7.272   4.880  -2.279  0.00  0.00    -0.280 NA
ATOM     10  C   LIG    1       -6.211   5.372  -2.857  0.00  0.00    +0.180 A 
ATOM     11  N   LIG    1       -6.591   6.501  -3.503  0.00  0.00    -0.560 N 
ATOM     12  H   LIG    1       -6.028   7.091  -4.028  0.00  0.00    +0.430 HD
BRANCH   7  14
ATOM     13  C   LIG    1       -9.992   7.147  -4.525  0.00  0.00    +0.050 C 
ATOM     14  C   LIG    1       -8.805   7.748  -3.771  0.00  0.00    +0.140 C 
ENDBRANCH   7  14
ENDBRANCH   1  10
BRANCH   3  15
ATOM     15  C   LIG    1       -2.559   3.864   0.046  0.00  0.00    +0.230 C 
BRANCH  15  16
ATOM     16  C   LIG    1       -1.242   3.132   0.030  0.00  0.00    -0.040 A 
ATOM     17  C   LIG    1       -1.220   1.750   0.017  0.00  0.00    +0.000 A 
ATOM     18  C   LIG    1       -0.013   1.076   0.008  0.00  0.00    +0.050 A 
ATOM     19  C   LIG    1        1.174   1.782   0.000  0.00  0.00    -0.080 A 
ATOM     20  C   LIG    1        1.155   3.169   0.008  0.00  0.00    +0.130 A 
ATOM     21  C   LIG    1       -0.057   3.844   0.022  0.00  0.00    -0.010 A 
BRANCH  20  22
ATOM     22  O   LIG    1        2.321   3.867   0.001  0.00  0.00    -0.290 OA
BRANCH  22  23
ATOM     23  C   LIG    1        3.531   3.107  -0.014  0.00  0.00    +0.240 C 
BRANCH  23  24
ATOM     24  C   LIG    1        4.713   4.042  -0.020  0.00  0.00    +0.520 C 
ATOM     25  O   LIG    1        4.536   5.242  -0.012  0.00  0.00    -0.520 OA
ATOM     26  N   LIG    1        5.966   3.546  -0.034  0.00  0.00    -0.850 N 
ATOM     27  H   LIG    1        6.726   4.149  -0.037  0.00  0.00    +0.410 HD
ATOM     28  H   LIG    1        6.107   2.587  -0.040  0.00  0.00    +0.400 HD
ENDBRANCH  23  24
ENDBRANCH  22  23
ENDBRANCH  20  22
ENDBRANCH  15  16
ENDBRANCH   3  15
TORSDOF 7
