REMARK  Name = ZINCpe000027pHjQ.1
REMARK                            x       y       z     vdW  Elec       q    Type
REMARK                         _______ _______ _______ _____ _____    ______ ____
ROOT
ATOM      1  C   LIG    1        4.695   0.145  -2.932  0.00  0.00    +0.290 C 
ATOM      2  C   LIG    1        4.285   0.316  -1.467  0.00  0.00    +0.170 C 
ATOM      3  N   LIG    1        2.904   0.816  -1.406  0.00  0.00    -0.530 NA
ATOM      4  C   LIG    1        1.984  -0.111  -2.082  0.00  0.00    +0.160 C 
ATOM      5  C   LIG    1        2.417  -0.277  -3.541  0.00  0.00    +0.230 C 
ATOM      6  O   LIG    1        3.772  -0.734  -3.581  0.00  0.00    -0.370 OA
ENDROOT
BRANCH   1   9
ATOM      7  C   LIG    1        8.220  -0.579  -3.283  0.00  0.00    +0.290 A 
ATOM      8  N   LIG    1        7.190   0.227  -3.321  0.00  0.00    -0.530 NA
ATOM      9  C   LIG    1        6.082  -0.441  -3.001  0.00  0.00    +0.230 A 
ATOM     10  N   LIG    1        6.392  -1.688  -2.763  0.00  0.00    -0.280 NA
ATOM     11  N   LIG    1        7.780  -1.802  -2.941  0.00  0.00    -0.480 N 
ATOM     12  H   LIG    1        8.316  -2.605  -2.837  0.00  0.00    +0.440 HD
BRANCH   7  14
ATOM     13  C   LIG    1        9.965  -0.509  -5.043  0.00  0.00    +0.050 C 
ATOM     14  C   LIG    1        9.649  -0.203  -3.578  0.00  0.00    +0.150 C 
ENDBRANCH   7  14
ENDBRANCH   1   9
BRANCH   3  15
ATOM     15  C   LIG    1        2.489   1.048  -0.016  0.00  0.00    +0.230 C 
BRANCH  15  16
ATOM     16  C   LIG    1        1.174   1.783   0.000  0.00  0.00    -0.040 A 
ATOM     17  C   LIG    1        1.156   3.166   0.007  0.00  0.00    +0.000 A 
ATOM     18  C   LIG    1       -0.049   3.844   0.022  0.00  0.00    +0.050 A 
ATOM     19  C   LIG    1       -1.238   3.141   0.029  0.00  0.00    -0.080 A 
ATOM     20  C   LIG    1       -1.223   1.754   0.017  0.00  0.00    +0.130 A 
ATOM     21  C   LIG    1       -0.013   1.076   0.008  0.00  0.00    -0.010 A 
BRANCH  20  22
ATOM     22  O   LIG    1       -2.391   1.060   0.019  0.00  0.00    -0.290 OA
BRANCH  22  23
ATOM     23  C   LIG    1       -3.599   1.823   0.029  0.00  0.00    +0.230 C 
BRANCH  23  24
ATOM     24  C   LIG    1       -4.783   0.891   0.029  0.00  0.00    +0.520 C 
ATOM     25  O   LIG    1       -4.610  -0.309   0.022  0.00  0.00    -0.520 OA
ATOM     26  N   LIG    1       -6.035   1.391   0.038  0.00  0.00    -0.850 N 
ATOM     27  H   LIG    1       -6.797   0.791   0.038  0.00  0.00    +0.410 HD
ATOM     28  H   LIG    1       -6.173   2.351   0.044  0.00  0.00    +0.400 HD
ENDBRANCH  23  24
ENDBRANCH  22  23
ENDBRANCH  20  22
ENDBRANCH  15  16
ENDBRANCH   3  15
TORSDOF 7
