REMARK  Name = ZINCnE000001TyRe.0
REMARK                            x       y       z     vdW  Elec       q    Type
REMARK                         _______ _______ _______ _____ _____    ______ ____
ROOT
ATOM      1  N   LIG    1       -0.218   1.232   4.964  0.00  0.00    -0.570 N 
ATOM      2  C   LIG    1       -0.694   1.558   3.746  0.00  0.00    +0.520 C 
ATOM      3  O   LIG    1       -1.691   2.243   3.648  0.00  0.00    -0.570 OA
ENDROOT
BRANCH   1   4
ATOM      4  C   LIG    1       -0.903   1.705   6.169  0.00  0.00    +0.240 C 
ATOM      5  C   LIG    1        0.058   2.556   7.005  0.00  0.00    +0.020 C 
ATOM      6  C   LIG    1       -0.642   2.979   8.300  0.00  0.00    +0.200 C 
ATOM      7  O   LIG    1       -1.070   1.816   9.011  0.00  0.00    -0.390 OA
ATOM      8  C   LIG    1       -2.006   1.007   8.297  0.00  0.00    +0.210 C 
ATOM      9  C   LIG    1       -1.361   0.504   7.003  0.00  0.00    -0.020 C 
ENDBRANCH   1   4
BRANCH   1  10
ATOM     10  C   LIG    1        0.986   0.406   5.083  0.00  0.00    +0.180 C 
BRANCH  10  12
ATOM     11  O   LIG    1        2.077   2.505   5.057  0.00  0.00    -0.680 OA
ATOM     12  C   LIG    1        2.203   1.294   5.122  0.00  0.00    +0.480 C 
ATOM     13  O   LIG    1        3.314   0.801   5.219  0.00  0.00    -0.700 OA
ENDBRANCH  10  12
ENDBRANCH   1  10
BRANCH   2  14
ATOM     14  C   LIG    1        0.011   1.072   2.506  0.00  0.00    +0.050 C 
BRANCH  14  15
ATOM     15  C   LIG    1       -0.729   1.579   1.267  0.00  0.00    +0.050 C 
BRANCH  15  16
ATOM     16  C   LIG    1       -0.013   1.086   0.008  0.00  0.00    +0.090 C 
BRANCH  16  17
ATOM     17  C   LIG    1       -0.742   1.585  -1.213  0.00  0.00    -0.070 A 
ATOM     18  C   LIG    1       -1.843   0.996  -1.682  0.00  0.00    -0.150 A 
ATOM     19  S   LIG    1       -2.410   1.855  -3.109  0.00  0.00    +0.180 S 
ATOM     20  C   LIG    1       -1.075   2.994  -2.990  0.00  0.00    -0.150 A 
ATOM     21 CL   LIG    1       -0.789   4.317  -4.078  0.00  0.00    -0.010 Cl
ATOM     22 CL   LIG    1       -2.603  -0.403  -0.989  0.00  0.00    -0.000 Cl
ATOM     23  C   LIG    1       -0.316   2.687  -1.937  0.00  0.00    +0.060 A 
ENDBRANCH  16  17
ENDBRANCH  15  16
ENDBRANCH  14  15
ENDBRANCH   2  14
TORSDOF 7
