REMARK  Name = ZINCpe000000V9ix.0
REMARK                            x       y       z     vdW  Elec       q    Type
REMARK                         _______ _______ _______ _____ _____    ______ ____
ROOT
ATOM      1  C   LIG    1        3.745   3.120   0.344  0.00  0.00    -0.090 A 
ATOM      2  C   LIG    1        2.594   3.880   0.446  0.00  0.00    +0.040 A 
ATOM      3  C   LIG    1        1.355   3.277   0.355  0.00  0.00    -0.030 A 
ATOM      4  C   LIG    1        1.266   1.905   0.161  0.00  0.00    +0.150 A 
ATOM      5  C   LIG    1        2.423   1.143   0.064  0.00  0.00    +0.020 A 
ATOM      6  C   LIG    1        3.659   1.753   0.151  0.00  0.00    +0.040 A 
ENDROOT
BRANCH   4   7
ATOM      7  N   LIG    1        0.013   1.290   0.069  0.00  0.00    -0.660 N 
ATOM      8  H   LIG    1       -0.763   1.808  -0.196  0.00  0.00    +0.420 HD
ATOM      9  C   LIG    1       -0.116  -0.023   0.343  0.00  0.00    +0.580 C 
ATOM     10  O   LIG    1        0.874  -0.708   0.516  0.00  0.00    -0.530 OA
BRANCH   9  11
ATOM     11  C   LIG    1       -1.453  -0.628   0.434  0.00  0.00    -0.280 A 
ATOM     12  C   LIG    1       -1.610  -1.938   0.880  0.00  0.00    +0.220 A 
ATOM     13  C   LIG    1       -2.894  -2.478   0.953  0.00  0.00    -0.080 A 
ATOM     14  C   LIG    1       -3.969  -1.731   0.591  0.00  0.00    +0.350 A 
ATOM     15  N   LIG    1       -3.824  -0.457   0.156  0.00  0.00    -0.600 N 
ATOM     16  H   LIG    1       -4.609   0.054  -0.095  0.00  0.00    +0.420 HD
ATOM     17  C   LIG    1       -2.608   0.115   0.073  0.00  0.00    +0.530 A 
ATOM     18  O   LIG    1       -2.498   1.265  -0.317  0.00  0.00    -0.550 OA
ENDBRANCH   9  11
ENDBRANCH   4   7
BRANCH   1  19
ATOM     19  C   LIG    1        5.095   3.781   0.444  0.00  0.00    +0.130 C 
BRANCH  19  22
ATOM     20  N   LIG    1        6.724   4.350   2.216  0.00  0.00    -0.730 N 
ATOM     21  H   LIG    1        7.292   4.730   1.528  0.00  0.00    +0.410 HD
ATOM     22  C   LIG    1        5.538   3.803   1.884  0.00  0.00    +0.520 C 
ATOM     23  O   LIG    1        4.827   3.328   2.745  0.00  0.00    -0.520 OA
BRANCH  20  24
ATOM     24  C   LIG    1        7.155   4.372   3.616  0.00  0.00    +0.350 C 
BRANCH  24  25
ATOM     25  C   LIG    1        8.505   5.033   3.716  0.00  0.00    +0.460 C 
ATOM     26  O   LIG    1        9.051   5.445   2.721  0.00  0.00    -0.500 OA
BRANCH  25  28
ATOM     27  C   LIG    1       10.400   5.812   4.933  0.00  0.00    +0.290 C 
ATOM     28  O   LIG    1        9.101   5.165   4.912  0.00  0.00    -0.350 OA
ENDBRANCH  25  28
ENDBRANCH  24  25
ENDBRANCH  20  24
ENDBRANCH  19  22
ENDBRANCH   1  19
TORSDOF 7
