REMARK  Name = ZINCpk000000mVvZ.0
REMARK                            x       y       z     vdW  Elec       q    Type
REMARK                         _______ _______ _______ _____ _____    ______ ____
ROOT
ATOM      1  C   LIG    1       -2.305   5.040  -1.366  0.00  0.00    +0.400 C 
ATOM      2  O   LIG    1       -1.849   4.402  -2.293  0.00  0.00    -0.420 OA
ENDROOT
BRANCH   1   6
ATOM      3  C   LIG    1       -4.895   7.921  -1.558  0.00  0.00    -0.210 A 
ATOM      4  C   LIG    1       -4.633   7.457  -2.787  0.00  0.00    +0.020 A 
ATOM      5  C   LIG    1       -3.720   6.434  -2.842  0.00  0.00    +0.130 A 
ATOM      6  C   LIG    1       -3.247   6.064  -1.609  0.00  0.00    -0.300 A 
ATOM      7  S   LIG    1       -3.997   7.074  -0.380  0.00  0.00    +0.240 S 
BRANCH   3   8
ATOM      8  C   LIG    1       -5.856   9.041  -1.255  0.00  0.00    +0.360 C 
BRANCH   8  11
ATOM      9  C   LIG    1       -9.600   8.743  -0.512  0.00  0.00    +0.110 C 
ATOM     10  C   LIG    1       -8.223   9.311  -0.742  0.00  0.00    +0.510 C 
ATOM     11  N   LIG    1       -7.195   8.489  -1.031  0.00  0.00    -0.730 N 
ATOM     12  H   LIG    1       -7.341   7.532  -1.090  0.00  0.00    +0.400 HD
ATOM     13  O   LIG    1       -8.041  10.508  -0.668  0.00  0.00    -0.540 OA
ENDBRANCH   8  11
ENDBRANCH   3   8
ENDBRANCH   1   6
BRANCH   1  14
ATOM     14  C   LIG    1       -1.865   4.740   0.044  0.00  0.00    +0.360 C 
BRANCH  14  15
ATOM     15  N   LIG    1       -0.892   3.645   0.029  0.00  0.00    -0.910 N 
ATOM     16  C   LIG    1       -1.154   2.331   0.020  0.00  0.00    +0.540 C 
ATOM     17  C   LIG    1       -0.017   1.401   0.010  0.00  0.00    -0.110 A 
ATOM     18  C   LIG    1        0.002  -0.004   0.002  0.00  0.00    +0.110 A 
ATOM     19  C   LIG    1        1.200  -0.683  -0.013  0.00  0.00    +0.070 A 
ATOM     20  C   LIG    1        2.403  -0.001  -0.021  0.00  0.00    +0.060 A 
ATOM     21  C   LIG    1        2.403   1.387  -0.014  0.00  0.00    +0.160 A 
ATOM     22  C   LIG    1        1.217   2.064   0.002  0.00  0.00    -0.620 A 
ATOM     23  O   LIG    1       -2.299   1.920   0.023  0.00  0.00    -0.460 OA
ATOM     24  S   LIG    1        0.774   3.780   0.014  0.00  0.00    +2.650 S 
ATOM     25  O   LIG    1        1.148   4.327  -1.243  0.00  0.00    -0.910 OA
ATOM     26  O   LIG    1        1.171   4.314   1.270  0.00  0.00    -0.920 OA
ENDBRANCH  14  15
ENDBRANCH   1  14
TORSDOF 5
