REMARK  Name = ZINCtV000002M0S8.0
REMARK                            x       y       z     vdW  Elec       q    Type
REMARK                         _______ _______ _______ _____ _____    ______ ____
ROOT
ATOM      1  O   LIG    1       -1.218   2.818  -0.299  0.00  0.00    -0.490 OA
ATOM      2  C   LIG    1       -1.302   1.688  -0.731  0.00  0.00    +0.510 C 
ATOM      3  N   LIG    1       -0.227   1.098  -1.290  0.00  0.00    -0.620 N 
ATOM      4  H   LIG    1       -0.294   0.195  -1.635  0.00  0.00    +0.430 HD
ENDROOT
BRANCH   3   5
ATOM      5  C   LIG    1        0.977   1.788  -1.376  0.00  0.00    +0.280 A 
ATOM      6  N   LIG    1        2.072   1.322  -1.891  0.00  0.00    -0.500 NA
ATOM      7  C   LIG    1        3.126   2.125  -1.891  0.00  0.00    +0.130 A 
ATOM      8  C   LIG    1        2.928   3.336  -1.341  0.00  0.00    -0.110 A 
ATOM      9  S   LIG    1        1.255   3.427  -0.796  0.00  0.00    +0.210 S 
BRANCH   7  10
ATOM     10  C   LIG    1        4.436   1.715  -2.454  0.00  0.00    -0.030 A 
ATOM     11  C   LIG    1        5.514   2.597  -2.430  0.00  0.00    +0.070 A 
ATOM     12  C   LIG    1        6.732   2.209  -2.951  0.00  0.00    -0.010 A 
ATOM     13  C   LIG    1        6.880   0.948  -3.506  0.00  0.00    +0.100 A 
ATOM     14  C   LIG    1        5.809   0.070  -3.537  0.00  0.00    -0.020 A 
ATOM     15  F   LIG    1        8.072   0.575  -4.020  0.00  0.00    -0.140 F 
ATOM     16  C   LIG    1        4.589   0.448  -3.014  0.00  0.00    +0.080 A 
ENDBRANCH   7  10
ENDBRANCH   3   5
BRANCH   2  17
ATOM     17  C   LIG    1       -2.609   0.943  -0.642  0.00  0.00    +0.090 C 
BRANCH  17  18
ATOM     18  C   LIG    1       -3.658   1.831   0.029  0.00  0.00    +0.110 C 
BRANCH  18  19
ATOM     19  C   LIG    1       -3.253   2.096   1.456  0.00  0.00    -0.070 A 
ATOM     20  C   LIG    1       -2.937   1.041   2.292  0.00  0.00    +0.000 A 
ATOM     21  C   LIG    1       -2.560   1.284   3.600  0.00  0.00    +0.000 A 
ATOM     22  C   LIG    1       -2.510   2.581   4.075  0.00  0.00    +0.000 A 
ATOM     23  C   LIG    1       -2.832   3.635   3.241  0.00  0.00    +0.000 A 
ATOM     24  C   LIG    1       -3.203   3.393   1.932  0.00  0.00    +0.030 A 
ENDBRANCH  18  19
BRANCH  18  25
ATOM     25  C   LIG    1       -4.995   1.134   0.007  0.00  0.00    -0.080 A 
ATOM     26  C   LIG    1       -6.108   1.790  -0.483  0.00  0.00    +0.010 A 
ATOM     27  C   LIG    1       -7.333   1.150  -0.508  0.00  0.00    +0.000 A 
ATOM     28  C   LIG    1       -7.446  -0.143  -0.032  0.00  0.00    +0.000 A 
ATOM     29  C   LIG    1       -6.334  -0.797   0.464  0.00  0.00    +0.000 A 
ATOM     30  C   LIG    1       -5.108  -0.159   0.483  0.00  0.00    +0.010 A 
ENDBRANCH  18  25
ENDBRANCH  17  18
ENDBRANCH   2  17
TORSDOF 6
