REMARK  Name = ZINCpe00000VVGiz.0
REMARK                            x       y       z     vdW  Elec       q    Type
REMARK                         _______ _______ _______ _____ _____    ______ ____
ROOT
ATOM      1  N   LIG    1        0.494   1.881   4.780  0.00  0.00    -0.720 N 
ATOM      2  H   LIG    1       -0.158   2.102   4.096  0.00  0.00    +0.400 HD
ATOM      3  C   LIG    1        0.773   0.591   5.053  0.00  0.00    +0.710 C 
ATOM      4  N   LIG    1        0.146  -0.392   4.375  0.00  0.00    -0.720 N 
ATOM      5  H   LIG    1       -0.505  -0.171   3.692  0.00  0.00    +0.400 HD
ATOM      6  O   LIG    1        1.590   0.313   5.909  0.00  0.00    -0.590 OA
ENDROOT
BRANCH   1   8
ATOM      7  C   LIG    1        0.452   3.195   6.842  0.00  0.00    +0.030 C 
ATOM      8  C   LIG    1        1.175   2.949   5.516  0.00  0.00    +0.260 C 
BRANCH   8   9
ATOM      9  C   LIG    1        1.161   4.232   4.682  0.00  0.00    +0.170 C 
BRANCH   9  10
ATOM     10  N   LIG    1        1.719   3.957   3.352  0.00  0.00    -0.530 NA
ATOM     11  C   LIG    1        1.529   5.105   2.453  0.00  0.00    +0.150 C 
ATOM     12  C   LIG    1        2.071   4.755   1.065  0.00  0.00    +0.220 C 
ATOM     13  O   LIG    1        3.445   4.375   1.176  0.00  0.00    -0.390 OA
ATOM     14  C   LIG    1        3.665   3.258   2.042  0.00  0.00    +0.230 C 
ATOM     15  C   LIG    1        3.140   3.594   3.441  0.00  0.00    +0.150 C 
ENDBRANCH   9  10
ENDBRANCH   8   9
ENDBRANCH   1   8
BRANCH   4  16
ATOM     16  C   LIG    1        0.450  -1.794   4.671  0.00  0.00    +0.310 C 
BRANCH  16  17
ATOM     17  C   LIG    1        0.145  -2.640   3.463  0.00  0.00    -0.100 A 
ATOM     18  C   LIG    1       -0.933  -2.329   2.655  0.00  0.00    +0.020 A 
ATOM     19  C   LIG    1       -1.211  -3.103   1.544  0.00  0.00    +0.020 A 
ATOM     20  C   LIG    1       -0.416  -4.193   1.245  0.00  0.00    +0.020 A 
ATOM     21  C   LIG    1        0.659  -4.508   2.055  0.00  0.00    +0.020 A 
ATOM     22  C   LIG    1        0.939  -3.732   3.164  0.00  0.00    +0.020 A 
ENDBRANCH  16  17
BRANCH  16  23
ATOM     23  C   LIG    1       -0.392  -2.256   5.833  0.00  0.00    +0.510 C 
ATOM     24  N   LIG    1        0.053  -3.241   6.638  0.00  0.00    -0.620 N 
ATOM     25  C   LIG    1        1.393  -3.800   6.441  0.00  0.00    +0.290 C 
ATOM     26  C   LIG    1       -0.804  -3.755   7.710  0.00  0.00    +0.290 C 
ATOM     27  O   LIG    1       -1.469  -1.740   6.044  0.00  0.00    -0.530 OA
ENDBRANCH  16  23
ENDBRANCH   4  16
TORSDOF 6
