REMARK  Name = ZINCrD0000070Wj4.0
REMARK                            x       y       z     vdW  Elec       q    Type
REMARK                         _______ _______ _______ _____ _____    ______ ____
ROOT
ATOM      1  C   LIG    1        2.475   1.081  -0.015  0.00  0.00    +0.420 C 
ATOM      2  O   LIG    1        2.497  -0.132  -0.022  0.00  0.00    -0.430 OA
ENDROOT
BRANCH   1   6
ATOM      3  C   LIG    1       -1.236   3.135   0.031  0.00  0.00    -0.050 A 
ATOM      4  C   LIG    1       -1.215   1.751   0.017  0.00  0.00    +0.000 A 
ATOM      5  C   LIG    1       -0.013   1.076   0.008  0.00  0.00    +0.090 A 
ATOM      6  C   LIG    1        1.188   1.793   0.000  0.00  0.00    -0.170 A 
ATOM      7  C   LIG    1        1.158   3.192   0.008  0.00  0.00    +0.080 A 
ATOM      8  C   LIG    1       -0.052   3.852   0.023  0.00  0.00    +0.020 A 
BRANCH   3   9
ATOM      9  C   LIG    1       -2.554   3.864   0.048  0.00  0.00    +0.280 C 
ATOM     10  C   LIG    1       -3.108   3.884   1.474  0.00  0.00    +0.040 C 
BRANCH   9  13
ATOM     11  C   LIG    1       -5.504   3.159  -2.288  0.00  0.00    +0.110 C 
ATOM     12  C   LIG    1       -4.528   3.863  -1.380  0.00  0.00    +0.510 C 
ATOM     13  N   LIG    1       -3.502   3.180  -0.835  0.00  0.00    -0.730 N 
ATOM     14  H   LIG    1       -3.392   2.236  -1.026  0.00  0.00    +0.400 HD
ATOM     15  O   LIG    1       -4.666   5.044  -1.141  0.00  0.00    -0.540 OA
ENDBRANCH   9  13
ENDBRANCH   3   9
ENDBRANCH   1   6
BRANCH   1  16
ATOM     16  C   LIG    1        3.767   1.858  -0.024  0.00  0.00    +0.090 C 
BRANCH  16  17
ATOM     17  S   LIG    1        5.163   0.707  -0.042  0.00  0.00    +0.140 S 
BRANCH  17  18
ATOM     18  C   LIG    1        6.503   1.851  -0.049  0.00  0.00    +0.130 A 
ATOM     19  N   LIG    1        6.406   3.161  -0.041  0.00  0.00    -0.280 NA
ATOM     20  N   LIG    1        7.585   3.677  -0.049  0.00  0.00    -0.260 NA
ATOM     21  C   LIG    1        8.480   2.720  -0.062  0.00  0.00    +0.220 A 
ATOM     22  O   LIG    1        7.814   1.544  -0.058  0.00  0.00    -0.200 OA
BRANCH  21  23
ATOM     23  C   LIG    1        9.947   2.894  -0.074  0.00  0.00    -0.080 A 
ATOM     24  C   LIG    1       10.511   4.175  -0.078  0.00  0.00    +0.130 A 
ATOM     25  C   LIG    1       11.891   4.284  -0.084  0.00  0.00    -0.020 A 
ATOM     26  C   LIG    1       12.661   3.135  -0.096  0.00  0.00    +0.290 A 
ATOM     27  N   LIG    1       12.101   1.940  -0.098  0.00  0.00    -0.480 NA
ATOM     28  C   LIG    1       10.794   1.784  -0.087  0.00  0.00    +0.310 A 
ENDBRANCH  21  23
ENDBRANCH  17  18
ENDBRANCH  16  17
ENDBRANCH   1  16
TORSDOF 7
