REMARK  Name = ZINCDN0000000cKZ.1
REMARK                            x       y       z     vdW  Elec       q    Type
REMARK                         _______ _______ _______ _____ _____    ______ ____
ROOT
ATOM      1  N   LIG    1        3.651   6.435  -0.220  0.00  0.00    -0.510 N 
ATOM      2  H   LIG    1        2.810   5.957  -0.142  0.00  0.00    +0.360 HD
ATOM      3  C   LIG    1        4.814   5.753  -0.233  0.00  0.00    +0.540 C 
ATOM      4  O   LIG    1        5.867   6.351  -0.331  0.00  0.00    -0.540 OA
ENDROOT
BRANCH   3   5
ATOM      5  C   LIG    1        4.808   4.278  -0.130  0.00  0.00    -0.040 A 
ATOM      6  C   LIG    1        3.621   3.559  -0.140  0.00  0.00    +0.000 A 
ATOM      7  C   LIG    1        3.663   2.159  -0.040  0.00  0.00    +0.190 A 
ATOM      8  N   LIG    1        4.794   1.495   0.069  0.00  0.00    -0.450 NA
ATOM      9  C   LIG    1        5.980   2.105   0.082  0.00  0.00    +0.130 A 
ATOM     10  C   LIG    1        7.174   1.368   0.194  0.00  0.00    +0.030 A 
ATOM     11  C   LIG    1        8.369   2.019   0.209  0.00  0.00    +0.030 A 
ATOM     12  C   LIG    1        8.434   3.407   0.115  0.00  0.00    +0.000 A 
ATOM     13  C   LIG    1        7.298   4.154   0.005  0.00  0.00    +0.080 A 
ATOM     14  C   LIG    1        6.053   3.518  -0.013  0.00  0.00    -0.070 A 
BRANCH   7  15
ATOM     15  C   LIG    1        2.387   1.403  -0.052  0.00  0.00    -0.030 A 
ATOM     16  C   LIG    1        1.338   1.789   0.780  0.00  0.00    +0.060 A 
ATOM     17  C   LIG    1        0.153   1.081   0.765  0.00  0.00    +0.010 A 
ATOM     18  C   LIG    1        0.005  -0.010  -0.074  0.00  0.00    +0.030 A 
ATOM     19  C   LIG    1        1.043  -0.398  -0.902  0.00  0.00    +0.010 A 
ATOM     20  C   LIG    1        2.234   0.303  -0.896  0.00  0.00    -0.000 A 
ATOM     21 CL   LIG    1        3.535  -0.185  -1.936  0.00  0.00    -0.050 Cl
ENDBRANCH   7  15
ENDBRANCH   3   5
BRANCH   1  24
ATOM     22  O   LIG    1        1.440   7.915  -0.206  0.00  0.00    -0.650 OA
ATOM     23  C   LIG    1        2.494   8.514  -0.304  0.00  0.00    +0.420 C 
ATOM     24  N   LIG    1        3.657   7.832  -0.318  0.00  0.00    -0.490 NA
BRANCH  23  25
ATOM     25  C   LIG    1        2.500   9.988  -0.407  0.00  0.00    -0.070 A 
ATOM     26  C   LIG    1        3.708  10.678  -0.519  0.00  0.00    +0.190 A 
ATOM     27  C   LIG    1        3.707  12.054  -0.615  0.00  0.00    -0.690 A 
ATOM     28  C   LIG    1        2.512  12.751  -0.601  0.00  0.00    +0.120 A 
ATOM     29  C   LIG    1        1.311  12.075  -0.490  0.00  0.00    -0.010 A 
ATOM     30  C   LIG    1        1.296  10.697  -0.399  0.00  0.00    +0.040 A 
ATOM     31 CL   LIG    1       -0.213   9.849  -0.268  0.00  0.00    -0.030 Cl
BRANCH  27  32
ATOM     32  S   LIG    1        5.232  12.926  -0.756  0.00  0.00    +2.690 S 
ATOM     33  O   LIG    1        6.231  12.080  -0.203  0.00  0.00    -0.940 OA
ATOM     34  O   LIG    1        4.984  14.245  -0.289  0.00  0.00    -0.960 OA
BRANCH  32  35
ATOM     35  N   LIG    1        5.573  13.059  -2.371  0.00  0.00    -1.000 NA
ATOM     36  C   LIG    1        6.363  12.030  -3.066  0.00  0.00    +0.280 C 
ATOM     37  C   LIG    1        5.597  11.609  -4.330  0.00  0.00    +0.220 C 
ATOM     38  O   LIG    1        5.268  12.776  -5.089  0.00  0.00    -0.380 OA
ATOM     39  C   LIG    1        4.400  13.688  -4.412  0.00  0.00    +0.210 C 
ATOM     40  C   LIG    1        5.100  14.212  -3.153  0.00  0.00    +0.270 C 
ENDBRANCH  32  35
ENDBRANCH  27  32
ENDBRANCH  23  25
ENDBRANCH   1  24
TORSDOF 6
