REMARK  Name = ZINCvU0000000DN7.0
REMARK                            x       y       z     vdW  Elec       q    Type
REMARK                         _______ _______ _______ _____ _____    ______ ____
ROOT
ATOM      1  C   LIG    1        2.452   0.902  -0.004  0.00  0.00    +0.010 C 
ATOM      2  C   LIG    1        2.571   0.045   1.260  0.00  0.00    +0.060 C 
ATOM      3  C   LIG    1        3.932  -0.655   1.269  0.00  0.00    +0.200 C 
ATOM      4  N   LIG    1        5.001   0.351   1.235  0.00  0.00    -0.490 N 
ATOM      5  C   LIG    1        4.936   1.154   0.008  0.00  0.00    +0.200 C 
ATOM      6  C   LIG    1        3.605   1.909  -0.039  0.00  0.00    +0.080 C 
ENDROOT
BRANCH   4   7
ATOM      7  C   LIG    1        6.250  -0.245   1.375  0.00  0.00    +0.340 A 
ATOM      8  N   LIG    1        6.655  -1.136   0.483  0.00  0.00    -0.490 NA
ATOM      9  C   LIG    1        7.833  -1.724   0.579  0.00  0.00    +0.350 A 
ATOM     10  C   LIG    1        8.690  -1.429   1.619  0.00  0.00    -0.230 A 
ATOM     11  C   LIG    1        8.304  -0.500   2.576  0.00  0.00    +0.150 A 
ATOM     12  C   LIG    1        7.066   0.105   2.447  0.00  0.00    -0.060 A 
ATOM     13 CL   LIG    1        6.535   1.280   3.610  0.00  0.00    -0.010 Cl
BRANCH  10  14
ATOM     14  C   LIG    1       10.032  -2.108   1.716  0.00  0.00    +0.520 C 
ATOM     15  F   LIG    1       10.110  -2.817   2.920  0.00  0.00    -0.170 F 
ATOM     16  F   LIG    1       11.046  -1.145   1.675  0.00  0.00    -0.170 F 
ATOM     17  F   LIG    1       10.185  -2.993   0.643  0.00  0.00    -0.170 F 
ENDBRANCH  10  14
ENDBRANCH   4   7
BRANCH   1  19
ATOM     18  O   LIG    1        1.125   2.853  -0.006  0.00  0.00    -0.490 OA
ATOM     19  C   LIG    1        1.138   1.640   0.010  0.00  0.00    +0.520 C 
ATOM     20  N   LIG    1       -0.021   0.954   0.041  0.00  0.00    -0.620 N 
ATOM     21  H   LIG    1       -0.010  -0.016   0.054  0.00  0.00    +0.420 HD
BRANCH  20  22
ATOM     22  C   LIG    1       -1.232   1.635   0.049  0.00  0.00    +0.270 A 
ATOM     23  N   LIG    1       -2.403   1.079   0.067  0.00  0.00    -0.500 NA
ATOM     24  C   LIG    1       -3.453   1.889   0.076  0.00  0.00    +0.120 A 
ATOM     25  C   LIG    1       -3.167   3.204   0.054  0.00  0.00    -0.060 A 
ATOM     26  S   LIG    1       -1.414   3.386   0.027  0.00  0.00    +0.210 S 
BRANCH  24  27
ATOM     27  C   LIG    1       -4.845   1.382   0.103  0.00  0.00    +0.190 A 
ATOM     28  C   LIG    1       -5.080   0.007   0.125  0.00  0.00    +0.000 A 
ATOM     29  C   LIG    1       -6.385  -0.451   0.150  0.00  0.00    +0.060 A 
ATOM     30  C   LIG    1       -7.415   0.479   0.152  0.00  0.00    -0.030 A 
ATOM     31  C   LIG    1       -7.111   1.828   0.129  0.00  0.00    +0.260 A 
ATOM     32  N   LIG    1       -5.859   2.239   0.111  0.00  0.00    -0.480 NA
ENDBRANCH  24  27
ENDBRANCH  20  22
ENDBRANCH   1  19
TORSDOF 5
