REMARK  Name = ZINCqH0000051xqX.0
REMARK                            x       y       z     vdW  Elec       q    Type
REMARK                         _______ _______ _______ _____ _____    ______ ____
ROOT
ATOM      1  C   LIG    1        1.066   3.324  -0.903  0.00  0.00    +0.180 A 
ATOM      2  C   LIG    1       -0.079   3.854  -0.318  0.00  0.00    -0.050 A 
ATOM      3  C   LIG    1       -1.292   3.186  -0.516  0.00  0.00    +0.430 A 
ATOM      4  N   LIG    1       -1.305   2.081  -1.253  0.00  0.00    -0.550 NA
ATOM      5  C   LIG    1       -0.195   1.609  -1.786  0.00  0.00    +0.550 A 
ATOM      6  N   LIG    1        0.965   2.207  -1.624  0.00  0.00    -0.510 NA
ENDROOT
BRANCH   1   8
ATOM      7  O   LIG    1        2.461   5.007  -0.069  0.00  0.00    -0.490 OA
ATOM      8  C   LIG    1        2.380   3.991  -0.727  0.00  0.00    +0.530 C 
BRANCH   8   9
ATOM      9  O   LIG    1        3.481   3.468  -1.298  0.00  0.00    -0.320 OA
BRANCH   9  10
ATOM     10  C   LIG    1        4.732   4.174  -1.083  0.00  0.00    +0.240 C 
BRANCH  10  11
ATOM     11  C   LIG    1        5.864   3.436  -1.803  0.00  0.00    +0.160 C 
ATOM     12  C   LIG    1        7.199   4.109  -1.475  0.00  0.00    +0.010 C 
ATOM     13  C   LIG    1        8.325   3.371  -2.210  0.00  0.00    +0.040 C 
ATOM     14  C   LIG    1        7.993   3.330  -3.701  0.00  0.00    -0.120 C 
ATOM     15  C   LIG    1        6.605   2.757  -3.981  0.00  0.00    +0.250 C 
ATOM     16  C   LIG    1        9.100   2.705  -4.559  0.00  0.00    +0.020 C 
ATOM     17  C   LIG    1        8.806   3.805  -5.594  0.00  0.00    +0.010 C 
ATOM     18  C   LIG    1        8.270   4.652  -4.427  0.00  0.00    +0.020 C 
ATOM     19  O   LIG    1        5.637   3.478  -3.213  0.00  0.00    -0.370 OA
ENDBRANCH  10  11
ENDBRANCH   9  10
ENDBRANCH   8   9
ENDBRANCH   1   8
BRANCH   3  20
ATOM     20  N   LIG    1       -2.463   3.672   0.044  0.00  0.00    -0.650 N 
ATOM     21  H   LIG    1       -2.462   4.526   0.504  0.00  0.00    +0.420 HD
BRANCH  20  22
ATOM     22  C   LIG    1       -3.645   2.932  -0.054  0.00  0.00    +0.150 A 
ATOM     23  C   LIG    1       -3.598   1.544  -0.068  0.00  0.00    +0.010 A 
ATOM     24  C   LIG    1       -4.767   0.816  -0.161  0.00  0.00    +0.030 A 
ATOM     25  C   LIG    1       -5.984   1.467  -0.250  0.00  0.00    -0.020 A 
ATOM     26  C   LIG    1       -6.034   2.849  -0.242  0.00  0.00    +0.030 A 
ATOM     27  C   LIG    1       -4.868   3.584  -0.144  0.00  0.00    -0.030 A 
ENDBRANCH  20  22
ENDBRANCH   3  20
TORSDOF 6
