REMARK  Name = ZINCrg000000shTV.0
REMARK                            x       y       z     vdW  Elec       q    Type
REMARK                         _______ _______ _______ _____ _____    ______ ____
ROOT
ATOM      1  N   LIG    1       -0.659  -6.421  -0.028  0.00  0.00    -0.520 N 
ATOM      2  H   LIG    1        0.243  -6.778  -0.039  0.00  0.00    +0.430 HD
ATOM      3  C   LIG    1       -1.715  -7.259  -0.023  0.00  0.00    +0.570 C 
ATOM      4  O   LIG    1       -2.845  -6.812  -0.010  0.00  0.00    -0.520 OA
ENDROOT
BRANCH   3   5
ATOM      5  C   LIG    1       -1.498  -8.721  -0.034  0.00  0.00    -0.150 A 
ATOM      6  C   LIG    1       -0.202  -9.238  -0.054  0.00  0.00    +0.110 A 
ATOM      7  C   LIG    1       -0.007 -10.604  -0.058  0.00  0.00    +0.010 A 
ATOM      8  C   LIG    1       -1.093 -11.461  -0.053  0.00  0.00    +0.160 A 
ATOM      9  C   LIG    1       -2.381 -10.955  -0.038  0.00  0.00    -0.690 A 
ATOM     10  C   LIG    1       -2.590  -9.592  -0.029  0.00  0.00    +0.200 A 
BRANCH   9  11
ATOM     11  S   LIG    1       -3.757 -12.055  -0.032  0.00  0.00    +2.690 S 
ATOM     12  O   LIG    1       -4.846 -11.333   0.527  0.00  0.00    -0.950 OA
ATOM     13  O   LIG    1       -3.285 -13.285   0.501  0.00  0.00    -0.950 OA
BRANCH  11  14
ATOM     14  N   LIG    1       -4.155 -12.352  -1.611  0.00  0.00    -1.000 NA
ATOM     15  C   LIG    1       -5.123 -11.493  -2.297  0.00  0.00    +0.310 C 
ATOM     16  C   LIG    1       -3.539 -13.475  -2.323  0.00  0.00    +0.300 C 
ENDBRANCH  11  14
ENDBRANCH   9  11
ENDBRANCH   3   5
BRANCH   1  18
ATOM     17  C   LIG    1        0.192  -4.198  -0.024  0.00  0.00    +0.520 C 
ATOM     18  N   LIG    1       -0.864  -5.036  -0.019  0.00  0.00    -0.520 N 
ATOM     19  H   LIG    1       -1.766  -4.679  -0.008  0.00  0.00    +0.440 HD
ATOM     20  O   LIG    1        1.320  -4.644  -0.037  0.00  0.00    -0.510 OA
BRANCH  17  21
ATOM     21  C   LIG    1       -0.029  -2.707  -0.013  0.00  0.00    +0.250 C 
BRANCH  21  22
ATOM     22  O   LIG    1        1.234  -2.039  -0.021  0.00  0.00    -0.290 OA
BRANCH  22  29
ATOM     23  C   LIG    1        3.721  -0.698  -0.038  0.00  0.00    +0.100 C 
ATOM     24  C   LIG    1        2.403   0.034  -0.021  0.00  0.00    -0.110 A 
ATOM     25  C   LIG    1        2.379   1.415  -0.013  0.00  0.00    +0.050 A 
ATOM     26  C   LIG    1        1.170   2.086   0.002  0.00  0.00    -0.020 A 
ATOM     27  C   LIG    1       -0.017   1.377   0.010  0.00  0.00    +0.040 A 
ATOM     28  C   LIG    1        0.002  -0.004   0.002  0.00  0.00    -0.080 A 
ATOM     29  C   LIG    1        1.213  -0.680  -0.013  0.00  0.00    +0.120 A 
ENDBRANCH  22  29
ENDBRANCH  21  22
ENDBRANCH  17  21
ENDBRANCH   1  18
TORSDOF 7
