REMARK  Name = ZINCpk00000KfKox.0
REMARK                            x       y       z     vdW  Elec       q    Type
REMARK                         _______ _______ _______ _____ _____    ______ ____
ROOT
ATOM      1  C   LIG    1        2.282  -2.425   0.746  0.00  0.00    +0.430 A 
ATOM      2  N   LIG    1        1.281  -2.018  -0.001  0.00  0.00    -0.540 NA
ATOM      3  C   LIG    1        1.372  -0.949  -0.797  0.00  0.00    +0.180 A 
ATOM      4  C   LIG    1        0.284  -0.536  -1.586  0.00  0.00    +0.030 A 
ATOM      5  C   LIG    1        0.408   0.557  -2.388  0.00  0.00    +0.050 A 
ATOM      6  C   LIG    1        1.598   1.279  -2.441  0.00  0.00    -0.010 A 
ATOM      7  C   LIG    1        2.674   0.908  -1.689  0.00  0.00    +0.070 A 
ATOM      8  C   LIG    1        2.580  -0.211  -0.856  0.00  0.00    -0.110 A 
ATOM      9  C   LIG    1        3.709  -0.647  -0.031  0.00  0.00    -0.030 A 
ATOM     10  C   LIG    1        3.521  -1.768   0.764  0.00  0.00    -0.040 A 
ENDROOT
BRANCH   9  11
ATOM     11  C   LIG    1        4.998   0.078  -0.046  0.00  0.00    +0.580 C 
ATOM     12  N   LIG    1        6.156  -0.605   0.041  0.00  0.00    -0.600 N 
ATOM     13  C   LIG    1        7.502  -0.011   0.148  0.00  0.00    +0.230 C 
ATOM     14  C   LIG    1        8.497  -1.181   0.198  0.00  0.00    +0.160 C 
ATOM     15  C   LIG    1        7.731  -2.329  -0.498  0.00  0.00    +0.200 C 
ATOM     16  O   LIG    1        7.679  -2.107  -1.909  0.00  0.00    -0.370 OA
ATOM     17  C   LIG    1        8.939  -1.874  -2.536  0.00  0.00    +0.230 C 
ATOM     18  C   LIG    1        9.565  -0.620  -1.913  0.00  0.00    +0.150 C 
ATOM     19  N   LIG    1        9.745  -0.864  -0.475  0.00  0.00    -0.530 NA
ATOM     20  C   LIG    1       10.418   0.270   0.171  0.00  0.00    +0.200 C 
ATOM     21  C   LIG    1        6.294  -2.075   0.052  0.00  0.00    +0.290 C 
ATOM     22  O   LIG    1        5.012   1.290  -0.136  0.00  0.00    -0.520 OA
ENDBRANCH   9  11
BRANCH   1  24
ATOM     23  C   LIG    1        3.167  -3.956   2.471  0.00  0.00    +0.290 C 
ATOM     24  N   LIG    1        2.108  -3.545   1.547  0.00  0.00    -0.610 N 
ATOM     25  C   LIG    1        0.864  -4.315   1.467  0.00  0.00    +0.300 C 
ENDBRANCH   1  24
TORSDOF 2
