REMARK  Name = ZINCrH00000No4Ed.0
REMARK                            x       y       z     vdW  Elec       q    Type
REMARK                         _______ _______ _______ _____ _____    ______ ____
ROOT
ATOM      1  C   LIG    1       -1.469  -3.189  -0.269  0.00  0.00    +0.290 C 
ATOM      2  C   LIG    1       -0.656  -2.069  -0.119  0.00  0.00    -0.120 C 
ATOM      3  N   LIG    1       -1.044  -0.764  -0.178  0.00  0.00    -0.430 NA
ATOM      4  C   LIG    1        0.002  -0.004   0.010  0.00  0.00    +0.310 C 
ATOM      5  O   LIG    1        1.103  -0.761   0.192  0.00  0.00    -0.300 OA
ATOM      6  C   LIG    1        0.743  -2.060   0.127  0.00  0.00    +0.480 C 
ATOM      7  O   LIG    1        1.471  -3.029   0.249  0.00  0.00    -0.450 OA
ENDROOT
BRANCH   1  11
ATOM      8  C   LIG    1       -5.831  -1.040  -1.022  0.00  0.00    +0.180 C 
ATOM      9  C   LIG    1       -4.773  -2.098  -0.843  0.00  0.00    +0.170 A 
ATOM     10  N   LIG    1       -3.513  -1.863  -0.620  0.00  0.00    -0.370 NA
ATOM     11  C   LIG    1       -2.843  -3.032  -0.510  0.00  0.00    -0.030 A 
ATOM     12  C   LIG    1       -3.788  -4.063  -0.689  0.00  0.00    +0.070 A 
ATOM     13  C   LIG    1       -3.703  -5.457  -0.690  0.00  0.00    +0.070 A 
ATOM     14  C   LIG    1       -4.835  -6.194  -0.898  0.00  0.00    +0.060 A 
ATOM     15  C   LIG    1       -6.057  -5.539  -1.107  0.00  0.00    +0.020 A 
ATOM     16  C   LIG    1       -6.120  -4.188  -1.094  0.00  0.00    +0.240 A 
ATOM     17  N   LIG    1       -4.996  -3.443  -0.891  0.00  0.00    -0.360 N 
ENDBRANCH   1  11
BRANCH   4  18
ATOM     18  C   LIG    1       -0.018   1.472   0.016  0.00  0.00    -0.070 A 
ATOM     19  C   LIG    1       -1.218   2.157  -0.196  0.00  0.00    +0.130 A 
ATOM     20  C   LIG    1       -1.232   3.535  -0.184  0.00  0.00    -0.020 A 
ATOM     21  C   LIG    1       -0.056   4.242   0.026  0.00  0.00    +0.160 A 
ATOM     22  C   LIG    1        1.140   3.565   0.232  0.00  0.00    -0.080 A 
ATOM     23  C   LIG    1        1.163   2.187   0.228  0.00  0.00    +0.100 A 
BRANCH  21  24
ATOM     24  O   LIG    1       -0.074   5.600   0.031  0.00  0.00    -0.310 OA
BRANCH  24  25
ATOM     25  C   LIG    1        1.187   6.266   0.134  0.00  0.00    +0.150 C 
ATOM     26  C   LIG    1        1.583   6.383   1.607  0.00  0.00    +0.020 C 
ATOM     27  C   LIG    1        1.076   7.664  -0.477  0.00  0.00    +0.070 C 
ENDBRANCH  24  25
ENDBRANCH  21  24
ENDBRANCH   4  18
TORSDOF 4
