REMARK  Name = ZINCrD00000F5Lyl.0
REMARK                            x       y       z     vdW  Elec       q    Type
REMARK                         _______ _______ _______ _____ _____    ______ ____
ROOT
ATOM      1  C   LIG    1       -2.480   4.244   0.047  0.00  0.00    +0.510 C 
ATOM      2  O   LIG    1       -2.469   5.459   0.052  0.00  0.00    -0.480 OA
ENDROOT
BRANCH   1  12
ATOM      3  C   LIG    1        0.016   4.194   0.023  0.00  0.00    +0.190 A 
ATOM      4  C   LIG    1        1.202   3.520   0.009  0.00  0.00    -0.090 A 
ATOM      5  C   LIG    1        1.210   2.115   0.002  0.00  0.00    +0.020 A 
ATOM      6  C   LIG    1        2.420   1.399  -0.013  0.00  0.00    +0.000 A 
ATOM      7  C   LIG    1        2.399   0.038  -0.020  0.00  0.00    +0.040 A 
ATOM      8  C   LIG    1        1.193  -0.662  -0.013  0.00  0.00    +0.000 A 
ATOM      9  C   LIG    1        0.002  -0.004   0.002  0.00  0.00    +0.050 A 
ATOM     10  C   LIG    1       -0.017   1.402   0.010  0.00  0.00    -0.100 A 
ATOM     11  C   LIG    1       -1.228   2.109   0.019  0.00  0.00    +0.170 A 
ATOM     12  C   LIG    1       -1.210   3.495   0.031  0.00  0.00    -0.150 A 
BRANCH   3  14
ATOM     13  C   LIG    1        1.289   6.200   0.022  0.00  0.00    +0.240 C 
ATOM     14  O   LIG    1        0.016   5.551   0.030  0.00  0.00    -0.290 OA
ENDBRANCH   3  14
ENDBRANCH   1  12
BRANCH   1  15
ATOM     15  O   LIG    1       -3.653   3.581   0.054  0.00  0.00    -0.330 OA
BRANCH  15  16
ATOM     16  C   LIG    1       -4.864   4.383   0.069  0.00  0.00    +0.270 C 
BRANCH  16  17
ATOM     17  C   LIG    1       -6.067   3.476   0.076  0.00  0.00    +0.520 C 
ATOM     18  N   LIG    1       -7.308   4.003   0.090  0.00  0.00    -0.720 N 
ATOM     19  H   LIG    1       -7.426   4.966   0.096  0.00  0.00    +0.410 HD
ATOM     20  O   LIG    1       -5.919   2.272   0.069  0.00  0.00    -0.500 OA
BRANCH  18  21
ATOM     21  C   LIG    1       -8.478   3.121   0.097  0.00  0.00    +0.280 C 
ATOM     22  C   LIG    1       -8.463   2.244  -1.157  0.00  0.00    +0.050 C 
ATOM     23  C   LIG    1       -9.684   1.323  -1.150  0.00  0.00    +0.020 C 
ATOM     24  C   LIG    1      -10.960   2.168  -1.134  0.00  0.00    +0.020 C 
ATOM     25  C   LIG    1      -10.975   3.046   0.119  0.00  0.00    +0.020 C 
ATOM     26  C   LIG    1       -9.753   3.966   0.112  0.00  0.00    +0.060 C 
BRANCH  21  27
ATOM     27  C   LIG    1       -8.441   2.266   1.294  0.00  0.00    +0.200 C 
ATOM     28  N   LIG    1       -8.412   1.606   2.219  0.00  0.00    -0.410 NA
ENDBRANCH  21  27
ENDBRANCH  18  21
ENDBRANCH  16  17
ENDBRANCH  15  16
ENDBRANCH   1  15
TORSDOF 7
