REMARK  Name = ZINCqH00000080Po.0
REMARK                            x       y       z     vdW  Elec       q    Type
REMARK                         _______ _______ _______ _____ _____    ______ ____
ROOT
ATOM      1  C   LIG    1        1.121   3.578   0.011  0.00  0.00    +0.270 C 
ENDROOT
BRANCH   1   2
ATOM      2  C   LIG    1        1.141   2.071   0.002  0.00  0.00    +0.510 C 
ATOM      3  N   LIG    1       -0.017   1.381   0.010  0.00  0.00    -0.630 N 
ATOM      4  H   LIG    1       -0.863   1.855   0.016  0.00  0.00    +0.430 HD
ATOM      5  O   LIG    1        2.200   1.479  -0.011  0.00  0.00    -0.460 OA
BRANCH   3   6
ATOM      6  C   LIG    1        0.002  -0.004   0.002  0.00  0.00    +0.330 A 
ATOM      7  N   LIG    1        1.069  -0.725  -0.018  0.00  0.00    -0.460 NA
ATOM      8  C   LIG    1        0.926  -2.065  -0.018  0.00  0.00    +0.110 A 
ATOM      9  C   LIG    1        1.926  -3.060  -0.033  0.00  0.00    +0.070 A 
ATOM     10  C   LIG    1        1.584  -4.389  -0.037  0.00  0.00    +0.040 A 
ATOM     11  C   LIG    1        0.252  -4.775  -0.027  0.00  0.00    +0.040 A 
ATOM     12  C   LIG    1       -0.742  -3.821  -0.012  0.00  0.00    +0.060 A 
ATOM     13  C   LIG    1       -0.413  -2.468  -0.007  0.00  0.00    -0.180 A 
ATOM     14  S   LIG    1       -1.428  -1.027   0.010  0.00  0.00    +0.070 S 
ENDBRANCH   3   6
ENDBRANCH   1   2
BRANCH   1  15
ATOM     15  N   LIG    1        2.495   4.085   0.000  0.00  0.00    -0.710 N 
ATOM     16  H   LIG    1        3.217   3.537   0.345  0.00  0.00    +0.410 HD
ATOM     17  C   LIG    1        2.757   5.313  -0.489  0.00  0.00    +0.570 C 
ATOM     18  O   LIG    1        1.852   6.000  -0.922  0.00  0.00    -0.530 OA
BRANCH  17  19
ATOM     19  C   LIG    1        4.144   5.825  -0.499  0.00  0.00    -0.140 A 
ATOM     20  C   LIG    1        5.184   5.041   0.002  0.00  0.00    +0.050 A 
ATOM     21  C   LIG    1        6.476   5.522  -0.015  0.00  0.00    +0.000 A 
ATOM     22  C   LIG    1        6.741   6.784  -0.518  0.00  0.00    +0.040 A 
ATOM     23  C   LIG    1        5.714   7.568  -1.012  0.00  0.00    +0.000 A 
ATOM     24  C   LIG    1        4.418   7.096  -1.006  0.00  0.00    +0.080 A 
ENDBRANCH  17  19
ENDBRANCH   1  15
BRANCH   1  25
ATOM     25  C   LIG    1        0.405   4.071   1.269  0.00  0.00    +0.070 C 
BRANCH  25  26
ATOM     26  C   LIG    1        0.274   5.595   1.218  0.00  0.00    +0.100 C 
BRANCH  26  28
ATOM     27  C   LIG    1       -0.635   7.976   2.468  0.00  0.00    +0.140 C 
ATOM     28  S   LIG    1       -0.576   6.180   2.710  0.00  0.00    -0.270 S 
ENDBRANCH  26  28
ENDBRANCH  25  26
ENDBRANCH   1  25
TORSDOF 7
