REMARK  Name = ZINCvU0000000GVJ.0
REMARK                            x       y       z     vdW  Elec       q    Type
REMARK                         _______ _______ _______ _____ _____    ______ ____
ROOT
ATOM      1  N   LIG    1       -2.207   6.763   6.070  0.00  0.00    -0.500 N 
ATOM      2  C   LIG    1       -3.312   5.990   6.654  0.00  0.00    +0.180 C 
ATOM      3  C   LIG    1       -2.884   4.526   6.802  0.00  0.00    +0.300 C 
ATOM      4  N   LIG    1       -2.409   4.043   5.496  0.00  0.00    -0.610 N 
ATOM      5  C   LIG    1       -1.394   4.838   4.788  0.00  0.00    +0.290 C 
ATOM      6  C   LIG    1       -2.887   2.900   4.965  0.00  0.00    +0.560 C 
ATOM      7  O   LIG    1       -3.790   2.304   5.519  0.00  0.00    -0.530 OA
ATOM      8  C   LIG    1       -1.885   6.293   4.716  0.00  0.00    +0.170 C 
ENDROOT
BRANCH   1  14
ATOM      9  C   LIG    1       -1.204  11.300   7.669  0.00  0.00    +0.090 C 
ATOM     10  C   LIG    1       -2.028  10.352   6.836  0.00  0.00    -0.080 A 
ATOM     11  C   LIG    1       -3.073  10.835   6.070  0.00  0.00    +0.000 A 
ATOM     12  C   LIG    1       -3.831   9.969   5.304  0.00  0.00    +0.010 A 
ATOM     13  C   LIG    1       -3.543   8.618   5.298  0.00  0.00    -0.030 A 
ATOM     14  C   LIG    1       -2.498   8.129   6.070  0.00  0.00    +0.080 A 
ATOM     15  C   LIG    1       -1.738   9.002   6.838  0.00  0.00    -0.060 A 
ATOM     16  C   LIG    1       -0.599   8.476   7.673  0.00  0.00    +0.090 C 
ENDBRANCH   1  14
BRANCH   6  17
ATOM     17  C   LIG    1       -2.312   2.372   3.709  0.00  0.00    -0.120 A 
ATOM     18  C   LIG    1       -3.121   1.681   2.805  0.00  0.00    +0.080 A 
ATOM     19  C   LIG    1       -2.579   1.191   1.635  0.00  0.00    +0.030 A 
ATOM     20  C   LIG    1       -1.237   1.383   1.357  0.00  0.00    -0.070 A 
ATOM     21  C   LIG    1       -0.429   2.062   2.252  0.00  0.00    +0.030 A 
ATOM     22  C   LIG    1       -0.960   2.562   3.423  0.00  0.00    +0.040 A 
BRANCH  20  23
ATOM     23  C   LIG    1       -0.652   0.844   0.077  0.00  0.00    +0.260 C 
BRANCH  23  24
ATOM     24  O   LIG    1       -0.761   1.832  -0.950  0.00  0.00    -0.300 OA
BRANCH  24  25
ATOM     25  C   LIG    1       -0.277   1.503  -2.176  0.00  0.00    +0.140 A 
ATOM     26  C   LIG    1        0.297   0.258  -2.385  0.00  0.00    -0.060 A 
ATOM     27  C   LIG    1        0.785  -0.076  -3.634  0.00  0.00    +0.070 A 
ATOM     28  C   LIG    1        0.710   0.835  -4.673  0.00  0.00    -0.070 A 
ATOM     29  C   LIG    1        0.142   2.079  -4.465  0.00  0.00    +0.070 A 
ATOM     30 CL   LIG    1        1.329   0.415  -6.240  0.00  0.00    -0.070 Cl
ATOM     31  C   LIG    1       -0.351   2.415  -3.219  0.00  0.00    +0.000 A 
ENDBRANCH  24  25
ENDBRANCH  23  24
ENDBRANCH  20  23
ENDBRANCH   6  17
TORSDOF 5
