REMARK  Name = ZINCrH00000No4OS.0
REMARK                            x       y       z     vdW  Elec       q    Type
REMARK                         _______ _______ _______ _____ _____    ______ ____
ROOT
ATOM      1  O   LIG    1       -1.309   4.049  -2.016  0.00  0.00    -0.530 OA
ATOM      2  C   LIG    1       -2.048   3.106  -2.208  0.00  0.00    +0.530 C 
ATOM      3  N   LIG    1       -2.799   3.055  -3.325  0.00  0.00    -0.600 N 
ENDROOT
BRANCH   2   4
ATOM      4  C   LIG    1       -2.125   1.992  -1.197  0.00  0.00    -0.020 C 
ATOM      5  C   LIG    1       -3.310   2.122  -0.226  0.00  0.00    +0.060 C 
ATOM      6  C   LIG    1       -2.354   1.645   0.881  0.00  0.00    +0.050 C 
ATOM      7  C   LIG    1       -1.207   2.199   0.020  0.00  0.00    +0.260 C 
BRANCH   7   8
ATOM      8  N   LIG    1       -0.016   1.346   0.009  0.00  0.00    -0.450 N 
ATOM      9  C   LIG    1        1.286   1.769  -0.001  0.00  0.00    +0.120 A 
ATOM     10  C   LIG    1        2.054   0.663  -0.014  0.00  0.00    +0.140 A 
ATOM     11  N   LIG    1        1.244  -0.406  -0.012  0.00  0.00    -0.490 NA
ATOM     12  C   LIG    1        0.002  -0.004   0.002  0.00  0.00    +0.370 A 
ENDBRANCH   7   8
ENDBRANCH   2   4
BRANCH   3  13
ATOM     13  C   LIG    1       -3.691   1.916  -3.557  0.00  0.00    +0.280 C 
BRANCH  13  14
ATOM     14  C   LIG    1       -5.065   2.213  -2.954  0.00  0.00    -0.030 C 
ATOM     15  C   LIG    1       -5.770   3.345  -3.742  0.00  0.00    +0.020 C 
ATOM     16  C   LIG    1       -7.268   3.094  -3.433  0.00  0.00    +0.010 C 
ATOM     17  C   LIG    1       -7.401   1.557  -3.420  0.00  0.00    +0.180 C 
ATOM     18  F   LIG    1       -7.838   1.101  -4.669  0.00  0.00    -0.210 F 
ATOM     19  C   LIG    1       -6.000   0.997  -3.115  0.00  0.00    +0.010 C 
ENDBRANCH  13  14
ENDBRANCH   3  13
BRANCH   3  20
ATOM     20  C   LIG    1       -2.724   4.139  -4.309  0.00  0.00    +0.330 C 
BRANCH  20  21
ATOM     21  C   LIG    1       -1.651   3.827  -5.319  0.00  0.00    -0.090 A 
ATOM     22  C   LIG    1       -1.966   3.120  -6.465  0.00  0.00    +0.000 A 
ATOM     23  C   LIG    1       -0.983   2.832  -7.394  0.00  0.00    +0.020 A 
ATOM     24  C   LIG    1        0.316   3.250  -7.180  0.00  0.00    -0.010 A 
ATOM     25  C   LIG    1        0.634   3.960  -6.031  0.00  0.00    +0.100 A 
ATOM     26  C   LIG    1       -0.354   4.252  -5.103  0.00  0.00    +0.010 A 
BRANCH  25  27
ATOM     27  O   LIG    1        1.911   4.373  -5.817  0.00  0.00    -0.500 OA
ATOM     28  H   LIG    1        2.106   5.250  -6.175  0.00  0.00    +0.390 HD
ENDBRANCH  25  27
ENDBRANCH  20  21
ENDBRANCH   3  20
TORSDOF 7
