REMARK  Name = ZINCnE000001TCIZ.0
REMARK                            x       y       z     vdW  Elec       q    Type
REMARK                         _______ _______ _______ _____ _____    ______ ____
ROOT
ATOM      1  C   LIG    1        1.584   3.338   0.005  0.00  0.00    +0.600 C 
ATOM      2  N   LIG    1        1.356   2.010  -0.000  0.00  0.00    -0.720 N 
ATOM      3  H   LIG    1        2.102   1.390  -0.011  0.00  0.00    +0.400 HD
ATOM      4  O   LIG    1        0.649   4.116   0.018  0.00  0.00    -0.530 OA
ENDROOT
BRANCH   1  10
ATOM      5  C   LIG    1        6.797   6.389  -0.029  0.00  0.00    -0.190 A 
ATOM      6  C   LIG    1        5.473   6.584  -0.015  0.00  0.00    +0.070 A 
ATOM      7  C   LIG    1        4.684   5.411  -0.014  0.00  0.00    -0.110 A 
ATOM      8  C   LIG    1        5.447   4.260  -0.028  0.00  0.00    -0.260 A 
ATOM      9  S   LIG    1        4.396   2.840  -0.025  0.00  0.00    +0.160 S 
ATOM     10  C   LIG    1        2.959   3.845  -0.005  0.00  0.00    -0.260 A 
ATOM     11  C   LIG    1        3.293   5.138  -0.007  0.00  0.00    +0.160 A 
ATOM     12  S   LIG    1        7.165   4.675  -0.042  0.00  0.00    +0.230 S 
BRANCH   5  14
ATOM     13  O   LIG    1        7.411   8.596  -0.024  0.00  0.00    -0.670 OA
ATOM     14  C   LIG    1        7.766   7.424  -0.033  0.00  0.00    +0.540 C 
ATOM     15  O   LIG    1        8.959   7.146  -0.047  0.00  0.00    -0.680 OA
ENDBRANCH   5  14
ENDBRANCH   1  10
BRANCH   2  16
ATOM     16  C   LIG    1       -0.018   1.503   0.010  0.00  0.00    +0.390 C 
BRANCH  16  17
ATOM     17  C   LIG    1        0.002  -0.004   0.002  0.00  0.00    -0.030 A 
ATOM     18  C   LIG    1        0.023  -0.802   1.082  0.00  0.00    +0.020 A 
ATOM     19  O   LIG    1        0.036  -2.074   0.635  0.00  0.00    -0.200 OA
ATOM     20  C   LIG    1        0.023  -2.036  -0.704  0.00  0.00    +0.420 A 
ATOM     21  N   LIG    1       -0.003  -0.792  -1.088  0.00  0.00    -0.470 NA
BRANCH  18  22
ATOM     22  C   LIG    1        0.030  -0.360   2.523  0.00  0.00    +0.050 C 
ATOM     23  C   LIG    1        0.262  -1.431   3.590  0.00  0.00    +0.050 C 
ATOM     24  C   LIG    1       -1.129  -0.819   3.409  0.00  0.00    +0.050 C 
ENDBRANCH  18  22
ENDBRANCH  16  17
ENDBRANCH   2  16
TORSDOF 5
