REMARK  Name = ZINCpk00001AZiUC.0
REMARK                            x       y       z     vdW  Elec       q    Type
REMARK                         _______ _______ _______ _____ _____    ______ ____
ROOT
ATOM      1  C   LIG    1        0.361   7.226  -1.614  0.00  0.00    +0.280 C 
ENDROOT
BRANCH   1   6
ATOM      2  C   LIG    1       -1.172   5.879   2.317  0.00  0.00    +0.300 C 
ATOM      3  N   LIG    1       -1.183   5.836   0.853  0.00  0.00    -0.610 N 
ATOM      4  C   LIG    1       -2.214   6.239   0.090  0.00  0.00    +0.520 C 
ATOM      5  C   LIG    1       -1.878   6.062  -1.374  0.00  0.00    +0.060 C 
ATOM      6  C   LIG    1       -0.342   5.885  -1.392  0.00  0.00    +0.010 C 
ATOM      7  O   LIG    1       -3.262   6.679   0.515  0.00  0.00    -0.520 OA
ATOM      8  C   LIG    1       -0.070   5.347   0.030  0.00  0.00    +0.280 C 
BRANCH   8   9
ATOM      9  C   LIG    1       -0.050   3.840   0.022  0.00  0.00    -0.110 A 
ATOM     10  C   LIG    1        1.156   3.165   0.008  0.00  0.00    +0.020 A 
ATOM     11  C   LIG    1        1.175   1.783   0.000  0.00  0.00    +0.010 A 
ATOM     12  C   LIG    1       -0.013   1.076   0.008  0.00  0.00    +0.010 A 
ATOM     13  C   LIG    1       -1.219   1.751   0.017  0.00  0.00    +0.000 A 
ATOM     14  C   LIG    1       -1.238   3.133   0.029  0.00  0.00    +0.020 A 
ENDBRANCH   8   9
ENDBRANCH   1   6
BRANCH   1  15
ATOM     15  N   LIG    1        0.181   7.648  -3.005  0.00  0.00    -0.710 N 
ATOM     16  H   LIG    1       -0.324   7.092  -3.619  0.00  0.00    +0.410 HD
BRANCH  15  17
ATOM     17  C   LIG    1        0.735   8.844  -3.446  0.00  0.00    +0.400 A 
ATOM     18  C   LIG    1        1.460   9.642  -2.566  0.00  0.00    +0.110 A 
ATOM     19  N   LIG    1        1.986  10.778  -2.986  0.00  0.00    -0.370 NA
ATOM     20  C   LIG    1        1.826  11.161  -4.240  0.00  0.00    +0.140 A 
ATOM     21  C   LIG    1        1.103  10.368  -5.123  0.00  0.00    +0.330 A 
ATOM     22  N   LIG    1        0.578   9.224  -4.708  0.00  0.00    -0.560 NA
BRANCH  21  23
ATOM     23  O   LIG    1        0.940  10.763  -6.411  0.00  0.00    -0.290 OA
BRANCH  23  24
ATOM     24  C   LIG    1        0.185   9.899  -7.263  0.00  0.00    +0.230 C 
BRANCH  24  25
ATOM     25  C   LIG    1        0.109  10.506  -8.666  0.00  0.00    +0.210 C 
BRANCH  25  26
ATOM     26  O   LIG    1        1.418  10.552  -9.237  0.00  0.00    -0.570 OA
ATOM     27  H   LIG    1        1.446  10.926 -10.128  0.00  0.00    +0.380 HD
ENDBRANCH  25  26
ENDBRANCH  24  25
ENDBRANCH  23  24
ENDBRANCH  21  23
ENDBRANCH  15  17
ENDBRANCH   1  15
TORSDOF 8
