REMARK  Name = ZINCpe000000XVhL.0
REMARK                            x       y       z     vdW  Elec       q    Type
REMARK                         _______ _______ _______ _____ _____    ______ ____
ROOT
ATOM      1  C   LIG    1        6.030  -0.658  -0.058  0.00  0.00    +0.590 C 
ATOM      2  N   LIG    1        6.065  -2.002   0.037  0.00  0.00    -0.710 N 
ATOM      3  H   LIG    1        5.238  -2.509   0.043  0.00  0.00    +0.410 HD
ATOM      4  O   LIG    1        7.067  -0.028  -0.158  0.00  0.00    -0.550 OA
ENDROOT
BRANCH   1  11
ATOM      5  C   LIG    1       -1.329   2.138   0.016  0.00  0.00    +0.130 C 
ATOM      6  C   LIG    1       -0.017   1.397   0.003  0.00  0.00    +0.020 A 
ATOM      7  C   LIG    1        1.161   2.085   0.011  0.00  0.00    +0.020 A 
ATOM      8  C   LIG    1        2.376   1.379  -0.007  0.00  0.00    +0.410 A 
ATOM      9  N   LIG    1        3.526   2.059  -0.000  0.00  0.00    -0.550 NA
ATOM     10  C   LIG    1        4.692   1.446  -0.016  0.00  0.00    +0.460 A 
ATOM     11  C   LIG    1        4.743   0.046  -0.040  0.00  0.00    -0.370 A 
ATOM     12  C   LIG    1        3.524  -0.674  -0.048  0.00  0.00    +0.530 A 
ATOM     13  O   LIG    1        3.523  -1.893  -0.069  0.00  0.00    -0.530 OA
ATOM     14  N   LIG    1        2.362   0.014  -0.031  0.00  0.00    -0.420 N 
ATOM     15  C   LIG    1        1.182  -0.665  -0.038  0.00  0.00    +0.300 A 
ATOM     16  C   LIG    1        0.002  -0.003  -0.022  0.00  0.00    +0.010 A 
ENDBRANCH   1  11
BRANCH   2  17
ATOM     17  C   LIG    1        7.351  -2.697   0.132  0.00  0.00    +0.230 C 
ATOM     18  C   LIG    1        7.642  -3.267   1.530  0.00  0.00    +0.030 C 
ATOM     19  C   LIG    1        6.924  -4.547   1.071  0.00  0.00    -0.030 C 
ATOM     20  C   LIG    1        7.304  -4.151  -0.366  0.00  0.00    +0.040 C 
BRANCH  19  21
ATOM     21  C   LIG    1        7.597  -5.835   1.549  0.00  0.00    +0.330 C 
BRANCH  21  22
ATOM     22  N   LIG    1        7.083  -6.191   2.874  0.00  0.00    -0.380 N 
ATOM     23  C   LIG    1        6.524  -7.359   3.235  0.00  0.00    +0.470 A 
ATOM     24  N   LIG    1        6.198  -7.281   4.500  0.00  0.00    -0.550 NA
ATOM     25  C   LIG    1        6.532  -6.083   4.978  0.00  0.00    +0.410 A 
ATOM     26  N   LIG    1        7.082  -5.382   4.022  0.00  0.00    -0.310 NA
ENDBRANCH  21  22
ENDBRANCH  19  21
ENDBRANCH   2  17
TORSDOF 4
