REMARK  Name = ZINCqH0000036co1.0
REMARK                            x       y       z     vdW  Elec       q    Type
REMARK                         _______ _______ _______ _____ _____    ______ ____
ROOT
ATOM      1  N   LIG    1        6.668   2.000   2.340  0.00  0.00    -0.680 N 
ATOM      2  H   LIG    1        7.017   1.466   1.610  0.00  0.00    +0.410 HD
ATOM      3  C   LIG    1        5.353   2.290   2.395  0.00  0.00    +0.700 C 
ATOM      4  N   LIG    1        4.541   1.928   1.383  0.00  0.00    -0.740 N 
ATOM      5  H   LIG    1        4.902   1.460   0.614  0.00  0.00    +0.400 HD
ATOM      6  O   LIG    1        4.900   2.877   3.359  0.00  0.00    -0.570 OA
ENDROOT
BRANCH   1  12
ATOM      7  C   LIG    1        9.906   4.976   6.855  0.00  0.00    +0.350 A 
ATOM      8  N   LIG    1       10.100   3.817   6.265  0.00  0.00    -0.540 NA
ATOM      9  C   LIG    1        9.270   3.374   5.313  0.00  0.00    +0.150 A 
ATOM     10  C   LIG    1        9.487   2.134   4.688  0.00  0.00    +0.050 A 
ATOM     11  C   LIG    1        8.632   1.700   3.723  0.00  0.00    +0.020 A 
ATOM     12  C   LIG    1        7.531   2.472   3.337  0.00  0.00    +0.150 A 
ATOM     13  C   LIG    1        7.292   3.695   3.925  0.00  0.00    +0.060 A 
ATOM     14  C   LIG    1        8.157   4.160   4.926  0.00  0.00    -0.110 A 
ATOM     15  C   LIG    1        7.944   5.403   5.556  0.00  0.00    +0.120 A 
ATOM     16  C   LIG    1        8.825   5.799   6.518  0.00  0.00    -0.020 A 
BRANCH   7  18
ATOM     17  C   LIG    1       11.860   4.507   8.121  0.00  0.00    +0.260 C 
ATOM     18  O   LIG    1       10.774   5.383   7.814  0.00  0.00    -0.310 OA
ENDBRANCH   7  18
ENDBRANCH   1  12
BRANCH   4  19
ATOM     19  C   LIG    1        3.111   2.243   1.442  0.00  0.00    +0.290 C 
BRANCH  19  20
ATOM     20  C   LIG    1        2.422   1.727   0.178  0.00  0.00    +0.070 C 
ATOM     21  C   LIG    1        2.953   2.488  -1.039  0.00  0.00    +0.030 C 
BRANCH  20  22
ATOM     22  C   LIG    1        0.935   1.940   0.293  0.00  0.00    -0.200 A 
ATOM     23  C   LIG    1       -0.046   1.007   0.264  0.00  0.00    -0.020 A 
ATOM     24  O   LIG    1       -1.204   1.669   0.397  0.00  0.00    +0.100 OA
ATOM     25  N   LIG    1       -1.025   2.860   0.509  0.00  0.00    -0.360 NA
ATOM     26  C   LIG    1        0.128  -0.481   0.105  0.00  0.00    +0.190 C 
ATOM     27  C   LIG    1        0.240   3.161   0.458  0.00  0.00    +0.030 A 
ATOM     28  C   LIG    1        0.846   4.538   0.554  0.00  0.00    +0.160 C 
ENDBRANCH  20  22
ENDBRANCH  19  20
ENDBRANCH   4  19
TORSDOF 5
