REMARK  Name = ZINCkj000005llRX.0
REMARK                            x       y       z     vdW  Elec       q    Type
REMARK                         _______ _______ _______ _____ _____    ______ ____
ROOT
ATOM      1  N   LIG    1       -3.937  -0.719   3.530  0.00  0.00    -0.740 N 
ATOM      2  H   LIG    1       -4.272  -0.324   2.710  0.00  0.00    +0.390 HD
ATOM      3  C   LIG    1       -2.886  -0.162   4.166  0.00  0.00    +0.700 C 
ATOM      4  N   LIG    1       -2.367   0.999   3.720  0.00  0.00    -0.620 N 
ATOM      5  C   LIG    1       -1.288   1.637   4.499  0.00  0.00    +0.280 C 
ATOM      6  C   LIG    1       -0.170   2.191   3.598  0.00  0.00    +0.020 C 
ATOM      7  C   LIG    1        0.116   1.224   2.475  0.00  0.00    +0.030 C 
ATOM      8  C   LIG    1       -0.739   1.588   1.264  0.00  0.00    -0.010 C 
ATOM      9  C   LIG    1       -2.093   1.014   1.289  0.00  0.00    +0.010 C 
ATOM     10  C   LIG    1       -2.889   1.567   2.497  0.00  0.00    +0.260 C 
ATOM     11  O   LIG    1       -2.407  -0.708   5.141  0.00  0.00    -0.580 OA
ENDROOT
BRANCH   1  15
ATOM     12  C   LIG    1       -6.779  -2.746   3.337  0.00  0.00    -0.020 C 
ATOM     13  C   LIG    1       -6.972  -1.531   4.279  0.00  0.00    +0.020 C 
ATOM     14  C   LIG    1       -5.658  -1.523   5.100  0.00  0.00    +0.030 C 
ATOM     15  C   LIG    1       -4.572  -1.919   4.079  0.00  0.00    +0.260 C 
ATOM     16  C   LIG    1       -5.285  -2.697   2.958  0.00  0.00    +0.050 C 
BRANCH  12  17
ATOM     17  C   LIG    1       -7.653  -2.601   2.090  0.00  0.00    +0.270 C 
BRANCH  17  18
ATOM     18  N   LIG    1       -9.065  -2.769   2.459  0.00  0.00    -0.640 N 
ATOM     19  H   LIG    1       -9.323  -2.065   3.134  0.00  0.00    +0.430 HD
ATOM     20  H   LIG    1       -9.201  -3.685   2.860  0.00  0.00    +0.440 HD
ATOM     21  H   LIG    1       -9.642  -2.674   1.636  0.00  0.00    +0.440 HD
ENDBRANCH  17  18
ENDBRANCH  12  17
ENDBRANCH   1  15
BRANCH   8  22
ATOM     22  C   LIG    1       -0.027   1.098   0.002  0.00  0.00    +0.020 C 
BRANCH  22  23
ATOM     23  C   LIG    1       -0.771   1.608  -1.234  0.00  0.00    +0.160 C 
BRANCH  23  24
ATOM     24  O   LIG    1       -0.106   1.151  -2.413  0.00  0.00    -0.570 OA
ATOM     25  H   LIG    1       -0.524   1.437  -3.236  0.00  0.00    +0.380 HD
ENDBRANCH  23  24
ENDBRANCH  22  23
ENDBRANCH   8  22
TORSDOF 6
