REMARK  Name = ZINCnE000005qvjD.0
REMARK                            x       y       z     vdW  Elec       q    Type
REMARK                         _______ _______ _______ _____ _____    ______ ____
ROOT
ATOM      1  C   LIG    1        3.188   5.821   2.363  0.00  0.00    +0.080 C 
ENDROOT
BRANCH   1   2
ATOM      2  C   LIG    1        2.098   5.308   1.457  0.00  0.00    +0.520 C 
ATOM      3  N   LIG    1        2.210   4.090   0.890  0.00  0.00    -0.730 N 
ATOM      4  H   LIG    1        2.992   3.544   1.065  0.00  0.00    +0.400 HD
ATOM      5  O   LIG    1        1.121   5.992   1.238  0.00  0.00    -0.530 OA
BRANCH   3   6
ATOM      6  C   LIG    1        1.151   3.592   0.010  0.00  0.00    +0.280 C 
ATOM      7  C   LIG    1        1.381   4.113  -1.410  0.00  0.00    +0.040 C 
BRANCH   6   8
ATOM      8  C   LIG    1        1.171   2.086   0.002  0.00  0.00    -0.090 A 
ATOM      9  C   LIG    1       -0.017   1.378   0.010  0.00  0.00    +0.010 A 
ATOM     10  C   LIG    1        0.002  -0.004   0.002  0.00  0.00    +0.000 A 
ATOM     11  C   LIG    1        1.208  -0.679  -0.013  0.00  0.00    +0.000 A 
ATOM     12  C   LIG    1        2.396   0.029  -0.021  0.00  0.00    +0.000 A 
ATOM     13  C   LIG    1        2.377   1.411  -0.015  0.00  0.00    +0.010 A 
ENDBRANCH   6   8
ENDBRANCH   3   6
ENDBRANCH   1   2
BRANCH   1  14
ATOM     14  C   LIG    1        2.817   7.216   2.869  0.00  0.00    +0.100 C 
BRANCH  14  15
ATOM     15  S   LIG    1        4.129   7.832   3.960  0.00  0.00    -0.050 S 
BRANCH  15  20
ATOM     16  N   LIG    1        2.995  12.971   5.966  0.00  0.00    -0.630 NA
ATOM     17  C   LIG    1        3.048  11.796   5.386  0.00  0.00    +0.340 A 
ATOM     18  N   LIG    1        2.125  11.234   4.553  0.00  0.00    -0.510 NA
ATOM     19  N   LIG    1        2.422   9.978   4.074  0.00  0.00    -0.240 NA
ATOM     20  C   LIG    1        3.534   9.421   4.436  0.00  0.00    -0.060 A 
ATOM     21  S   LIG    1        4.332  10.579   5.515  0.00  0.00    -0.100 S 
BRANCH  16  22
ATOM     22  C   LIG    1        1.841  13.847   5.744  0.00  0.00    +0.200 C 
BRANCH  22  24
ATOM     23  C   LIG    1        0.867  15.241   7.496  0.00  0.00    -0.040 C 
ATOM     24  C   LIG    1        1.096  14.034   7.040  0.00  0.00    -0.010 C 
ENDBRANCH  22  24
ENDBRANCH  16  22
ENDBRANCH  15  20
ENDBRANCH  14  15
ENDBRANCH   1  14
TORSDOF 8
