REMARK  Name = ZINCvU0000000Awt.0
REMARK                            x       y       z     vdW  Elec       q    Type
REMARK                         _______ _______ _______ _____ _____    ______ ____
ROOT
ATOM      1  C   LIG    1       10.874   2.174  -0.083  0.00  0.00    +0.060 C 
ENDROOT
BRANCH   1   2
ATOM      2  C   LIG    1       12.351   1.876  -0.098  0.00  0.00    +0.450 C 
ATOM      3  O   LIG    1       12.738   0.725  -0.107  0.00  0.00    -0.430 OA
BRANCH   2   8
ATOM      4  C   LIG    1       15.194   4.113  -0.112  0.00  0.00    -0.220 A 
ATOM      5  C   LIG    1       14.125   4.992  -0.099  0.00  0.00    +0.140 A 
ATOM      6  N   LIG    1       12.986   4.284  -0.097  0.00  0.00    -0.510 N 
ATOM      7  H   LIG    1       12.092   4.659  -0.092  0.00  0.00    +0.430 HD
ATOM      8  C   LIG    1       13.288   2.937  -0.101  0.00  0.00    -0.100 A 
ATOM      9  C   LIG    1       14.225   6.496  -0.093  0.00  0.00    +0.150 C 
ATOM     10  C   LIG    1       14.660   2.807  -0.114  0.00  0.00    +0.010 A 
ATOM     11  C   LIG    1       15.439   1.517  -0.127  0.00  0.00    +0.140 C 
BRANCH   4  12
ATOM     12  C   LIG    1       16.622   4.473  -0.123  0.00  0.00    +0.550 C 
ATOM     13  O   LIG    1       17.202   4.627  -1.180  0.00  0.00    -0.490 OA
BRANCH  12  14
ATOM     14  O   LIG    1       17.286   4.633   1.039  0.00  0.00    -0.350 OA
BRANCH  14  16
ATOM     15  C   LIG    1       19.270   5.124   2.362  0.00  0.00    +0.070 C 
ATOM     16  C   LIG    1       18.691   4.987   0.953  0.00  0.00    +0.200 C 
ENDBRANCH  14  16
ENDBRANCH  12  14
ENDBRANCH   4  12
ENDBRANCH   2   8
ENDBRANCH   1   2
BRANCH   1  17
ATOM     17  S   LIG    1        9.945   0.621  -0.083  0.00  0.00    +0.150 S 
BRANCH  17  18
ATOM     18  C   LIG    1        8.299   1.249  -0.065  0.00  0.00    +0.130 A 
ATOM     19  N   LIG    1        7.951   2.515  -0.055  0.00  0.00    -0.290 NA
ATOM     20  N   LIG    1        6.668   2.607  -0.049  0.00  0.00    -0.230 NA
ATOM     21  C   LIG    1        6.144   1.402  -0.045  0.00  0.00    +0.230 A 
ATOM     22  O   LIG    1        7.167   0.518  -0.059  0.00  0.00    -0.190 OA
BRANCH  21  23
ATOM     23  C   LIG    1        4.711   1.075  -0.034  0.00  0.00    -0.120 A 
ATOM     24  C   LIG    1        3.730   1.983  -0.021  0.00  0.00    +0.030 A 
ATOM     25  C   LIG    1        2.391   1.425  -0.013  0.00  0.00    -0.080 A 
ATOM     26  C   LIG    1        1.145   2.092   0.002  0.00  0.00    +0.080 A 
ATOM     27  C   LIG    1       -0.017   1.384   0.010  0.00  0.00    +0.030 A 
ATOM     28  C   LIG    1        0.002  -0.004   0.002  0.00  0.00    +0.060 A 
ATOM     29  C   LIG    1        1.200  -0.680  -0.013  0.00  0.00    +0.060 A 
ATOM     30  C   LIG    1        2.406   0.026  -0.020  0.00  0.00    -0.130 A 
ATOM     31 CL   LIG    1        4.033   3.692  -0.016  0.00  0.00    +0.000 Cl
ATOM     32  S   LIG    1        4.067  -0.555  -0.037  0.00  0.00    +0.190 S 
ENDBRANCH  21  23
ENDBRANCH  17  18
ENDBRANCH   1  17
TORSDOF 8
