REMARK  Name = ZINCkj00000GeQqy.0
REMARK                            x       y       z     vdW  Elec       q    Type
REMARK                         _______ _______ _______ _____ _____    ______ ____
ROOT
ATOM      1  N   LIG    1       -0.012   6.623   0.919  0.00  0.00    -0.500 N 
ATOM      2  H   LIG    1       -0.080   6.421   1.905  0.00  0.00    +0.440 HD
ATOM      3  H   LIG    1       -0.853   6.316   0.454  0.00  0.00    +0.430 HD
ENDROOT
BRANCH   1   4
ATOM      4  C   LIG    1        0.152   8.070   0.727  0.00  0.00    +0.280 C 
BRANCH   4   5
ATOM      5  C   LIG    1       -1.100   8.796   1.222  0.00  0.00    +0.080 C 
ATOM      6  C   LIG    1       -2.299   8.466   0.309  0.00  0.00    +0.040 C 
ATOM      7  C   LIG    1       -3.093   9.795   0.231  0.00  0.00    +0.030 C 
ATOM      8  C   LIG    1       -1.972  10.862   0.185  0.00  0.00    +0.020 C 
ATOM      9  C   LIG    1       -0.892  10.319   1.144  0.00  0.00    +0.010 C 
BRANCH   5  11
ATOM     10  C   LIG    1       -0.281   8.733   3.500  0.00  0.00    +0.200 C 
ATOM     11  N   LIG    1       -1.397   8.400   2.605  0.00  0.00    -0.550 NA
ATOM     12  C   LIG    1       -2.647   9.013   3.072  0.00  0.00    +0.220 C 
ENDBRANCH   5  11
ENDBRANCH   4   5
ENDBRANCH   1   4
BRANCH   1  13
ATOM     13  C   LIG    1        1.147   5.920   0.354  0.00  0.00    +0.280 C 
BRANCH  13  14
ATOM     14  C   LIG    1        0.976   4.412   0.555  0.00  0.00    -0.040 C 
ATOM     15  C   LIG    1       -0.237   3.926  -0.247  0.00  0.00    +0.280 C 
ATOM     16  N   LIG    1       -0.426   2.486   0.012  0.00  0.00    -0.730 N 
ATOM     17  H   LIG    1       -1.304   2.104   0.168  0.00  0.00    +0.430 HD
ATOM     18  C   LIG    1        0.733   1.705   0.022  0.00  0.00    +0.340 A 
ATOM     19  C   LIG    1        0.863   0.361   0.003  0.00  0.00    -0.160 A 
ATOM     20  C   LIG    1        2.233   0.068   0.016  0.00  0.00    +0.270 A 
ATOM     21  N   LIG    1        2.897   1.198   0.042  0.00  0.00    -0.290 NA
ATOM     22  N   LIG    1        1.978   2.247   0.048  0.00  0.00    -0.410 N 
ATOM     23  C   LIG    1        2.240   3.688   0.078  0.00  0.00    +0.350 C 
ENDBRANCH  13  14
ENDBRANCH   1  13
TORSDOF 5
