REMARK  Name = ZINCpe000000Zja3.0
REMARK                            x       y       z     vdW  Elec       q    Type
REMARK                         _______ _______ _______ _____ _____    ______ ____
ROOT
ATOM      1  C   LIG    1       -0.099   1.073  -2.413  0.00  0.00    +0.180 C 
ENDROOT
BRANCH   1   2
ATOM      2  C   LIG    1       -0.855   1.593  -3.608  0.00  0.00    -0.060 A 
ATOM      3  C   LIG    1       -2.236   1.650  -3.581  0.00  0.00    +0.050 A 
ATOM      4  C   LIG    1       -2.931   2.132  -4.675  0.00  0.00    +0.050 A 
ATOM      5  C   LIG    1       -2.246   2.546  -5.801  0.00  0.00    +0.000 A 
ATOM      6  C   LIG    1       -0.863   2.485  -5.832  0.00  0.00    +0.100 A 
ATOM      7  F   LIG    1       -0.192   2.890  -6.932  0.00  0.00    -0.140 F 
ATOM      8  C   LIG    1       -0.168   2.007  -4.734  0.00  0.00    -0.020 A 
ENDBRANCH   1   2
BRANCH   1   9
ATOM      9  N   LIG    1       -0.725   1.574  -1.182  0.00  0.00    -0.510 NA
ATOM     10  C   LIG    1       -0.013   1.086   0.008  0.00  0.00    +0.150 C 
ATOM     11  C   LIG    1       -0.731   1.580   1.266  0.00  0.00    +0.230 C 
ATOM     12  O   LIG    1       -0.815   3.008   1.231  0.00  0.00    -0.380 OA
ATOM     13  C   LIG    1       -1.503   3.517   0.086  0.00  0.00    +0.230 C 
ATOM     14  C   LIG    1       -0.792   3.042  -1.183  0.00  0.00    +0.160 C 
ENDBRANCH   1   9
BRANCH   1  16
ATOM     15  O   LIG    1       -0.914  -1.025  -1.705  0.00  0.00    -0.500 OA
ATOM     16  C   LIG    1       -0.129  -0.433  -2.415  0.00  0.00    +0.520 C 
ATOM     17  N   LIG    1        0.716  -1.123  -3.207  0.00  0.00    -0.720 N 
ATOM     18  H   LIG    1        1.343  -0.650  -3.775  0.00  0.00    +0.400 HD
BRANCH  17  19
ATOM     19  C   LIG    1        0.686  -2.588  -3.210  0.00  0.00    +0.270 C 
ATOM     20  C   LIG    1        1.544  -3.114  -2.063  0.00  0.00    +0.020 C 
ATOM     21  C   LIG    1        1.338  -4.614  -1.881  0.00  0.00    +0.070 C 
ATOM     22  C   LIG    1        1.955  -5.373  -3.058  0.00  0.00    -0.320 C 
ATOM     23  S   LIG    1        1.079  -4.915  -4.582  0.00  0.00    +2.430 S 
ATOM     24  O   LIG    1        1.812  -5.408  -5.694  0.00  0.00    -0.930 OA
ATOM     25  O   LIG    1       -0.292  -5.263  -4.441  0.00  0.00    -0.930 OA
ATOM     26  C   LIG    1        1.225  -3.104  -4.546  0.00  0.00    -0.350 C 
ENDBRANCH  17  19
ENDBRANCH   1  16
TORSDOF 4
