REMARK  Name = ZINCvU00000003Yd.0
REMARK                            x       y       z     vdW  Elec       q    Type
REMARK                         _______ _______ _______ _____ _____    ______ ____
ROOT
ATOM      1  C   LIG    1       -0.718   1.572   1.248  0.00  0.00    +0.540 C 
ATOM      2  N   LIG    1       -0.242   1.246   2.466  0.00  0.00    -0.600 N 
ATOM      3  C   LIG    1        0.962   0.412   2.607  0.00  0.00    +0.290 C 
ATOM      4  C   LIG    1        2.062   1.261   3.265  0.00  0.00    +0.120 C 
ATOM      5  C   LIG    1        1.472   2.009   4.441  0.00  0.00    -0.170 A 
ATOM      6  C   LIG    1        0.157   2.222   4.643  0.00  0.00    -0.110 A 
ATOM      7  C   LIG    1       -0.123   2.945   5.798  0.00  0.00    +0.020 A 
ATOM      8  C   LIG    1        0.931   3.308   6.521  0.00  0.00    -0.040 A 
ATOM      9  S   LIG    1        2.401   2.732   5.748  0.00  0.00    +0.110 S 
ATOM     10  C   LIG    1       -0.914   1.710   3.688  0.00  0.00    +0.420 C 
ATOM     11  O   LIG    1       -1.714   2.256   1.150  0.00  0.00    -0.510 OA
ENDROOT
BRANCH  10  12
ATOM     12  C   LIG    1       -1.661   0.566   4.324  0.00  0.00    -0.190 A 
ATOM     13  C   LIG    1       -2.869   0.653   4.885  0.00  0.00    +0.020 A 
ATOM     14  C   LIG    1       -3.357  -0.532   5.406  0.00  0.00    +0.010 A 
ATOM     15  C   LIG    1       -2.546  -1.583   5.269  0.00  0.00    -0.050 A 
ATOM     16  S   LIG    1       -1.078  -1.090   4.435  0.00  0.00    +0.110 S 
ENDBRANCH  10  12
BRANCH   1  17
ATOM     17  C   LIG    1       -0.013   1.086   0.008  0.00  0.00    +0.120 C 
BRANCH  17  18
ATOM     18  S   LIG    1       -0.888   1.685  -1.458  0.00  0.00    +0.080 S 
BRANCH  18  27
ATOM     19  N   LIG    1       -0.090   1.134  -4.066  0.00  0.00    -0.470 N 
ATOM     20  C   LIG    1        0.917   0.441  -4.717  0.00  0.00    +0.060 A 
ATOM     21  C   LIG    1        1.229   0.226  -6.051  0.00  0.00    +0.010 A 
ATOM     22  C   LIG    1        2.333  -0.532  -6.385  0.00  0.00    +0.030 A 
ATOM     23  C   LIG    1        3.134  -1.081  -5.395  0.00  0.00    +0.010 A 
ATOM     24  C   LIG    1        2.840  -0.877  -4.065  0.00  0.00    +0.060 A 
ATOM     25  C   LIG    1        1.726  -0.113  -3.710  0.00  0.00    +0.060 A 
ATOM     26  N   LIG    1        1.192   0.262  -2.518  0.00  0.00    -0.490 NA
ATOM     27  C   LIG    1        0.122   0.990  -2.724  0.00  0.00    +0.250 A 
BRANCH  19  28
ATOM     28  C   LIG    1       -1.179   1.882  -4.698  0.00  0.00    +0.330 C 
BRANCH  28  29
ATOM     29  C   LIG    1       -0.741   3.332  -4.919  0.00  0.00    +0.170 C 
BRANCH  29  31
ATOM     30  C   LIG    1       -1.496   5.434  -5.787  0.00  0.00    +0.210 C 
ATOM     31  O   LIG    1       -1.804   4.061  -5.536  0.00  0.00    -0.390 OA
ENDBRANCH  29  31
ENDBRANCH  28  29
ENDBRANCH  19  28
ENDBRANCH  18  27
ENDBRANCH  17  18
ENDBRANCH   1  17
TORSDOF 7
