REMARK  Name = ZINCrD000000AI1b.0
REMARK                            x       y       z     vdW  Elec       q    Type
REMARK                         _______ _______ _______ _____ _____    ______ ____
ROOT
ATOM      1  O   LIG    1        1.066  -0.599  -0.011  0.00  0.00    -0.600 OA
ATOM      2  C   LIG    1        0.002  -0.004   0.002  0.00  0.00    +0.530 C 
ENDROOT
BRANCH   2   3
ATOM      3  C   LIG    1       -1.269  -0.761   0.010  0.00  0.00    -0.110 A 
ATOM      4  C   LIG    1       -2.488  -0.079   0.025  0.00  0.00    +0.110 A 
ATOM      5  C   LIG    1       -3.674  -0.781   0.033  0.00  0.00    +0.020 A 
ATOM      6  C   LIG    1       -3.659  -2.170   0.025  0.00  0.00    +0.120 A 
ATOM      7  C   LIG    1       -2.441  -2.858   0.010  0.00  0.00    +0.070 A 
ATOM      8  N   LIG    1       -2.748  -4.218   0.006  0.00  0.00    -0.640 N 
ATOM      9  H   LIG    1       -2.107  -4.945  -0.004  0.00  0.00    +0.440 HD
ATOM     10  C   LIG    1       -4.088  -4.348   0.019  0.00  0.00    +0.680 A 
ATOM     11  O   LIG    1       -4.689  -5.406   0.019  0.00  0.00    -0.550 OA
ATOM     12  N   LIG    1       -4.663  -3.131   0.030  0.00  0.00    -0.510 N 
ATOM     13  C   LIG    1       -1.250  -2.156  -0.003  0.00  0.00    +0.090 A 
BRANCH  12  14
ATOM     14  C   LIG    1       -6.103  -2.864   0.046  0.00  0.00    +0.210 C 
ATOM     15  C   LIG    1       -7.040  -4.055   0.256  0.00  0.00    +0.060 C 
ATOM     16  C   LIG    1       -6.934  -3.398  -1.122  0.00  0.00    +0.030 C 
ENDBRANCH  12  14
ENDBRANCH   2   3
BRANCH   2  17
ATOM     17  N   LIG    1       -0.016   1.333   0.009  0.00  0.00    -0.640 NA
ATOM     18  C   LIG    1        1.128   2.014   0.002  0.00  0.00    +0.480 A 
ATOM     19  C   LIG    1        1.261   3.413   0.003  0.00  0.00    -0.070 A 
ATOM     20  C   LIG    1        2.592   3.715  -0.002  0.00  0.00    +0.230 A 
ATOM     21  N   LIG    1        3.306   2.541  -0.016  0.00  0.00    -0.490 N 
ATOM     22  H   LIG    1        4.272   2.462  -0.026  0.00  0.00    +0.450 HD
ATOM     23  N   LIG    1        2.394   1.476  -0.013  0.00  0.00    -0.480 N 
ATOM     24  H   LIG    1        2.615   0.532  -0.021  0.00  0.00    +0.460 HD
BRANCH  20  25
ATOM     25  C   LIG    1        3.169   5.074  -0.000  0.00  0.00    -0.060 A 
ATOM     26  C   LIG    1        2.331   6.192   0.008  0.00  0.00    +0.070 A 
ATOM     27  C   LIG    1        2.876   7.459   0.016  0.00  0.00    +0.010 A 
ATOM     28  C   LIG    1        4.250   7.624   0.004  0.00  0.00    +0.030 A 
ATOM     29  C   LIG    1        5.086   6.521  -0.010  0.00  0.00    +0.010 A 
ATOM     30  C   LIG    1        4.555   5.249  -0.012  0.00  0.00    +0.020 A 
ENDBRANCH  20  25
ENDBRANCH   2  17
TORSDOF 4
