REMARK  Name = ZINCvU0000000Iqm.0
REMARK                            x       y       z     vdW  Elec       q    Type
REMARK                         _______ _______ _______ _____ _____    ______ ____
ROOT
ATOM      1  C   LIG    1       -0.018  -5.471   0.554  0.00  0.00    +0.110 C 
ENDROOT
BRANCH   1   2
ATOM      2  C   LIG    1       -0.631  -6.421  -0.443  0.00  0.00    +0.450 C 
ATOM      3  O   LIG    1       -0.863  -6.046  -1.573  0.00  0.00    -0.460 OA
BRANCH   2   4
ATOM      4  C   LIG    1       -0.946  -7.795  -0.047  0.00  0.00    -0.270 A 
ATOM      5  C   LIG    1       -1.507  -8.781  -0.837  0.00  0.00    +0.140 A 
ATOM      6  N   LIG    1       -1.631  -9.894  -0.092  0.00  0.00    -0.430 N 
ATOM      7  C   LIG    1       -1.167  -9.676   1.173  0.00  0.00    +0.000 A 
ATOM      8  C   LIG    1       -1.146 -10.694   2.283  0.00  0.00    +0.120 C 
ATOM      9  C   LIG    1       -1.909  -8.635  -2.282  0.00  0.00    +0.150 C 
ATOM     10  C   LIG    1       -0.726  -8.410   1.268  0.00  0.00    +0.000 A 
BRANCH   6  11
ATOM     11  C   LIG    1       -2.184 -11.163  -0.572  0.00  0.00    +0.310 C 
BRANCH  11  12
ATOM     12  C   LIG    1       -1.059 -12.025  -1.149  0.00  0.00    +0.150 C 
ATOM     13  C   LIG    1       -1.609 -13.408  -1.579  0.00  0.00    +0.020 C 
ATOM     14  C   LIG    1       -0.566 -13.815  -2.658  0.00  0.00    +0.020 C 
ATOM     15  C   LIG    1       -0.203 -12.456  -3.294  0.00  0.00    +0.190 C 
ATOM     16  O   LIG    1       -0.544 -11.433  -2.352  0.00  0.00    -0.370 OA
ENDBRANCH  11  12
ENDBRANCH   6  11
ENDBRANCH   2   4
ENDBRANCH   1   2
BRANCH   1  17
ATOM     17  S   LIG    1        0.252  -3.863  -0.230  0.00  0.00    +0.050 S 
BRANCH  17  19
ATOM     18  N   LIG    1        1.367  -1.676   1.111  0.00  0.00    -0.460 N 
ATOM     19  C   LIG    1        0.955  -2.977   1.121  0.00  0.00    +0.140 A 
ATOM     20  N   LIG    1        1.181  -3.443   2.327  0.00  0.00    -0.290 NA
ATOM     21  N   LIG    1        1.701  -2.525   3.060  0.00  0.00    -0.280 NA
ATOM     22  C   LIG    1        1.843  -1.429   2.370  0.00  0.00    +0.190 A 
BRANCH  22  23
ATOM     23  C   LIG    1        2.420  -0.129   2.867  0.00  0.00    +0.090 C 
ATOM     24  C   LIG    1        3.862  -0.354   3.327  0.00  0.00    +0.030 C 
ATOM     25  C   LIG    1        4.449   0.966   3.831  0.00  0.00    +0.010 C 
ATOM     26  C   LIG    1        3.614   1.479   5.006  0.00  0.00    +0.010 C 
ATOM     27  C   LIG    1        2.172   1.704   4.547  0.00  0.00    +0.010 C 
ATOM     28  C   LIG    1        1.585   0.384   4.042  0.00  0.00    +0.030 C 
ENDBRANCH  22  23
BRANCH  18  29
ATOM     29  C   LIG    1        1.317  -0.740  -0.015  0.00  0.00    +0.340 C 
BRANCH  29  31
ATOM     30  C   LIG    1       -0.016   1.306   0.009  0.00  0.00    +0.060 C 
ATOM     31  C   LIG    1        0.002  -0.004   0.002  0.00  0.00    -0.060 C 
ENDBRANCH  29  31
ENDBRANCH  18  29
ENDBRANCH  17  19
ENDBRANCH   1  17
TORSDOF 9
