REMARK  Name = ZINCpk00000e9jUL.0
REMARK                            x       y       z     vdW  Elec       q    Type
REMARK                         _______ _______ _______ _____ _____    ______ ____
ROOT
ATOM      1  N   LIG    1        2.125   0.070   1.217  0.00  0.00    -0.530 NA
ATOM      2  C   LIG    1        0.772  -0.505   1.227  0.00  0.00    +0.150 C 
ATOM      3  C   LIG    1        0.002  -0.004   0.002  0.00  0.00    +0.220 C 
ATOM      4  O   LIG    1       -0.017   1.426   0.010  0.00  0.00    -0.380 OA
ATOM      5  C   LIG    1        1.284   2.019   0.001  0.00  0.00    +0.170 C 
ATOM      6  C   LIG    1        2.067   1.539   1.225  0.00  0.00    +0.200 C 
ENDROOT
BRANCH   6   7
ATOM      7  C   LIG    1        3.466   2.098   1.181  0.00  0.00    -0.230 A 
ATOM      8  C   LIG    1        3.916   3.172   1.869  0.00  0.00    +0.230 A 
ATOM      9  N   LIG    1        5.217   3.345   1.558  0.00  0.00    -0.370 N 
ATOM     10  N   LIG    1        5.577   2.349   0.641  0.00  0.00    -0.300 NA
ATOM     11  C   LIG    1        6.098   4.392   2.082  0.00  0.00    +0.360 C 
ATOM     12  C   LIG    1        4.526   1.602   0.415  0.00  0.00    +0.250 A 
ENDBRANCH   6   7
BRANCH   1  14
ATOM     13  C   LIG    1        2.315   0.077   3.659  0.00  0.00    -0.010 C 
ATOM     14  C   LIG    1        2.918  -0.432   2.348  0.00  0.00    +0.210 C 
ENDBRANCH   1  14
BRANCH   5  15
ATOM     15  C   LIG    1        1.151   3.543   0.045  0.00  0.00    +0.300 C 
BRANCH  15  16
ATOM     16  N   LIG    1        0.397   4.002  -1.124  0.00  0.00    -0.690 N 
ATOM     17  H   LIG    1        0.072   3.359  -1.774  0.00  0.00    +0.420 HD
BRANCH  16  18
ATOM     18  C   LIG    1        0.148   5.352  -1.301  0.00  0.00    +0.610 A 
ATOM     19  N   LIG    1        0.600   6.215  -0.404  0.00  0.00    -0.630 NA
ATOM     20  C   LIG    1        0.378   7.516  -0.545  0.00  0.00    +0.400 A 
ATOM     21  C   LIG    1       -0.338   7.965  -1.654  0.00  0.00    -0.160 A 
ATOM     22  C   LIG    1       -0.791   7.032  -2.568  0.00  0.00    +0.240 A 
ATOM     23  C   LIG    1       -1.569   7.471  -3.782  0.00  0.00    +0.140 C 
ATOM     24  N   LIG    1       -0.530   5.749  -2.368  0.00  0.00    -0.590 NA
BRANCH  20  25
ATOM     25  O   LIG    1        0.841   8.396   0.376  0.00  0.00    -0.300 OA
ATOM     26  C   LIG    1        1.565   7.855   1.483  0.00  0.00    +0.260 C 
ENDBRANCH  20  25
ENDBRANCH  16  18
ENDBRANCH  15  16
ENDBRANCH   5  15
TORSDOF 6
