REMARK  Name = ZINCrg000000pjdF.0
REMARK                            x       y       z     vdW  Elec       q    Type
REMARK                         _______ _______ _______ _____ _____    ______ ____
ROOT
ATOM      1  N   LIG    1       -2.592   7.991  -2.540  0.00  0.00    -0.670 N 
ATOM      2  H   LIG    1       -2.637   7.503  -3.377  0.00  0.00    +0.420 HD
ATOM      3  C   LIG    1       -2.394   7.328  -1.383  0.00  0.00    +0.520 C 
ATOM      4  O   LIG    1       -2.242   7.945  -0.350  0.00  0.00    -0.510 OA
ENDROOT
BRANCH   1   8
ATOM      5  C   LIG    1       -3.015  12.135  -2.521  0.00  0.00    -0.150 A 
ATOM      6  C   LIG    1       -2.398  11.499  -3.602  0.00  0.00    +0.100 A 
ATOM      7  C   LIG    1       -2.260  10.129  -3.605  0.00  0.00    -0.010 A 
ATOM      8  C   LIG    1       -2.734   9.378  -2.534  0.00  0.00    +0.170 A 
ATOM      9  C   LIG    1       -3.353  10.008  -1.459  0.00  0.00    +0.010 A 
ATOM     10  C   LIG    1       -3.490  11.378  -1.447  0.00  0.00    +0.070 A 
BRANCH   5  14
ATOM     11  C   LIG    1       -3.911  15.672  -1.466  0.00  0.00    +0.290 C 
ATOM     12  N   LIG    1       -3.761  14.215  -1.472  0.00  0.00    -0.730 N 
ATOM     13  H   LIG    1       -4.091  13.691  -0.726  0.00  0.00    +0.400 HD
ATOM     14  C   LIG    1       -3.166  13.603  -2.515  0.00  0.00    +0.560 C 
ATOM     15  O   LIG    1       -2.753  14.261  -3.451  0.00  0.00    -0.540 OA
ENDBRANCH   5  14
ENDBRANCH   1   8
BRANCH   3  16
ATOM     16  C   LIG    1       -2.360   5.822  -1.374  0.00  0.00    +0.060 C 
BRANCH  16  17
ATOM     17  C   LIG    1       -2.122   5.326   0.053  0.00  0.00    +0.350 C 
BRANCH  17  18
ATOM     18  N   LIG    1       -2.089   3.861   0.062  0.00  0.00    -0.540 N 
ATOM     19  C   LIG    1       -3.230   3.171   0.233  0.00  0.00    +0.710 A 
ATOM     20  N   LIG    1       -3.272   1.829   0.252  0.00  0.00    -0.660 N 
ATOM     21  H   LIG    1       -4.122   1.382   0.388  0.00  0.00    +0.430 HD
ATOM     22  C   LIG    1       -2.154   1.090   0.087  0.00  0.00    +0.570 A 
ATOM     23  C   LIG    1       -0.875   1.794  -0.117  0.00  0.00    -0.200 A 
ATOM     24  C   LIG    1        0.321   1.103  -0.295  0.00  0.00    +0.140 A 
ATOM     25  C   LIG    1        1.490   1.808  -0.489  0.00  0.00    -0.010 A 
ATOM     26  C   LIG    1        1.480   3.195  -0.501  0.00  0.00    +0.100 A 
ATOM     27  C   LIG    1        0.301   3.891  -0.320  0.00  0.00    -0.030 A 
ATOM     28  O   LIG    1       -2.201  -0.125   0.105  0.00  0.00    -0.490 OA
ATOM     29  O   LIG    1       -4.266   3.788   0.386  0.00  0.00    -0.540 OA
ATOM     30  C   LIG    1       -0.884   3.200  -0.123  0.00  0.00    +0.200 A 
ENDBRANCH  17  18
ENDBRANCH  16  17
ENDBRANCH   3  16
TORSDOF 5
