REMARK  Name = ZINCpe00000FUg0K.0
REMARK                            x       y       z     vdW  Elec       q    Type
REMARK                         _______ _______ _______ _____ _____    ______ ____
ROOT
ATOM      1  C   LIG    1       -4.172   4.726   4.949  0.00  0.00    -0.040 A 
ATOM      2  C   LIG    1       -3.175   3.759   4.950  0.00  0.00    +0.100 A 
ATOM      3  C   LIG    1       -2.196   3.777   3.976  0.00  0.00    +0.190 A 
ATOM      4  C   LIG    1       -2.208   4.757   3.001  0.00  0.00    -0.660 A 
ATOM      5  C   LIG    1       -3.196   5.725   3.000  0.00  0.00    +0.210 A 
ATOM      6  C   LIG    1       -4.181   5.709   3.967  0.00  0.00    -0.010 A 
ENDROOT
BRANCH   4   7
ATOM      7  S   LIG    1       -0.957   4.777   1.760  0.00  0.00    +2.690 S 
ATOM      8  O   LIG    1       -0.886   6.113   1.283  0.00  0.00    -0.930 OA
ATOM      9  O   LIG    1        0.159   4.086   2.305  0.00  0.00    -0.930 OA
BRANCH   7  10
ATOM     10  N   LIG    1       -1.505   3.857   0.496  0.00  0.00    -1.000 NA
ATOM     11  C   LIG    1       -1.226   2.413   0.435  0.00  0.00    +0.270 C 
ATOM     12  C   LIG    1       -0.647   2.092  -0.948  0.00  0.00    +0.220 C 
ATOM     13  O   LIG    1       -1.515   2.616  -1.956  0.00  0.00    -0.380 OA
ATOM     14  C   LIG    1       -1.652   4.039  -1.929  0.00  0.00    +0.220 C 
ATOM     15  C   LIG    1       -2.283   4.460  -0.597  0.00  0.00    +0.270 C 
ENDBRANCH   7  10
ENDBRANCH   4   7
BRANCH   6  16
ATOM     16  N   LIG    1       -5.241   6.742   3.962  0.00  0.00    +0.020 N 
ATOM     17  O   LIG    1       -6.107   6.730   4.818  0.00  0.00    -0.130 OA
ATOM     18  O   LIG    1       -5.248   7.604   3.101  0.00  0.00    -0.150 OA
ENDBRANCH   6  16
BRANCH   1  19
ATOM     19  S   LIG    1       -5.423   4.707   6.191  0.00  0.00    +0.170 S 
BRANCH  19  25
ATOM     20  C   LIG    1       -6.773   6.098   8.870  0.00  0.00    +0.360 C 
ATOM     21  N   LIG    1       -5.480   6.517   8.324  0.00  0.00    -0.460 N 
ATOM     22  C   LIG    1       -4.660   7.500   8.805  0.00  0.00    +0.400 A 
ATOM     23  N   LIG    1       -3.615   7.548   8.028  0.00  0.00    -0.280 NA
ATOM     24  N   LIG    1       -3.715   6.666   7.099  0.00  0.00    -0.290 NA
ATOM     25  C   LIG    1       -4.843   6.007   7.229  0.00  0.00    +0.140 A 
ENDBRANCH  19  25
ENDBRANCH   1  19
TORSDOF 5
