REMARK  Name = ZINCpe00000yhdI9.0
REMARK                            x       y       z     vdW  Elec       q    Type
REMARK                         _______ _______ _______ _____ _____    ______ ____
ROOT
ATOM      1  C   LIG    1       -8.684  -1.677  -2.400  0.00  0.00    +0.510 C 
ATOM      2  N   LIG    1       -8.056  -0.997  -1.421  0.00  0.00    -0.580 N 
ATOM      3  C   LIG    1       -6.625  -0.682  -1.528  0.00  0.00    +0.270 C 
ATOM      4  C   LIG    1       -5.910  -1.220  -0.287  0.00  0.00    +0.270 C 
ATOM      5  N   LIG    1       -6.644  -0.784   0.910  0.00  0.00    -0.610 N 
ATOM      6  C   LIG    1       -8.075  -1.099   1.017  0.00  0.00    +0.250 C 
ATOM      7  C   LIG    1       -8.263  -2.616   1.096  0.00  0.00    +0.030 C 
ATOM      8  C   LIG    1       -6.016  -0.104   1.889  0.00  0.00    +0.570 C 
ATOM      9  O   LIG    1       -6.615   0.192   2.905  0.00  0.00    -0.530 OA
ATOM     10  C   LIG    1       -8.791  -0.556  -0.226  0.00  0.00    +0.290 C 
ATOM     11  O   LIG    1       -9.884  -1.849  -2.346  0.00  0.00    -0.520 OA
ENDROOT
BRANCH   8  12
ATOM     12  C   LIG    1       -4.600   0.283   1.729  0.00  0.00    -0.160 A 
ATOM     13  C   LIG    1       -3.670  -0.646   1.256  0.00  0.00    +0.070 A 
ATOM     14  C   LIG    1       -2.350  -0.282   1.109  0.00  0.00    -0.070 A 
ATOM     15  C   LIG    1       -1.943   1.008   1.429  0.00  0.00    +0.150 A 
ATOM     16  C   LIG    1       -2.865   1.933   1.904  0.00  0.00    -0.120 A 
ATOM     17  C   LIG    1       -2.417   3.329   2.256  0.00  0.00    +0.100 C 
ATOM     18  C   LIG    1       -4.187   1.579   2.049  0.00  0.00    +0.110 A 
BRANCH  15  19
ATOM     19  O   LIG    1       -0.641   1.363   1.282  0.00  0.00    -0.310 OA
ATOM     20  C   LIG    1        0.253   0.361   0.794  0.00  0.00    +0.240 C 
ENDBRANCH  15  19
ENDBRANCH   8  12
BRANCH   1  23
ATOM     21  N   LIG    1       -8.508  -2.998  -4.471  0.00  0.00    -0.690 N 
ATOM     22  H   LIG    1       -9.451  -3.208  -4.383  0.00  0.00    +0.420 HD
ATOM     23  C   LIG    1       -7.903  -2.218  -3.553  0.00  0.00    +0.510 C 
ATOM     24  O   LIG    1       -6.723  -1.956  -3.663  0.00  0.00    -0.510 OA
BRANCH  21  26
ATOM     25  C   LIG    1       -8.659  -4.376  -6.486  0.00  0.00    +0.050 C 
ATOM     26  C   LIG    1       -7.742  -3.529  -5.601  0.00  0.00    +0.270 C 
ENDBRANCH  21  26
ENDBRANCH   1  23
TORSDOF 4
