REMARK  Name = ZINCrH00000No51H.0
REMARK                            x       y       z     vdW  Elec       q    Type
REMARK                         _______ _______ _______ _____ _____    ______ ____
ROOT
ATOM      1  N   LIG    1        9.795   1.170   0.010  0.00  0.00    -0.720 N 
ATOM      2  H   LIG    1        9.546   2.104   0.085  0.00  0.00    +0.400 HD
ATOM      3  C   LIG    1        8.859   0.210   0.148  0.00  0.00    +0.550 C 
ATOM      4  O   LIG    1        9.172  -0.963   0.054  0.00  0.00    -0.540 OA
ENDROOT
BRANCH   1   5
ATOM      5  C   LIG    1       11.188   0.802  -0.252  0.00  0.00    +0.300 C 
ATOM      6  C   LIG    1       11.420   0.724  -1.762  0.00  0.00    +0.040 C 
BRANCH   5  12
ATOM      7  C   LIG    1       13.391   1.496   0.726  0.00  0.00    +0.140 A 
ATOM      8  C   LIG    1       14.230   2.455   1.273  0.00  0.00    -0.070 A 
ATOM      9  C   LIG    1       13.782   3.752   1.435  0.00  0.00    +0.050 A 
ATOM     10  C   LIG    1       12.498   4.094   1.053  0.00  0.00    -0.020 A 
ATOM     11  C   LIG    1       11.661   3.141   0.502  0.00  0.00    +0.050 A 
ATOM     12  C   LIG    1       12.103   1.842   0.343  0.00  0.00    -0.120 A 
BRANCH   7  14
ATOM     13  C   LIG    1       15.167  -0.064   0.982  0.00  0.00    +0.250 C 
ATOM     14  O   LIG    1       13.829   0.220   0.565  0.00  0.00    -0.310 OA
ENDBRANCH   7  14
ENDBRANCH   5  12
ENDBRANCH   1   5
BRANCH   3  15
ATOM     15  C   LIG    1        7.468   0.577   0.409  0.00  0.00    -0.100 C 
ATOM     16  C   LIG    1        6.530  -0.385   0.547  0.00  0.00    +0.140 C 
BRANCH  16  17
ATOM     17  C   LIG    1        5.132  -0.016   0.810  0.00  0.00    -0.110 A 
ATOM     18  C   LIG    1        4.158  -1.011   0.953  0.00  0.00    +0.070 A 
ATOM     19  C   LIG    1        2.850  -0.661   1.199  0.00  0.00    +0.000 A 
ATOM     20  C   LIG    1        2.495   0.680   1.305  0.00  0.00    +0.180 A 
ATOM     21  C   LIG    1        3.459   1.673   1.159  0.00  0.00    -0.030 A 
ATOM     22  C   LIG    1        4.770   1.332   0.918  0.00  0.00    +0.060 A 
BRANCH  20  23
ATOM     23  N   LIG    1        1.168   1.030   1.554  0.00  0.00    -0.560 N 
ATOM     24  C   LIG    1        0.706   2.401   1.805  0.00  0.00    +0.260 C 
ATOM     25  C   LIG    1       -0.693   2.254   2.444  0.00  0.00    +0.060 C 
ATOM     26  C   LIG    1       -1.147   0.880   1.893  0.00  0.00    +0.070 C 
ATOM     27  C   LIG    1        0.148   0.156   1.595  0.00  0.00    +0.510 C 
ATOM     28  O   LIG    1        0.249  -1.039   1.415  0.00  0.00    -0.500 OA
ENDBRANCH  20  23
ENDBRANCH  16  17
ENDBRANCH   3  15
TORSDOF 6
