REMARK  Name = ZINCvU00000009OK.0
REMARK                            x       y       z     vdW  Elec       q    Type
REMARK                         _______ _______ _______ _____ _____    ______ ____
ROOT
ATOM      1  C   LIG    1        2.108   5.796  -3.191  0.00  0.00    +0.220 C 
ENDROOT
BRANCH   1   5
ATOM      2  C   LIG    1        1.038   5.273   0.273  0.00  0.00    +0.110 A 
ATOM      3  C   LIG    1        0.949   6.597   0.508  0.00  0.00    -0.060 A 
ATOM      4  S   LIG    1        1.399   7.441  -0.972  0.00  0.00    +0.220 S 
ATOM      5  C   LIG    1        1.661   5.947  -1.759  0.00  0.00    +0.020 A 
ATOM      6  N   LIG    1        1.429   4.967  -0.956  0.00  0.00    -0.440 NA
BRANCH   2  10
ATOM      7  C   LIG    1        0.158   2.337   3.227  0.00  0.00    +0.110 A 
ATOM      8  C   LIG    1       -0.052   3.679   3.500  0.00  0.00    -0.030 A 
ATOM      9  C   LIG    1        0.232   4.633   2.543  0.00  0.00    +0.030 A 
ATOM     10  C   LIG    1        0.732   4.248   1.301  0.00  0.00    -0.020 A 
ATOM     11  C   LIG    1        0.949   2.898   1.028  0.00  0.00    +0.010 A 
ATOM     12  C   LIG    1        0.657   1.946   1.987  0.00  0.00    +0.100 A 
BRANCH   7  14
ATOM     13  C   LIG    1       -0.634   1.871   5.421  0.00  0.00    +0.240 C 
ATOM     14  O   LIG    1       -0.124   1.400   4.172  0.00  0.00    -0.300 OA
ENDBRANCH   7  14
BRANCH  12  15
ATOM     15  O   LIG    1        0.864   0.628   1.722  0.00  0.00    -0.310 OA
ATOM     16  C   LIG    1        1.378   0.299   0.430  0.00  0.00    +0.240 C 
ENDBRANCH  12  15
ENDBRANCH   2  10
ENDBRANCH   1   5
BRANCH   1  17
ATOM     17  C   LIG    1        3.445   6.468  -3.372  0.00  0.00    +0.410 C 
ATOM     18  O   LIG    1        3.777   7.368  -2.631  0.00  0.00    -0.410 OA
BRANCH  17  19
ATOM     19  C   LIG    1        4.347   6.031  -4.449  0.00  0.00    -0.180 A 
ATOM     20  C   LIG    1        5.518   6.735  -4.696  0.00  0.00    +0.020 A 
ATOM     21  C   LIG    1        6.375   6.308  -5.720  0.00  0.00    -0.070 A 
ATOM     22  C   LIG    1        7.573   6.991  -5.996  0.00  0.00    +0.040 A 
ATOM     23  C   LIG    1        8.382   6.555  -7.000  0.00  0.00    +0.010 A 
ATOM     24  C   LIG    1        8.040   5.439  -7.761  0.00  0.00    +0.030 A 
ATOM     25  C   LIG    1        6.888   4.753  -7.523  0.00  0.00    +0.010 A 
ATOM     26  C   LIG    1        6.028   5.172  -6.495  0.00  0.00    -0.020 A 
ATOM     27  C   LIG    1        4.830   4.483  -6.224  0.00  0.00    +0.020 A 
ATOM     28  C   LIG    1        5.867   7.944  -3.866  0.00  0.00    +0.130 C 
ATOM     29  C   LIG    1        4.014   4.904  -5.227  0.00  0.00    +0.050 A 
ENDBRANCH  17  19
ENDBRANCH   1  17
BRANCH   1  30
ATOM     30  C   LIG    1        1.119   6.424  -4.082  0.00  0.00    +0.200 C 
ATOM     31  N   LIG    1        0.355   6.908  -4.770  0.00  0.00    -0.370 NA
ENDBRANCH   1  30
TORSDOF 7
