REMARK  Name = ZINCrm000010lFJS.0
REMARK                            x       y       z     vdW  Elec       q    Type
REMARK                         _______ _______ _______ _____ _____    ______ ____
ROOT
ATOM      1  C   LIG    1        3.635   1.970  -0.559  0.00  0.00    +0.140 C 
ATOM      2  C   LIG    1        2.326   1.282  -0.270  0.00  0.00    -0.160 A 
ATOM      3  C   LIG    1        1.151   2.004  -0.194  0.00  0.00    +0.380 A 
ATOM      4  N   LIG    1        0.016   1.370   0.063  0.00  0.00    -0.540 NA
ATOM      5  C   LIG    1       -0.004   0.058   0.247  0.00  0.00    +0.490 A 
ATOM      6  N   LIG    1        1.100  -0.670   0.182  0.00  0.00    -0.550 NA
ATOM      7  C   LIG    1        2.273  -0.099  -0.071  0.00  0.00    +0.350 A 
ENDROOT
BRANCH   5   8
ATOM      8  N   LIG    1       -1.210  -0.567   0.512  0.00  0.00    -0.460 N 
ATOM      9  C   LIG    1       -1.479  -1.630  -0.466  0.00  0.00    +0.250 C 
ATOM     10  C   LIG    1       -2.788  -2.334  -0.103  0.00  0.00    +0.300 C 
ATOM     11  N   LIG    1       -3.886  -1.357  -0.102  0.00  0.00    -0.520 N 
ATOM     12  C   LIG    1       -3.615  -0.315   0.897  0.00  0.00    +0.190 C 
ATOM     13  H   LIG    1       -3.961  -0.935  -1.016  0.00  0.00    +0.430 HD
ATOM     14  H   LIG    1       -4.751  -1.824   0.125  0.00  0.00    +0.440 HD
ATOM     15  C   LIG    1       -2.312   0.406   0.542  0.00  0.00    +0.280 C 
BRANCH  12  16
ATOM     16  C   LIG    1       -4.767   0.691   0.910  0.00  0.00    +0.070 C 
BRANCH  16  17
ATOM     17  C   LIG    1       -6.045  -0.003   1.385  0.00  0.00    +0.380 C 
ATOM     18  F   LIG    1       -6.418  -0.981   0.456  0.00  0.00    -0.210 F 
ATOM     19  F   LIG    1       -7.071   0.941   1.505  0.00  0.00    -0.170 F 
ENDBRANCH  16  17
ENDBRANCH  12  16
ENDBRANCH   5   8
BRANCH   7  20
ATOM     20  N   LIG    1        3.427  -0.864  -0.138  0.00  0.00    -0.480 N 
ATOM     21  C   LIG    1        4.016  -1.045   1.196  0.00  0.00    +0.240 C 
ATOM     22  C   LIG    1        5.316  -1.842   1.072  0.00  0.00    +0.300 C 
ATOM     23  N   LIG    1        5.035  -3.147   0.460  0.00  0.00    -0.520 N 
ATOM     24  C   LIG    1        4.470  -2.950  -0.881  0.00  0.00    +0.190 C 
ATOM     25  H   LIG    1        5.891  -3.677   0.390  0.00  0.00    +0.440 HD
ATOM     26  H   LIG    1        4.374  -3.651   1.032  0.00  0.00    +0.430 HD
ATOM     27  C   LIG    1        3.162  -2.162  -0.773  0.00  0.00    +0.260 C 
BRANCH  24  28
ATOM     28  C   LIG    1        4.194  -4.310  -1.524  0.00  0.00    +0.070 C 
BRANCH  28  29
ATOM     29  C   LIG    1        5.517  -5.047  -1.746  0.00  0.00    +0.380 C 
ATOM     30  F   LIG    1        5.277  -6.239  -2.437  0.00  0.00    -0.180 F 
ATOM     31  F   LIG    1        6.104  -5.334  -0.509  0.00  0.00    -0.210 F 
ENDBRANCH  28  29
ENDBRANCH  24  28
ENDBRANCH   7  20
TORSDOF 6
