REMARK  Name = ZINCrH00000kpMTg.0
REMARK                            x       y       z     vdW  Elec       q    Type
REMARK                         _______ _______ _______ _____ _____    ______ ____
ROOT
ATOM      1  C   LIG    1       -0.718   1.572   1.248  0.00  0.00    +0.520 C 
ATOM      2  N   LIG    1       -0.242   1.246   2.466  0.00  0.00    -0.610 N 
ATOM      3  O   LIG    1       -1.714   2.256   1.150  0.00  0.00    -0.510 OA
ENDROOT
BRANCH   2   4
ATOM      4  C   LIG    1        0.962   0.419   2.584  0.00  0.00    +0.230 C 
ATOM      5  C   LIG    1        0.626  -0.865   3.346  0.00  0.00    +0.030 C 
ATOM      6  C   LIG    1        2.041   1.195   3.343  0.00  0.00    +0.030 C 
ENDBRANCH   2   4
BRANCH   1   7
ATOM      7  C   LIG    1       -0.013   1.086   0.008  0.00  0.00    +0.120 C 
BRANCH   7  11
ATOM      8  C   LIG    1       -2.079   2.501  -3.454  0.00  0.00    +0.130 A 
ATOM      9  C   LIG    1       -1.063   3.261  -2.893  0.00  0.00    -0.020 A 
ATOM     10  C   LIG    1       -0.397   2.801  -1.773  0.00  0.00    +0.070 A 
ATOM     11  C   LIG    1       -0.742   1.585  -1.213  0.00  0.00    -0.110 A 
ATOM     12  C   LIG    1       -1.750   0.824  -1.774  0.00  0.00    +0.060 A 
ATOM     13  C   LIG    1       -2.423   1.282  -2.890  0.00  0.00    -0.080 A 
BRANCH   8  15
ATOM     14  C   LIG    1       -3.771   2.116  -5.080  0.00  0.00    +0.250 C 
ATOM     15  O   LIG    1       -2.736   2.951  -4.556  0.00  0.00    -0.320 OA
ENDBRANCH   8  15
ENDBRANCH   7  11
ENDBRANCH   1   7
BRANCH   2  16
ATOM     16  C   LIG    1       -0.927   1.718   3.671  0.00  0.00    +0.460 C 
BRANCH  16  17
ATOM     17  C   LIG    1       -1.967   0.709   4.086  0.00  0.00    +0.150 A 
ATOM     18  N   LIG    1       -1.784  -0.296   4.896  0.00  0.00    -0.270 NA
ATOM     19  N   LIG    1       -2.885  -0.949   5.026  0.00  0.00    -0.280 NA
ATOM     20  C   LIG    1       -3.815  -0.379   4.297  0.00  0.00    +0.210 A 
ATOM     21  O   LIG    1       -3.252   0.686   3.692  0.00  0.00    -0.210 OA
BRANCH  20  22
ATOM     22  C   LIG    1       -5.221  -0.819   4.168  0.00  0.00    -0.030 A 
ATOM     23  C   LIG    1       -6.106  -0.108   3.356  0.00  0.00    +0.050 A 
ATOM     24  C   LIG    1       -7.415  -0.527   3.236  0.00  0.00    +0.010 A 
ATOM     25  C   LIG    1       -7.853  -1.643   3.926  0.00  0.00    +0.040 A 
ATOM     26  C   LIG    1       -6.982  -2.349   4.737  0.00  0.00    +0.020 A 
ATOM     27  C   LIG    1       -5.669  -1.944   4.861  0.00  0.00    +0.070 A 
ENDBRANCH  20  22
ENDBRANCH  16  17
ENDBRANCH   2  16
TORSDOF 7
