REMARK  Name = ZINCrH00000tj1aN.0
REMARK                            x       y       z     vdW  Elec       q    Type
REMARK                         _______ _______ _______ _____ _____    ______ ____
ROOT
ATOM      1  C   LIG    1       -0.018   1.503   0.010  0.00  0.00    +0.300 A 
ATOM      2  N   LIG    1       -1.179   2.113   0.019  0.00  0.00    -0.500 NA
ATOM      3  C   LIG    1       -1.243   3.453   0.032  0.00  0.00    +0.180 A 
ATOM      4  C   LIG    1       -2.466   4.138   0.046  0.00  0.00    +0.060 A 
ATOM      5  C   LIG    1       -2.473   5.501   0.052  0.00  0.00    +0.070 A 
ATOM      6  C   LIG    1       -1.285   6.225   0.045  0.00  0.00    +0.030 A 
ATOM      7  C   LIG    1       -0.077   5.590   0.031  0.00  0.00    +0.050 A 
ATOM      8  C   LIG    1       -0.035   4.192   0.024  0.00  0.00    -0.170 A 
ATOM      9  C   LIG    1        1.187   3.475   0.009  0.00  0.00    +0.490 A 
ATOM     10  N   LIG    1        1.136   2.150   0.003  0.00  0.00    -0.570 NA
ENDROOT
BRANCH   1  12
ATOM     11  F   LIG    1       -0.321  -0.482   1.277  0.00  0.00    -0.160 F 
ATOM     12  C   LIG    1        0.002  -0.004   0.002  0.00  0.00    +0.550 C 
ATOM     13  F   LIG    1        1.279  -0.451  -0.354  0.00  0.00    -0.160 F 
ATOM     14  F   LIG    1       -0.933  -0.478  -0.924  0.00  0.00    -0.160 F 
ENDBRANCH   1  12
BRANCH   9  15
ATOM     15  N   LIG    1        2.396   4.138   0.001  0.00  0.00    -0.690 N 
ATOM     16  H   LIG    1        2.418   5.107   0.006  0.00  0.00    +0.420 HD
BRANCH  15  17
ATOM     17  C   LIG    1        3.648   3.377  -0.014  0.00  0.00    +0.470 C 
BRANCH  17  18
ATOM     18  C   LIG    1        4.815   4.330  -0.019  0.00  0.00    +0.160 A 
ATOM     19  N   LIG    1        5.424   4.821   1.031  0.00  0.00    -0.450 NA
ATOM     20  C   LIG    1        6.401   5.619   0.545  0.00  0.00    +0.220 A 
ATOM     21  N   LIG    1        6.324   5.572  -0.759  0.00  0.00    -0.360 NA
ATOM     22  O   LIG    1        5.420   4.838  -1.098  0.00  0.00    +0.100 OA
BRANCH  20  23
ATOM     23  C   LIG    1        7.375   6.405   1.343  0.00  0.00    -0.080 A 
ATOM     24  C   LIG    1        8.336   7.198   0.710  0.00  0.00    +0.100 A 
ATOM     25  C   LIG    1        9.221   7.913   1.498  0.00  0.00    -0.020 A 
ATOM     26  C   LIG    1        9.127   7.820   2.875  0.00  0.00    +0.290 A 
ATOM     27  N   LIG    1        8.209   7.063   3.444  0.00  0.00    -0.480 NA
ATOM     28  C   LIG    1        7.342   6.369   2.735  0.00  0.00    +0.320 A 
ENDBRANCH  20  23
ENDBRANCH  17  18
ENDBRANCH  15  17
ENDBRANCH   9  15
TORSDOF 5
