REMARK  Name = ZINCqH000000704c.0
REMARK                            x       y       z     vdW  Elec       q    Type
REMARK                         _______ _______ _______ _____ _____    ______ ____
ROOT
ATOM      1  C   LIG    1        0.002  -0.004   0.002  0.00  0.00    +0.230 A 
ATOM      2  N   LIG    1        1.257  -0.373  -0.012  0.00  0.00    -0.370 NA
ATOM      3  O   LIG    1        1.978   0.602  -0.014  0.00  0.00    +0.080 OA
ATOM      4  C   LIG    1        1.240   1.717  -0.001  0.00  0.00    +0.180 A 
ATOM      5  N   LIG    1       -0.016   1.348   0.009  0.00  0.00    -0.470 NA
ENDROOT
BRANCH   1   9
ATOM      6  C   LIG    1       -3.386  -2.576   0.024  0.00  0.00    +0.160 A 
ATOM      7  C   LIG    1       -3.561  -1.198   0.033  0.00  0.00    -0.080 A 
ATOM      8  C   LIG    1       -2.465  -0.362   0.031  0.00  0.00    +0.110 A 
ATOM      9  C   LIG    1       -1.179  -0.901   0.009  0.00  0.00    -0.070 A 
ATOM     10  C   LIG    1       -1.006  -2.284   0.000  0.00  0.00    -0.000 A 
ATOM     11  C   LIG    1        0.382  -2.871  -0.018  0.00  0.00    +0.110 C 
ATOM     12  C   LIG    1       -2.106  -3.115   0.007  0.00  0.00    -0.020 A 
BRANCH   6  14
ATOM     13  C   LIG    1       -5.754  -2.775   0.048  0.00  0.00    +0.240 C 
ATOM     14  O   LIG    1       -4.468  -3.397   0.031  0.00  0.00    -0.310 OA
ENDBRANCH   6  14
ENDBRANCH   1   9
BRANCH   4  15
ATOM     15  C   LIG    1        1.758   3.132   0.001  0.00  0.00    +0.200 C 
BRANCH  15  16
ATOM     16  C   LIG    1        1.946   3.605   1.444  0.00  0.00    +0.070 C 
ATOM     17  C   LIG    1        3.041   2.773   2.114  0.00  0.00    +0.080 C 
ATOM     18  C   LIG    1        4.385   3.144   1.548  0.00  0.00    +0.520 C 
ATOM     19  N   LIG    1        4.655   4.413   1.190  0.00  0.00    -0.670 N 
ATOM     20  H   LIG    1        5.530   4.639   0.838  0.00  0.00    +0.410 HD
ATOM     21  C   LIG    1        3.682   5.409   1.321  0.00  0.00    +0.170 A 
ATOM     22  C   LIG    1        4.048   6.748   1.324  0.00  0.00    -0.020 A 
ATOM     23  C   LIG    1        3.082   7.726   1.455  0.00  0.00    +0.050 A 
ATOM     24  C   LIG    1        1.752   7.373   1.582  0.00  0.00    -0.010 A 
ATOM     25  C   LIG    1        1.383   6.040   1.579  0.00  0.00    +0.060 A 
ATOM     26  O   LIG    1        5.235   2.290   1.413  0.00  0.00    -0.510 OA
ATOM     27  C   LIG    1        2.344   5.058   1.449  0.00  0.00    -0.120 A 
ENDBRANCH  15  16
ENDBRANCH   4  15
TORSDOF 4
