REMARK  Name = ZINCpk00000xSnfN.0
REMARK                            x       y       z     vdW  Elec       q    Type
REMARK                         _______ _______ _______ _____ _____    ______ ____
ROOT
ATOM      1  C   LIG    1       -2.435  -0.294   1.361  0.00  0.00    +0.340 C 
ENDROOT
BRANCH   1   2
ATOM      2  C   LIG    1       -2.035  -1.448   2.281  0.00  0.00    +0.000 C 
ATOM      3  C   LIG    1       -0.517  -1.644   2.228  0.00  0.00    -0.010 C 
ATOM      4  C   LIG    1       -0.135  -2.852   3.088  0.00  0.00    +0.200 C 
ATOM      5  O   LIG    1       -0.833  -4.008   2.622  0.00  0.00    -0.380 OA
ATOM      6  C   LIG    1       -2.256  -3.900   2.694  0.00  0.00    +0.210 C 
ATOM      7  C   LIG    1       -2.723  -2.736   1.816  0.00  0.00    +0.010 C 
ENDBRANCH   1   2
BRANCH   1  12
ATOM      8  N   LIG    1       -0.698   1.558   1.213  0.00  0.00    -0.450 N 
ATOM      9  C   LIG    1       -0.392   2.680   1.935  0.00  0.00    +0.130 A 
ATOM     10  C   LIG    1       -1.267   2.737   2.957  0.00  0.00    +0.140 A 
ATOM     11  N   LIG    1       -2.085   1.679   2.862  0.00  0.00    -0.480 NA
ATOM     12  C   LIG    1       -1.754   0.971   1.817  0.00  0.00    +0.190 A 
BRANCH   8  14
ATOM     13  C   LIG    1       -0.753   1.593  -1.232  0.00  0.00    +0.040 C 
ATOM     14  C   LIG    1       -0.013   1.086   0.008  0.00  0.00    +0.280 C 
ENDBRANCH   8  14
ENDBRANCH   1  12
BRANCH   1  15
ATOM     15  N   LIG    1       -3.888  -0.111   1.409  0.00  0.00    -0.710 N 
ATOM     16  H   LIG    1       -4.275   0.542   2.013  0.00  0.00    +0.410 HD
ATOM     17  C   LIG    1       -4.687  -0.850   0.615  0.00  0.00    +0.560 C 
ATOM     18  O   LIG    1       -4.202  -1.668  -0.142  0.00  0.00    -0.520 OA
BRANCH  17  19
ATOM     19  C   LIG    1       -6.159  -0.665   0.664  0.00  0.00    -0.040 A 
ATOM     20  C   LIG    1       -6.989  -1.414  -0.150  0.00  0.00    +0.000 A 
ATOM     21  C   LIG    1       -8.383  -1.215  -0.074  0.00  0.00    +0.510 A 
ATOM     22  N   LIG    1       -8.888  -0.301   0.775  0.00  0.00    -0.500 N 
ATOM     23  C   LIG    1       -8.077   0.439   1.572  0.00  0.00    +0.310 A 
ATOM     24  C   LIG    1      -10.338  -0.102   0.839  0.00  0.00    +0.330 C 
ATOM     25  O   LIG    1       -9.131  -1.869  -0.781  0.00  0.00    -0.540 OA
ATOM     26  C   LIG    1       -6.734   0.281   1.539  0.00  0.00    -0.070 A 
ENDBRANCH  17  19
ENDBRANCH   1  15
TORSDOF 5
