REMARK  Name = ZINCrH000004q9PV.0
REMARK                            x       y       z     vdW  Elec       q    Type
REMARK                         _______ _______ _______ _____ _____    ______ ____
ROOT
ATOM      1  C   LIG    1       -1.184  -0.900   0.179  0.00  0.00    +0.610 C 
ATOM      2  N   LIG    1       -2.414  -0.372   0.023  0.00  0.00    -0.670 N 
ATOM      3  H   LIG    1       -2.528   0.590  -0.021  0.00  0.00    +0.420 HD
ATOM      4  O   LIG    1       -1.051  -2.099   0.330  0.00  0.00    -0.510 OA
ENDROOT
BRANCH   1   7
ATOM      5  C   LIG    1        1.804  -1.829   0.519  0.00  0.00    +0.190 C 
ATOM      6  C   LIG    1        1.315  -0.418   0.316  0.00  0.00    +0.200 A 
ATOM      7  C   LIG    1        0.001  -0.023   0.168  0.00  0.00    -0.310 A 
ATOM      8  C   LIG    1        0.003   1.382   0.003  0.00  0.00    +0.300 A 
ATOM      9  N   LIG    1        1.241   1.792   0.050  0.00  0.00    -0.280 NA
ATOM     10  N   LIG    1        2.078   0.688   0.244  0.00  0.00    -0.310 N 
BRANCH  10  11
ATOM     11  C   LIG    1        3.472   0.728   0.347  0.00  0.00    +0.350 A 
ATOM     12  C   LIG    1        4.176   1.770  -0.241  0.00  0.00    +0.000 A 
ATOM     13  C   LIG    1        5.556   1.800  -0.128  0.00  0.00    +0.100 A 
ATOM     14  C   LIG    1        6.185   0.775   0.564  0.00  0.00    -0.020 A 
ATOM     15  C   LIG    1        5.421  -0.233   1.121  0.00  0.00    +0.300 A 
ATOM     16  N   LIG    1        4.108  -0.232   1.000  0.00  0.00    -0.500 NA
ENDBRANCH  10  11
ENDBRANCH   1   7
BRANCH   2  17
ATOM     17  C   LIG    1       -3.525  -1.211  -0.077  0.00  0.00    +0.190 A 
ATOM     18  C   LIG    1       -3.405  -2.450  -0.698  0.00  0.00    +0.070 A 
ATOM     19  C   LIG    1       -4.498  -3.282  -0.793  0.00  0.00    +0.110 A 
ATOM     20  C   LIG    1       -5.731  -2.876  -0.275  0.00  0.00    +0.010 A 
ATOM     21  C   LIG    1       -5.849  -1.628   0.344  0.00  0.00    -0.120 A 
ATOM     22  C   LIG    1       -4.750  -0.803   0.440  0.00  0.00    +0.050 A 
BRANCH  21  23
ATOM     23  C   LIG    1       -7.176  -1.185   0.903  0.00  0.00    +0.510 C 
ATOM     24  F   LIG    1       -7.592  -2.089   1.887  0.00  0.00    -0.170 F 
ATOM     25  F   LIG    1       -8.125  -1.144  -0.124  0.00  0.00    -0.170 F 
ATOM     26  F   LIG    1       -7.043   0.088   1.466  0.00  0.00    -0.170 F 
ENDBRANCH  21  23
BRANCH  20  27
ATOM     27  C   LIG    1       -6.871  -3.736  -0.377  0.00  0.00    +0.230 C 
ATOM     28  N   LIG    1       -7.775  -4.419  -0.459  0.00  0.00    -0.380 NA
ENDBRANCH  20  27
ENDBRANCH   2  17
TORSDOF 5
