REMARK  Name = ZINCqH0000050JiN.0
REMARK                            x       y       z     vdW  Elec       q    Type
REMARK                         _______ _______ _______ _____ _____    ______ ____
ROOT
ATOM      1  N   LIG    1       -2.038  -4.492  -0.315  0.00  0.00    -0.680 N 
ATOM      2  H   LIG    1       -1.146  -4.870  -0.266  0.00  0.00    +0.410 HD
ATOM      3  C   LIG    1       -3.116  -5.286  -0.161  0.00  0.00    +0.510 C 
ATOM      4  O   LIG    1       -4.230  -4.833  -0.316  0.00  0.00    -0.500 OA
ENDROOT
BRANCH   1   9
ATOM      5  C   LIG    1       -3.439  -1.086  -0.211  0.00  0.00    +0.000 A 
ATOM      6  C   LIG    1       -2.525  -0.405  -1.013  0.00  0.00    +0.050 A 
ATOM      7  C   LIG    1       -1.461  -1.083  -1.575  0.00  0.00    +0.030 A 
ATOM      8  C   LIG    1       -1.299  -2.436  -1.344  0.00  0.00    +0.000 A 
ATOM      9  C   LIG    1       -2.206  -3.122  -0.546  0.00  0.00    +0.140 A 
ATOM     10  C   LIG    1       -3.273  -2.448   0.026  0.00  0.00    +0.050 A 
BRANCH   5  14
ATOM     11  C   LIG    1       -6.548   2.630   0.991  0.00  0.00    +0.190 C 
ATOM     12  C   LIG    1       -5.927   1.259   0.909  0.00  0.00    +0.290 A 
ATOM     13  N   LIG    1       -4.846   0.946   0.244  0.00  0.00    -0.530 NA
ATOM     14  C   LIG    1       -4.584  -0.359   0.393  0.00  0.00    +0.270 A 
ATOM     15  N   LIG    1       -5.508  -0.890   1.164  0.00  0.00    -0.300 NA
ATOM     16  N   LIG    1       -6.389   0.147   1.510  0.00  0.00    -0.480 N 
ATOM     17  H   LIG    1       -7.178   0.076   2.070  0.00  0.00    +0.440 HD
ENDBRANCH   5  14
ENDBRANCH   1   9
BRANCH   3  18
ATOM     18  C   LIG    1       -2.937  -6.737   0.204  0.00  0.00    +0.130 C 
BRANCH  18  19
ATOM     19  C   LIG    1       -4.287  -7.398   0.315  0.00  0.00    -0.110 A 
ATOM     20  C   LIG    1       -4.948  -7.418   1.529  0.00  0.00    +0.060 A 
ATOM     21  C   LIG    1       -6.188  -8.018   1.632  0.00  0.00    -0.080 A 
ATOM     22  C   LIG    1       -6.765  -8.611   0.518  0.00  0.00    +0.140 A 
ATOM     23  C   LIG    1       -6.097  -8.594  -0.698  0.00  0.00    -0.020 A 
ATOM     24  C   LIG    1       -4.860  -7.987  -0.797  0.00  0.00    +0.070 A 
BRANCH  22  25
ATOM     25  O   LIG    1       -7.982  -9.207   0.618  0.00  0.00    -0.310 OA
BRANCH  25  26
ATOM     26  C   LIG    1       -8.557  -9.294   1.923  0.00  0.00    +0.150 C 
ATOM     27  C   LIG    1       -9.544 -10.462   1.969  0.00  0.00    +0.070 C 
ATOM     28  C   LIG    1       -9.293  -7.991   2.244  0.00  0.00    +0.020 C 
ENDBRANCH  25  26
ENDBRANCH  22  25
ENDBRANCH  18  19
ENDBRANCH   3  18
TORSDOF 6
