REMARK  Name = ZINCrg000000o1jb.0
REMARK                            x       y       z     vdW  Elec       q    Type
REMARK                         _______ _______ _______ _____ _____    ______ ____
ROOT
ATOM      1  C   LIG    1       -4.030   4.520   5.127  0.00  0.00    +0.210 A 
ATOM      2  C   LIG    1       -3.842   5.398   4.067  0.00  0.00    -0.010 A 
ATOM      3  C   LIG    1       -2.745   5.253   3.239  0.00  0.00    +0.200 A 
ATOM      4  C   LIG    1       -1.843   4.229   3.458  0.00  0.00    -0.690 A 
ATOM      5  C   LIG    1       -2.027   3.353   4.512  0.00  0.00    +0.220 A 
ATOM      6  C   LIG    1       -3.118   3.496   5.347  0.00  0.00    -0.040 A 
ENDROOT
BRANCH   4   7
ATOM      7  S   LIG    1       -0.449   4.044   2.395  0.00  0.00    +2.690 S 
ATOM      8  O   LIG    1       -0.218   5.318   1.811  0.00  0.00    -0.940 OA
ATOM      9  O   LIG    1        0.534   3.341   3.142  0.00  0.00    -0.940 OA
BRANCH   7  10
ATOM     10  N   LIG    1       -0.905   3.039   1.160  0.00  0.00    -1.000 NA
ATOM     11  C   LIG    1       -0.732   1.581   1.268  0.00  0.00    +0.270 C 
ATOM     12  C   LIG    1       -0.013   1.086   0.008  0.00  0.00    +0.220 C 
ATOM     13  O   LIG    1       -0.706   1.560  -1.149  0.00  0.00    -0.380 OA
ATOM     14  C   LIG    1       -0.736   2.985  -1.270  0.00  0.00    +0.220 C 
ATOM     15  C   LIG    1       -1.493   3.577  -0.076  0.00  0.00    +0.270 C 
ENDBRANCH   7  10
ENDBRANCH   4   7
BRANCH   6  16
ATOM     16  N   LIG    1       -3.315   2.558   6.475  0.00  0.00    +0.020 N 
ATOM     17  O   LIG    1       -4.278   2.684   7.211  0.00  0.00    -0.080 OA
ATOM     18  O   LIG    1       -2.515   1.660   6.668  0.00  0.00    -0.190 OA
ENDBRANCH   6  16
BRANCH   1  19
ATOM     19  N   LIG    1       -5.135   4.667   5.969  0.00  0.00    -0.490 N 
BRANCH  19  20
ATOM     20  C   LIG    1       -6.391   4.549   5.216  0.00  0.00    +0.190 C 
ATOM     21  C   LIG    1       -6.579   3.100   4.761  0.00  0.00    +0.040 C 
ENDBRANCH  19  20
BRANCH  19  22
ATOM     22  C   LIG    1       -5.076   5.941   6.698  0.00  0.00    +0.280 C 
BRANCH  22  23
ATOM     23  C   LIG    1       -6.138   5.958   7.766  0.00  0.00    +0.460 C 
ATOM     24  O   LIG    1       -6.869   5.007   7.907  0.00  0.00    -0.470 OA
BRANCH  23  25
ATOM     25  O   LIG    1       -6.272   7.031   8.563  0.00  0.00    -0.360 OA
BRANCH  25  27
ATOM     26  C   LIG    1       -7.316   8.279  10.374  0.00  0.00    +0.070 C 
ATOM     27  C   LIG    1       -7.316   6.978   9.570  0.00  0.00    +0.200 C 
ENDBRANCH  25  27
ENDBRANCH  23  25
ENDBRANCH  22  23
ENDBRANCH  19  22
ENDBRANCH   1  19
TORSDOF 9
