REMARK  Name = ZINCkj000005i5Wf.1
REMARK                            x       y       z     vdW  Elec       q    Type
REMARK                         _______ _______ _______ _____ _____    ______ ____
ROOT
ATOM      1  C   LIG    1        1.010  -0.066   2.982  0.00  0.00    +0.280 C 
ENDROOT
BRANCH   1   2
ATOM      2  C   LIG    1        0.654   0.438   1.607  0.00  0.00    +0.510 C 
ATOM      3  N   LIG    1       -0.535   1.035   1.395  0.00  0.00    -0.590 N 
ATOM      4  C   LIG    1       -1.285   1.628   2.511  0.00  0.00    +0.220 C 
ATOM      5  C   LIG    1       -1.619   3.083   2.167  0.00  0.00    +0.030 C 
ATOM      6  C   LIG    1       -2.348   3.129   0.821  0.00  0.00    +0.020 C 
ATOM      7  C   LIG    1       -1.440   2.566  -0.275  0.00  0.00    +0.020 C 
ATOM      8  C   LIG    1       -0.434   1.584   3.781  0.00  0.00    +0.040 C 
ATOM      9  C   LIG    1       -1.107   1.105   0.043  0.00  0.00    +0.220 C 
ATOM     10  C   LIG    1       -0.092   0.575  -0.971  0.00  0.00    +0.050 C 
ATOM     11  O   LIG    1        1.439   0.307   0.692  0.00  0.00    -0.500 OA
ENDBRANCH   1   2
BRANCH   1  12
ATOM     12  N   LIG    1        2.221  -0.894   2.902  0.00  0.00    -0.380 N 
ATOM     13  H   LIG    1        2.101  -1.597   2.188  0.00  0.00    +0.440 HD
BRANCH  12  14
ATOM     14  C   LIG    1        3.372  -0.046   2.566  0.00  0.00    +0.280 C 
BRANCH  14  15
ATOM     15  C   LIG    1        4.609  -0.923   2.361  0.00  0.00    +0.200 C 
BRANCH  15  17
ATOM     16  C   LIG    1        5.515  -2.627   0.940  0.00  0.00    +0.230 C 
ATOM     17  O   LIG    1        4.413  -1.763   1.221  0.00  0.00    -0.390 OA
ENDBRANCH  15  17
ENDBRANCH  14  15
ENDBRANCH  12  14
BRANCH  12  18
ATOM     18  C   LIG    1        2.454  -1.546   4.198  0.00  0.00    +0.280 C 
BRANCH  18  19
ATOM     19  C   LIG    1        1.308  -2.515   4.495  0.00  0.00    +0.200 C 
BRANCH  19  20
ATOM     20  O   LIG    1        1.292  -3.550   3.510  0.00  0.00    -0.400 OA
ATOM     21  C   LIG    1        0.188  -4.450   3.630  0.00  0.00    +0.240 C 
ENDBRANCH  19  20
ENDBRANCH  18  19
ENDBRANCH  12  18
ENDBRANCH   1  12
TORSDOF 8
