REMARK  Name = ZINCb80000003W6L.0
REMARK                            x       y       z     vdW  Elec       q    Type
REMARK                         _______ _______ _______ _____ _____    ______ ____
ROOT
ATOM      1  O   LIG    1        4.180   0.767   4.571  0.00  0.00    -0.510 OA
ATOM      2  C   LIG    1        3.542   0.773   3.535  0.00  0.00    +0.550 A 
ATOM      3  C   LIG    1        4.136   1.225   2.332  0.00  0.00    -0.120 A 
ATOM      4  C   LIG    1        3.405   1.221   1.196  0.00  0.00    +0.350 A 
ATOM      5  N   LIG    1        2.109   0.783   1.226  0.00  0.00    -0.510 N 
ATOM      6  C   LIG    1        1.554   0.361   2.377  0.00  0.00    +0.700 A 
ATOM      7  O   LIG    1        0.400  -0.019   2.381  0.00  0.00    -0.540 OA
ATOM      8  N   LIG    1        2.261   0.350   3.522  0.00  0.00    -0.660 N 
ATOM      9  H   LIG    1        1.847   0.039   4.342  0.00  0.00    +0.430 HD
ENDROOT
BRANCH   5  10
ATOM     10  C   LIG    1        1.317   0.779  -0.006  0.00  0.00    +0.210 C 
ATOM     11  C   LIG    1        1.893   0.038  -1.215  0.00  0.00    +0.040 C 
ATOM     12  C   LIG    1        1.861   1.568  -1.199  0.00  0.00    +0.050 C 
ENDBRANCH   5  10
TORSDOF 1
