REMARK  Name = ZINCrH000004twAI.1
REMARK                            x       y       z     vdW  Elec       q    Type
REMARK                         _______ _______ _______ _____ _____    ______ ____
ROOT
ATOM      1  C   LIG    1       -2.252   1.121  -0.890  0.00  0.00    +0.520 C 
ATOM      2  N   LIG    1       -3.201   1.662  -1.679  0.00  0.00    -0.670 N 
ATOM      3  H   LIG    1       -2.986   2.416  -2.251  0.00  0.00    +0.410 HD
ATOM      4  O   LIG    1       -2.543   0.243  -0.106  0.00  0.00    -0.500 OA
ENDROOT
BRANCH   2   5
ATOM      5  C   LIG    1       -4.498   1.136  -1.674  0.00  0.00    +0.160 A 
ATOM      6  C   LIG    1       -4.693  -0.226  -1.480  0.00  0.00    +0.020 A 
ATOM      7  C   LIG    1       -5.971  -0.745  -1.469  0.00  0.00    +0.050 A 
ATOM      8  C   LIG    1       -7.066   0.095  -1.664  0.00  0.00    -0.040 A 
ATOM      9  C   LIG    1       -6.866   1.460  -1.864  0.00  0.00    +0.080 A 
ATOM     10  C   LIG    1       -5.588   1.976  -1.869  0.00  0.00    -0.020 A 
BRANCH   8  11
ATOM     11  C   LIG    1       -8.440  -0.462  -1.660  0.00  0.00    +0.110 A 
ATOM     12  C   LIG    1       -8.700  -1.772  -1.472  0.00  0.00    -0.040 A 
ATOM     13  S   LIG    1      -10.447  -1.992  -1.541  0.00  0.00    +0.250 S 
ATOM     14  C   LIG    1      -10.660  -0.318  -1.813  0.00  0.00    -0.080 A 
ATOM     15  N   LIG    1       -9.521   0.284  -1.835  0.00  0.00    -0.410 NA
BRANCH  14  16
ATOM     16  C   LIG    1      -11.994   0.359  -1.997  0.00  0.00    +0.560 C 
ATOM     17  F   LIG    1      -11.917   1.675  -1.527  0.00  0.00    -0.150 F 
ATOM     18  F   LIG    1      -12.972  -0.336  -1.278  0.00  0.00    -0.160 F 
ATOM     19  F   LIG    1      -12.330   0.367  -3.355  0.00  0.00    -0.160 F 
ENDBRANCH  14  16
ENDBRANCH   8  11
ENDBRANCH   2   5
BRANCH   1  20
ATOM     20  C   LIG    1       -0.829   1.609  -0.982  0.00  0.00    +0.200 C 
BRANCH  20  21
ATOM     21  N   LIG    1       -0.107   1.247   0.246  0.00  0.00    -0.830 NA
ATOM     22  H   LIG    1        0.831   1.619   0.237  0.00  0.00    +0.350 HD
ATOM     23  H   LIG    1       -0.099   0.247   0.379  0.00  0.00    +0.350 HD
ENDBRANCH  20  21
BRANCH  20  24
ATOM     24  C   LIG    1       -0.144   0.959  -2.186  0.00  0.00    +0.070 C 
BRANCH  24  25
ATOM     25  C   LIG    1        1.238   1.537  -2.350  0.00  0.00    -0.040 A 
ATOM     26  C   LIG    1        1.450   2.656  -3.142  0.00  0.00    -0.030 A 
ATOM     27  C   LIG    1        2.730   3.161  -3.265  0.00  0.00    +0.270 A 
ATOM     28  N   LIG    1        3.744   2.585  -2.650  0.00  0.00    -0.480 NA
ATOM     29  C   LIG    1        3.581   1.518  -1.893  0.00  0.00    +0.270 A 
ATOM     30  C   LIG    1        2.329   0.960  -1.719  0.00  0.00    -0.040 A 
ENDBRANCH  24  25
ENDBRANCH  20  24
ENDBRANCH   1  20
TORSDOF 7
