REMARK  Name = ZINCrg00000SjSou.1
REMARK                            x       y       z     vdW  Elec       q    Type
REMARK                         _______ _______ _______ _____ _____    ______ ____
ROOT
ATOM      1  C   LIG    1       -2.135  -0.505   1.616  0.00  0.00    +0.600 C 
ATOM      2  N   LIG    1       -1.518  -1.584   2.137  0.00  0.00    -0.600 N 
ATOM      3  C   LIG    1       -0.278  -1.442   2.916  0.00  0.00    +0.290 C 
ATOM      4  C   LIG    1       -0.456  -2.190   4.247  0.00  0.00    +0.170 C 
ATOM      5  N   LIG    1       -0.862  -3.575   3.974  0.00  0.00    -0.530 NA
ATOM      6  C   LIG    1       -2.167  -3.625   3.302  0.00  0.00    +0.190 C 
ATOM      7  C   LIG    1       -2.063  -2.936   1.938  0.00  0.00    +0.300 C 
ATOM      8  O   LIG    1       -3.101  -0.648   0.891  0.00  0.00    -0.510 OA
ENDROOT
BRANCH   1  19
ATOM      9  N   LIG    1       -0.690   1.555   1.236  0.00  0.00    -0.280 N 
ATOM     10  N   LIG    1       -0.508   2.700   1.800  0.00  0.00    -0.250 NA
ATOM     11  C   LIG    1       -1.283   2.832   2.833  0.00  0.00    +0.000 A 
ATOM     12  C   LIG    1       -2.034   1.652   2.958  0.00  0.00    -0.160 A 
ATOM     13  C   LIG    1       -3.040   1.435   4.054  0.00  0.00    +0.100 C 
ATOM     14  C   LIG    1       -2.781   2.497   5.135  0.00  0.00    +0.150 C 
ATOM     15  O   LIG    1       -2.650   3.785   4.529  0.00  0.00    -0.370 OA
ATOM     16  C   LIG    1       -3.951   2.516   6.121  0.00  0.00    +0.060 C 
ATOM     17  C   LIG    1       -1.433   3.985   3.796  0.00  0.00    +0.260 C 
ATOM     18  C   LIG    1       -1.506   5.301   3.020  0.00  0.00    +0.070 C 
ATOM     19  C   LIG    1       -1.640   0.846   1.925  0.00  0.00    -0.010 A 
BRANCH   9  21
ATOM     20  C   LIG    1       -0.698   1.589  -1.209  0.00  0.00    +0.050 C 
ATOM     21  C   LIG    1        0.017   1.080   0.044  0.00  0.00    +0.320 C 
ENDBRANCH   9  21
ENDBRANCH   1  19
BRANCH   5  22
ATOM     22  C   LIG    1       -0.874  -4.373   5.207  0.00  0.00    +0.320 C 
BRANCH  22  23
ATOM     23  C   LIG    1        0.532  -4.501   5.736  0.00  0.00    +0.180 A 
ATOM     24  N   LIG    1        1.417  -5.389   5.373  0.00  0.00    -0.270 NA
ATOM     25  N   LIG    1        2.508  -5.205   6.027  0.00  0.00    -0.290 NA
ATOM     26  C   LIG    1        2.369  -4.191   6.837  0.00  0.00    +0.380 A 
ATOM     27  N   LIG    1        1.113  -3.712   6.671  0.00  0.00    -0.590 N 
ATOM     28  H   LIG    1        0.710  -2.959   7.131  0.00  0.00    +0.430 HD
ENDBRANCH  22  23
ENDBRANCH   5  22
TORSDOF 4
