REMARK  Name = ZINCrg00000SjSou.0
REMARK                            x       y       z     vdW  Elec       q    Type
REMARK                         _______ _______ _______ _____ _____    ______ ____
ROOT
ATOM      1  C   LIG    1       -2.135  -0.505   1.616  0.00  0.00    +0.600 C 
ATOM      2  N   LIG    1       -1.518  -1.585   2.136  0.00  0.00    -0.600 N 
ATOM      3  C   LIG    1       -0.278  -1.443   2.914  0.00  0.00    +0.280 C 
ATOM      4  C   LIG    1       -0.456  -2.191   4.245  0.00  0.00    +0.190 C 
ATOM      5  N   LIG    1       -0.863  -3.576   3.972  0.00  0.00    -0.530 NA
ATOM      6  C   LIG    1       -2.168  -3.626   3.300  0.00  0.00    +0.190 C 
ATOM      7  C   LIG    1       -2.064  -2.936   1.936  0.00  0.00    +0.300 C 
ATOM      8  O   LIG    1       -3.102  -0.648   0.891  0.00  0.00    -0.520 OA
ENDROOT
BRANCH   1  19
ATOM      9  N   LIG    1       -0.690   1.555   1.236  0.00  0.00    -0.280 N 
ATOM     10  N   LIG    1       -0.508   2.700   1.800  0.00  0.00    -0.250 NA
ATOM     11  C   LIG    1       -1.283   2.832   2.833  0.00  0.00    +0.000 A 
ATOM     12  C   LIG    1       -2.034   1.652   2.958  0.00  0.00    -0.160 A 
ATOM     13  C   LIG    1       -3.040   1.435   4.054  0.00  0.00    +0.100 C 
ATOM     14  C   LIG    1       -2.781   2.497   5.135  0.00  0.00    +0.150 C 
ATOM     15  O   LIG    1       -2.650   3.785   4.529  0.00  0.00    -0.370 OA
ATOM     16  C   LIG    1       -3.951   2.516   6.121  0.00  0.00    +0.060 C 
ATOM     17  C   LIG    1       -1.433   3.985   3.795  0.00  0.00    +0.260 C 
ATOM     18  C   LIG    1       -1.506   5.301   3.020  0.00  0.00    +0.070 C 
ATOM     19  C   LIG    1       -1.640   0.846   1.925  0.00  0.00    -0.010 A 
BRANCH   9  21
ATOM     20  C   LIG    1       -0.698   1.589  -1.209  0.00  0.00    +0.050 C 
ATOM     21  C   LIG    1        0.017   1.080   0.044  0.00  0.00    +0.320 C 
ENDBRANCH   9  21
ENDBRANCH   1  19
BRANCH   5  22
ATOM     22  C   LIG    1       -0.874  -4.375   5.205  0.00  0.00    +0.320 C 
BRANCH  22  23
ATOM     23  C   LIG    1        0.531  -4.503   5.733  0.00  0.00    +0.230 A 
ATOM     24  N   LIG    1        1.372  -5.458   5.431  0.00  0.00    -0.290 NA
ATOM     25  N   LIG    1        2.557  -5.193   6.136  0.00  0.00    -0.480 N 
ATOM     26  H   LIG    1        3.372  -5.718   6.120  0.00  0.00    +0.440 HD
ATOM     27  C   LIG    1        2.336  -4.069   6.839  0.00  0.00    +0.480 A 
ATOM     28  N   LIG    1        1.117  -3.666   6.588  0.00  0.00    -0.540 NA
ENDBRANCH  22  23
ENDBRANCH   5  22
TORSDOF 4
