REMARK  Name = ZINCtV000002JliL.0
REMARK                            x       y       z     vdW  Elec       q    Type
REMARK                         _______ _______ _______ _____ _____    ______ ____
ROOT
ATOM      1  C   LIG    1        2.175  -3.037   0.977  0.00  0.00    +0.170 C 
ENDROOT
BRANCH   1   4
ATOM      2  C   LIG    1       -0.022  -0.228   1.732  0.00  0.00    +0.300 A 
ATOM      3  N   LIG    1        1.051  -0.856   1.364  0.00  0.00    -0.520 NA
ATOM      4  C   LIG    1        1.004  -2.176   1.375  0.00  0.00    +0.110 A 
ATOM      5  C   LIG    1       -0.166  -2.686   1.762  0.00  0.00    -0.100 A 
ATOM      6  S   LIG    1       -1.250  -1.348   2.134  0.00  0.00    +0.150 S 
BRANCH   2   7
ATOM      7  N   LIG    1       -0.156   1.151   1.786  0.00  0.00    -0.630 N 
ATOM      8  H   LIG    1        0.613   1.720   1.623  0.00  0.00    +0.420 HD
BRANCH   7  15
ATOM      9  C   LIG    1       -0.210   3.618   3.205  0.00  0.00    +0.090 C 
ATOM     10  C   LIG    1       -1.473   2.925   2.760  0.00  0.00    -0.110 A 
ATOM     11  C   LIG    1       -2.703   3.489   3.033  0.00  0.00    +0.040 A 
ATOM     12  C   LIG    1       -3.863   2.852   2.629  0.00  0.00    +0.000 A 
ATOM     13  C   LIG    1       -3.794   1.652   1.947  0.00  0.00    +0.050 A 
ATOM     14  C   LIG    1       -2.566   1.085   1.665  0.00  0.00    -0.030 A 
ATOM     15  C   LIG    1       -1.400   1.722   2.069  0.00  0.00    +0.160 A 
ENDBRANCH   7  15
ENDBRANCH   2   7
ENDBRANCH   1   4
BRANCH   1  16
ATOM     16  S   LIG    1        2.103  -3.368  -0.801  0.00  0.00    +0.030 S 
BRANCH  16  17
ATOM     17  C   LIG    1        3.546  -4.363  -0.986  0.00  0.00    +0.150 A 
ATOM     18  N   LIG    1        4.383  -4.707  -0.035  0.00  0.00    -0.280 NA
ATOM     19  N   LIG    1        5.321  -5.438  -0.524  0.00  0.00    -0.270 NA
ATOM     20  C   LIG    1        5.145  -5.595  -1.805  0.00  0.00    +0.190 A 
ATOM     21  N   LIG    1        4.008  -4.916  -2.146  0.00  0.00    -0.430 N 
BRANCH  21  22
ATOM     22  C   LIG    1        3.409  -4.805  -3.478  0.00  0.00    +0.200 C 
ATOM     23  C   LIG    1        2.377  -3.698  -3.699  0.00  0.00    +0.070 C 
ATOM     24  C   LIG    1        1.927  -5.159  -3.619  0.00  0.00    +0.060 C 
ENDBRANCH  21  22
BRANCH  20  25
ATOM     25  C   LIG    1        6.030  -6.380  -2.739  0.00  0.00    +0.260 C 
BRANCH  25  26
ATOM     26  C   LIG    1        7.096  -5.475  -3.299  0.00  0.00    -0.190 A 
ATOM     27  C   LIG    1        8.293  -5.263  -2.749  0.00  0.00    +0.040 A 
ATOM     28  C   LIG    1        9.110  -4.391  -3.447  0.00  0.00    +0.010 A 
ATOM     29  C   LIG    1        8.574  -3.887  -4.559  0.00  0.00    -0.030 A 
ATOM     30  S   LIG    1        6.951  -4.530  -4.776  0.00  0.00    +0.090 S 
ENDBRANCH  25  26
ENDBRANCH  20  25
ENDBRANCH  16  17
ENDBRANCH   1  16
TORSDOF 8
