REMARK  Name = ZINC9l0000002oht.0
REMARK                            x       y       z     vdW  Elec       q    Type
REMARK                         _______ _______ _______ _____ _____    ______ ____
ROOT
ATOM      1  C   LIG    1       -3.264   1.310  -1.225  0.00  0.00    -0.090 C 
ATOM      2  C   LIG    1       -2.462   0.958  -2.480  0.00  0.00    +0.010 C 
ENDROOT
BRANCH   1   3
ATOM      3  C   LIG    1       -4.559   0.538  -1.223  0.00  0.00    +0.500 C 
ATOM      4  O   LIG    1       -5.357   0.685  -2.132  0.00  0.00    -0.700 OA
ATOM      5  O   LIG    1       -4.808  -0.232  -0.311  0.00  0.00    -0.690 OA
ENDBRANCH   1   3
BRANCH   1   6
ATOM      6  C   LIG    1       -2.451   0.944   0.019  0.00  0.00    +0.030 C 
ATOM      7  C   LIG    1       -3.252   1.296   1.274  0.00  0.00    +0.010 C 
BRANCH   6   9
ATOM      8  C   LIG    1       -0.013   1.076   0.008  0.00  0.00    -0.040 C 
ATOM      9  C   LIG    1       -1.156   1.715   0.017  0.00  0.00    -0.020 C 
ENDBRANCH   6   9
ENDBRANCH   1   6
TORSDOF 3
