REMARK  Name = ZINCqH0000008RGr.0
REMARK                            x       y       z     vdW  Elec       q    Type
REMARK                         _______ _______ _______ _____ _____    ______ ____
ROOT
ATOM      1  N   LIG    1       -0.503  -3.311  -0.011  0.00  0.00    -0.700 N 
ATOM      2  H   LIG    1       -0.990  -2.472  -0.001  0.00  0.00    +0.410 HD
ENDROOT
BRANCH   1   3
ATOM      3  C   LIG    1        0.880  -3.308  -0.025  0.00  0.00    +0.490 A 
ATOM      4  N   LIG    1        1.564  -4.449  -0.039  0.00  0.00    -0.600 NA
ATOM      5  C   LIG    1        2.883  -4.449  -0.052  0.00  0.00    +0.580 A 
ATOM      6  N   LIG    1        3.592  -3.341  -0.052  0.00  0.00    -0.580 NA
ATOM      7  C   LIG    1        2.997  -2.149  -0.039  0.00  0.00    +0.400 A 
ATOM      8  N   LIG    1        3.473  -0.861  -0.036  0.00  0.00    -0.590 N 
ATOM      9  H   LIG    1        4.412  -0.618  -0.044  0.00  0.00    +0.420 HD
ATOM     10  C   LIG    1        2.424   0.042  -0.021  0.00  0.00    +0.130 A 
ATOM     11  C   LIG    1        2.384   1.433  -0.013  0.00  0.00    +0.010 A 
ATOM     12  C   LIG    1        1.171   2.089   0.002  0.00  0.00    +0.040 A 
ATOM     13  C   LIG    1       -0.017   1.374   0.010  0.00  0.00    +0.000 A 
ATOM     14  C   LIG    1        0.002  -0.004   0.002  0.00  0.00    +0.040 A 
ATOM     15  C   LIG    1        1.220  -0.680  -0.013  0.00  0.00    -0.070 A 
ATOM     16  C   LIG    1        1.594  -2.103  -0.025  0.00  0.00    -0.270 A 
ENDBRANCH   1   3
BRANCH   1  17
ATOM     17  C   LIG    1       -1.233  -4.581  -0.012  0.00  0.00    +0.270 C 
BRANCH  17  19
ATOM     18  C   LIG    1       -3.078  -3.407   1.196  0.00  0.00    +0.070 C 
ATOM     19  C   LIG    1       -2.737  -4.305   0.005  0.00  0.00    +0.170 C 
BRANCH  19  20
ATOM     20  C   LIG    1       -3.486  -5.607   0.128  0.00  0.00    -0.160 A 
ATOM     21  C   LIG    1       -4.375  -5.989  -0.858  0.00  0.00    +0.100 A 
ATOM     22  C   LIG    1       -5.061  -7.184  -0.747  0.00  0.00    -0.010 A 
ATOM     23  C   LIG    1       -4.859  -7.999   0.354  0.00  0.00    +0.140 A 
ATOM     24  C   LIG    1       -3.969  -7.617   1.343  0.00  0.00    -0.040 A 
ATOM     25  F   LIG    1       -5.530  -9.166   0.463  0.00  0.00    -0.130 F 
ATOM     26  C   LIG    1       -3.278  -6.424   1.228  0.00  0.00    +0.140 A 
ATOM     27  F   LIG    1       -2.405  -6.052   2.190  0.00  0.00    -0.120 F 
ENDBRANCH  19  20
BRANCH  19  28
ATOM     28  O   LIG    1       -3.115  -3.652  -1.208  0.00  0.00    -0.540 OA
ATOM     29  H   LIG    1       -2.928  -4.165  -2.006  0.00  0.00    +0.380 HD
ENDBRANCH  19  28
ENDBRANCH  17  19
ENDBRANCH   1  17
TORSDOF 5
