REMARK  Name = ZINCqH0000008RGr.1
REMARK                            x       y       z     vdW  Elec       q    Type
REMARK                         _______ _______ _______ _____ _____    ______ ____
ROOT
ATOM      1  N   LIG    1        3.786   4.225  -0.012  0.00  0.00    -0.680 N 
ATOM      2  H   LIG    1        2.816   4.225  -0.003  0.00  0.00    +0.420 HD
ENDROOT
BRANCH   1   3
ATOM      3  C   LIG    1        4.473   3.035  -0.024  0.00  0.00    +0.510 A 
ATOM      4  C   LIG    1        3.785   1.823  -0.024  0.00  0.00    -0.300 A 
ATOM      5  C   LIG    1        4.525   0.612  -0.037  0.00  0.00    +0.330 A 
ATOM      6  N   LIG    1        5.903   0.703  -0.050  0.00  0.00    -0.570 N 
ATOM      7  H   LIG    1        6.443  -0.102  -0.059  0.00  0.00    +0.430 HD
ATOM      8  C   LIG    1        6.494   1.912  -0.049  0.00  0.00    +0.650 A 
ATOM      9  N   LIG    1        3.682  -0.401  -0.035  0.00  0.00    -0.540 NA
ATOM     10  C   LIG    1        2.398   0.004  -0.021  0.00  0.00    +0.110 A 
ATOM     11  C   LIG    1        1.181  -0.690  -0.013  0.00  0.00    +0.030 A 
ATOM     12  C   LIG    1        0.002  -0.004   0.002  0.00  0.00    +0.010 A 
ATOM     13  C   LIG    1       -0.017   1.385   0.010  0.00  0.00    -0.020 A 
ATOM     14  C   LIG    1        1.161   2.098   0.002  0.00  0.00    +0.020 A 
ATOM     15  C   LIG    1        2.377   1.420  -0.013  0.00  0.00    -0.100 A 
ATOM     16  N   LIG    1        5.813   3.027  -0.037  0.00  0.00    -0.580 NA
ENDBRANCH   1   3
BRANCH   1  17
ATOM     17  C   LIG    1        4.518   5.494  -0.012  0.00  0.00    +0.260 C 
BRANCH  17  19
ATOM     18  C   LIG    1        2.552   6.512  -1.171  0.00  0.00    +0.080 C 
ATOM     19  C   LIG    1        3.523   6.657   0.003  0.00  0.00    +0.170 C 
BRANCH  19  20
ATOM     20  C   LIG    1        4.271   7.959  -0.121  0.00  0.00    -0.160 A 
ATOM     21  C   LIG    1        4.175   8.909   0.878  0.00  0.00    +0.100 A 
ATOM     22  C   LIG    1        4.861  10.104   0.765  0.00  0.00    -0.010 A 
ATOM     23  C   LIG    1        5.645  10.350  -0.348  0.00  0.00    +0.140 A 
ATOM     24  C   LIG    1        5.743   9.399  -1.350  0.00  0.00    -0.040 A 
ATOM     25  F   LIG    1        6.316  11.518  -0.458  0.00  0.00    -0.130 F 
ATOM     26  C   LIG    1        5.060   8.201  -1.234  0.00  0.00    +0.140 A 
ATOM     27  F   LIG    1        5.158   7.270  -2.208  0.00  0.00    -0.120 F 
ENDBRANCH  19  20
BRANCH  19  28
ATOM     28  O   LIG    1        2.792   6.642   1.231  0.00  0.00    -0.540 OA
ATOM     29  H   LIG    1        3.345   6.730   2.019  0.00  0.00    +0.380 HD
ENDBRANCH  19  28
ENDBRANCH  17  19
ENDBRANCH   1  17
TORSDOF 5
