REMARK  Name = ZINCqH00000088yJ.0
REMARK                            x       y       z     vdW  Elec       q    Type
REMARK                         _______ _______ _______ _____ _____    ______ ____
ROOT
ATOM      1  N   LIG    1        1.006   3.452  -0.174  0.00  0.00    -0.700 N 
ATOM      2  H   LIG    1        0.728   2.676  -0.686  0.00  0.00    +0.410 HD
ENDROOT
BRANCH   1   9
ATOM      3  C   LIG    1        4.763   2.609  -3.302  0.00  0.00    +0.320 A 
ATOM      4  N   LIG    1        5.134   3.666  -2.600  0.00  0.00    -0.500 NA
ATOM      5  C   LIG    1        4.328   4.155  -1.655  0.00  0.00    +0.240 A 
ATOM      6  C   LIG    1        4.661   5.274  -0.873  0.00  0.00    -0.080 A 
ATOM      7  C   LIG    1        3.776   5.704   0.069  0.00  0.00    +0.350 A 
ATOM      8  N   LIG    1        2.613   5.101   0.270  0.00  0.00    -0.560 NA
ATOM      9  C   LIG    1        2.230   4.043  -0.425  0.00  0.00    +0.470 A 
ATOM     10  C   LIG    1        3.080   3.519  -1.419  0.00  0.00    -0.270 A 
ATOM     11  C   LIG    1        2.740   2.406  -2.200  0.00  0.00    +0.410 A 
ATOM     12  N   LIG    1        3.598   1.993  -3.111  0.00  0.00    -0.540 NA
BRANCH   3  14
ATOM     13  C   LIG    1        4.875   0.599  -5.156  0.00  0.00    +0.140 C 
ATOM     14  S   LIG    1        5.854   1.991  -4.541  0.00  0.00    +0.020 S 
ENDBRANCH   3  14
ENDBRANCH   1   9
BRANCH   1  15
ATOM     15  C   LIG    1        0.129   3.997   0.865  0.00  0.00    +0.320 C 
BRANCH  15  16
ATOM     16  C   LIG    1       -1.061   3.057   1.073  0.00  0.00    +0.180 C 
BRANCH  16  17
ATOM     17  C   LIG    1       -2.100   3.742   1.922  0.00  0.00    -0.160 A 
ATOM     18  C   LIG    1       -1.877   3.925   3.276  0.00  0.00    +0.160 A 
ATOM     19  C   LIG    1       -2.831   4.559   4.054  0.00  0.00    -0.020 A 
ATOM     20  C   LIG    1       -4.009   5.000   3.482  0.00  0.00    +0.100 A 
ATOM     21  C   LIG    1       -4.235   4.812   2.132  0.00  0.00    -0.020 A 
ATOM     22  F   LIG    1       -0.727   3.490   3.836  0.00  0.00    -0.110 F 
ATOM     23  C   LIG    1       -3.281   4.183   1.350  0.00  0.00    +0.140 A 
ATOM     24  F   LIG    1       -3.502   4.000   0.030  0.00  0.00    -0.130 F 
ENDBRANCH  16  17
BRANCH  16  25
ATOM     25  N   LIG    1       -0.606   1.834   1.747  0.00  0.00    -0.530 NA
ATOM     26  C   LIG    1        0.231   1.021   0.854  0.00  0.00    +0.200 C 
ATOM     27  C   LIG    1       -1.746   1.056   2.252  0.00  0.00    +0.190 C 
ENDBRANCH  16  25
ENDBRANCH  15  16
ENDBRANCH   1  15
TORSDOF 6
