REMARK  Name = ZINCpk00000FcQo9.0
REMARK                            x       y       z     vdW  Elec       q    Type
REMARK                         _______ _______ _______ _____ _____    ______ ____
ROOT
ATOM      1  C   LIG    1       -0.629   0.545  -4.849  0.00  0.00    +0.510 C 
ATOM      2  N   LIG    1       -0.966   1.012  -3.630  0.00  0.00    -0.730 N 
ATOM      3  H   LIG    1       -1.653   1.691  -3.544  0.00  0.00    +0.400 HD
ATOM      4  O   LIG    1        0.230  -0.305  -4.957  0.00  0.00    -0.530 OA
ENDROOT
BRANCH   1   5
ATOM      5  C   LIG    1       -1.320   1.079  -6.077  0.00  0.00    +0.080 C 
BRANCH   5  14
ATOM      6  C   LIG    1       -2.863   0.762  -8.274  0.00  0.00    +0.220 C 
ATOM      7  N   LIG    1       -1.420   0.895  -8.513  0.00  0.00    -0.560 NA
ATOM      8  C   LIG    1       -1.016   0.156  -9.711  0.00  0.00    +0.230 C 
ATOM      9  C   LIG    1        0.362   0.636 -10.179  0.00  0.00    -0.320 C 
ATOM     10  S   LIG    1        1.578   0.273  -8.878  0.00  0.00    +2.410 S 
ATOM     11  C   LIG    1        0.779   1.034  -7.433  0.00  0.00    -0.310 C 
ATOM     12  O   LIG    1        1.633  -1.133  -8.681  0.00  0.00    -0.930 OA
ATOM     13  O   LIG    1        2.776   0.983  -9.162  0.00  0.00    -0.940 OA
ATOM     14  C   LIG    1       -0.654   0.501  -7.328  0.00  0.00    +0.190 C 
ENDBRANCH   5  14
ENDBRANCH   1   5
BRANCH   2  15
ATOM     15  C   LIG    1       -0.295   0.493  -2.436  0.00  0.00    +0.260 C 
BRANCH  15  16
ATOM     16  C   LIG    1       -0.859   1.184  -1.193  0.00  0.00    -0.020 C 
ATOM     17  C   LIG    1       -0.240   0.545   0.035  0.00  0.00    +0.030 C 
ATOM     18  C   LIG    1       -0.934   1.030   1.311  0.00  0.00    +0.070 C 
ATOM     19  C   LIG    1       -0.285   2.328   1.744  0.00  0.00    -0.080 A 
ATOM     20  C   LIG    1        0.508   2.350   2.878  0.00  0.00    +0.000 A 
ATOM     21  C   LIG    1        1.100   3.535   3.276  0.00  0.00    +0.000 A 
ATOM     22  C   LIG    1        0.899   4.690   2.543  0.00  0.00    +0.000 A 
ATOM     23  C   LIG    1        0.105   4.662   1.411  0.00  0.00    +0.000 A 
ATOM     24  C   LIG    1       -0.484   3.474   1.018  0.00  0.00    -0.080 A 
ATOM     25  C   LIG    1       -1.353   3.446  -0.223  0.00  0.00    +0.070 C 
ATOM     26  C   LIG    1       -0.610   2.674  -1.317  0.00  0.00    +0.030 C 
ENDBRANCH  15  16
ENDBRANCH   2  15
TORSDOF 4
