REMARK  Name = ZINCpk00000xT6gx.0
REMARK                            x       y       z     vdW  Elec       q    Type
REMARK                         _______ _______ _______ _____ _____    ______ ____
ROOT
ATOM      1  N   LIG    1       -2.016   2.009  -0.784  0.00  0.00    -0.540 N 
ATOM      2  C   LIG    1       -2.209   1.800   0.655  0.00  0.00    +0.260 C 
ATOM      3  C   LIG    1       -0.787   1.610   1.239  0.00  0.00    +0.080 C 
ATOM      4  C   LIG    1       -0.013   1.086   0.008  0.00  0.00    +0.150 C 
ATOM      5  C   LIG    1       -0.793   1.611  -1.176  0.00  0.00    +0.540 C 
ATOM      6  O   LIG    1       -0.377   1.665  -2.314  0.00  0.00    -0.480 OA
ENDROOT
BRANCH   1  11
ATOM      7  C   LIG    1       -4.373   3.588  -4.891  0.00  0.00    +0.160 C 
ATOM      8  C   LIG    1       -4.056   3.264  -3.453  0.00  0.00    +0.090 A 
ATOM      9  N   LIG    1       -4.836   3.489  -2.427  0.00  0.00    -0.290 NA
ATOM     10  N   LIG    1       -4.182   3.048  -1.270  0.00  0.00    -0.390 N 
ATOM     11  C   LIG    1       -2.979   2.550  -1.637  0.00  0.00    +0.320 A 
ATOM     12  C   LIG    1       -4.707   3.114   0.096  0.00  0.00    +0.350 C 
ATOM     13  C   LIG    1       -2.876   2.678  -2.988  0.00  0.00    -0.120 A 
ENDBRANCH   1  11
BRANCH   4  14
ATOM     14  N   LIG    1        1.357   1.617  -0.002  0.00  0.00    -0.520 NA
ATOM     15  C   LIG    1        2.072   1.254   1.228  0.00  0.00    +0.190 C 
BRANCH  14  16
ATOM     16  C   LIG    1        2.090   1.161  -1.191  0.00  0.00    +0.290 C 
BRANCH  16  17
ATOM     17  C   LIG    1        3.391   1.913  -1.297  0.00  0.00    +0.020 A 
ATOM     18  C   LIG    1        4.587   1.497  -0.832  0.00  0.00    +0.120 A 
ATOM     19  N   LIG    1        5.488   2.472  -1.140  0.00  0.00    -0.460 N 
ATOM     20  C   LIG    1        6.924   2.490  -0.851  0.00  0.00    +0.270 C 
ATOM     21  C   LIG    1        7.591   3.552  -1.732  0.00  0.00    +0.030 C 
ATOM     22  C   LIG    1        6.828   4.873  -1.607  0.00  0.00    +0.020 C 
ATOM     23  C   LIG    1        5.457   4.731  -2.280  0.00  0.00    +0.160 C 
ATOM     24  C   LIG    1        4.814   3.459  -1.777  0.00  0.00    +0.210 A 
ATOM     25  N   LIG    1        3.563   3.117  -1.867  0.00  0.00    -0.470 NA
ENDBRANCH  16  17
ENDBRANCH  14  16
ENDBRANCH   4  14
TORSDOF 4
