REMARK  Name = ZINCrH00000No4xf.0
REMARK                            x       y       z     vdW  Elec       q    Type
REMARK                         _______ _______ _______ _____ _____    ______ ____
ROOT
ATOM      1  C   LIG    1       -0.019   1.490   0.023  0.00  0.00    +0.240 C 
ENDROOT
BRANCH   1   2
ATOM      2  C   LIG    1        1.377   2.051   0.109  0.00  0.00    +0.530 C 
ATOM      3  N   LIG    1        2.039   2.385  -1.016  0.00  0.00    -0.600 N 
ATOM      4  C   LIG    1        1.375   2.314  -2.325  0.00  0.00    +0.260 C 
ATOM      5  C   LIG    1        1.523   3.675  -3.022  0.00  0.00    +0.010 C 
ATOM      6  C   LIG    1        3.006   4.049  -3.089  0.00  0.00    +0.020 C 
ATOM      7  C   LIG    1        3.568   4.172  -1.671  0.00  0.00    +0.010 C 
ATOM      8  C   LIG    1        3.441   2.822  -0.958  0.00  0.00    +0.280 C 
ATOM      9  O   LIG    1        1.904   2.203   1.191  0.00  0.00    -0.510 OA
ENDBRANCH   1   2
BRANCH   1  10
ATOM     10  C   LIG    1        0.041   0.071  -0.482  0.00  0.00    -0.120 A 
ATOM     11  C   LIG    1        0.445  -0.947   0.362  0.00  0.00    +0.040 A 
ATOM     12  C   LIG    1        0.496  -2.248  -0.100  0.00  0.00    +0.010 A 
ATOM     13  C   LIG    1        0.151  -2.531  -1.408  0.00  0.00    +0.030 A 
ATOM     14  C   LIG    1       -0.248  -1.513  -2.253  0.00  0.00    +0.010 A 
ATOM     15  C   LIG    1       -0.302  -0.212  -1.790  0.00  0.00    +0.030 A 
ENDBRANCH   1  10
BRANCH   1  16
ATOM     16  O   LIG    1       -0.631   1.510   1.340  0.00  0.00    -0.290 OA
BRANCH  16  17
ATOM     17  C   LIG    1       -1.969   1.652   1.390  0.00  0.00    +0.520 C 
ATOM     18  O   LIG    1       -2.607   1.756   0.363  0.00  0.00    -0.460 OA
BRANCH  17  23
ATOM     19  C   LIG    1       -2.589   1.591   5.004  0.00  0.00    +0.290 A 
ATOM     20  N   LIG    1       -3.905   1.729   5.097  0.00  0.00    -0.490 NA
ATOM     21  C   LIG    1       -4.655   1.848   4.016  0.00  0.00    +0.390 A 
ATOM     22  C   LIG    1       -4.050   1.827   2.765  0.00  0.00    -0.110 A 
ATOM     23  C   LIG    1       -2.663   1.681   2.701  0.00  0.00    +0.180 A 
ATOM     24 CL   LIG    1       -4.996   1.980   1.318  0.00  0.00    +0.010 Cl
ATOM     25  N   LIG    1       -1.973   1.561   3.833  0.00  0.00    -0.440 NA
BRANCH  19  27
ATOM     26  C   LIG    1       -2.953   1.534   7.715  0.00  0.00    +0.140 C 
ATOM     27  S   LIG    1       -1.636   1.437   6.478  0.00  0.00    +0.040 S 
ENDBRANCH  19  27
ENDBRANCH  17  23
ENDBRANCH  16  17
ENDBRANCH   1  16
TORSDOF 6
