REMARK  Name = ZINCqH0000007jWH.1
REMARK                            x       y       z     vdW  Elec       q    Type
REMARK                         _______ _______ _______ _____ _____    ______ ____
ROOT
ATOM      1  C   LIG    1       -4.013  -5.706  -2.196  0.00  0.00    -0.650 A 
ATOM      2  C   LIG    1       -3.970  -4.446  -1.632  0.00  0.00    +0.150 A 
ATOM      3  C   LIG    1       -2.812  -3.686  -1.723  0.00  0.00    +0.140 A 
ATOM      4  C   LIG    1       -1.696  -4.199  -2.372  0.00  0.00    +0.070 A 
ATOM      5  C   LIG    1       -1.743  -5.462  -2.929  0.00  0.00    +0.050 A 
ATOM      6  C   LIG    1       -2.901  -6.215  -2.842  0.00  0.00    +0.040 A 
ATOM      7 CL   LIG    1       -2.956  -7.802  -3.544  0.00  0.00    -0.040 Cl
ENDROOT
BRANCH   3   8
ATOM      8  N   LIG    1       -2.767  -2.406  -1.157  0.00  0.00    -0.670 N 
ATOM      9  H   LIG    1       -1.939  -2.074  -0.776  0.00  0.00    +0.420 HD
ATOM     10  C   LIG    1       -3.873  -1.637  -1.142  0.00  0.00    +0.540 C 
ATOM     11  O   LIG    1       -4.881  -2.014  -1.701  0.00  0.00    -0.510 OA
BRANCH  10  12
ATOM     12  C   LIG    1       -3.857  -0.309  -0.430  0.00  0.00    -0.070 C 
ATOM     13  C   LIG    1       -3.943   0.954  -1.290  0.00  0.00    +0.060 C 
ATOM     14  C   LIG    1       -5.145   0.518  -0.449  0.00  0.00    +0.010 C 
ATOM     15  C   LIG    1       -5.473   1.343   0.797  0.00  0.00    +0.060 C 
ENDBRANCH  10  12
ENDBRANCH   3   8
BRANCH   1  16
ATOM     16  S   LIG    1       -5.485  -6.670  -2.086  0.00  0.00    +2.690 S 
ATOM     17  O   LIG    1       -6.447  -5.859  -1.425  0.00  0.00    -0.940 OA
ATOM     18  O   LIG    1       -5.092  -7.950  -1.613  0.00  0.00    -0.930 OA
BRANCH  16  19
ATOM     19  N   LIG    1       -6.042  -6.892  -3.630  0.00  0.00    -1.050 N 
ATOM     20  H   LIG    1       -6.102  -7.787  -3.999  0.00  0.00    +0.430 HD
BRANCH  19  24
ATOM     21  C   LIG    1       -7.181  -3.607  -5.928  0.00  0.00    +0.120 A 
ATOM     22  C   LIG    1       -6.393  -4.602  -6.485  0.00  0.00    +0.000 A 
ATOM     23  C   LIG    1       -6.014  -5.691  -5.724  0.00  0.00    +0.050 A 
ATOM     24  C   LIG    1       -6.424  -5.789  -4.401  0.00  0.00    +0.100 A 
ATOM     25  C   LIG    1       -7.218  -4.795  -3.846  0.00  0.00    +0.060 A 
ATOM     26  C   LIG    1       -7.591  -3.704  -4.606  0.00  0.00    -0.040 A 
BRANCH  21  28
ATOM     27  C   LIG    1       -8.366  -1.548  -6.040  0.00  0.00    +0.250 C 
ATOM     28  O   LIG    1       -7.554  -2.535  -6.678  0.00  0.00    -0.320 OA
ENDBRANCH  21  28
ENDBRANCH  19  24
ENDBRANCH  16  19
ENDBRANCH   1  16
TORSDOF 6
