REMARK  Name = ZINCqH000000149Q.0
REMARK                            x       y       z     vdW  Elec       q    Type
REMARK                         _______ _______ _______ _____ _____    ______ ____
ROOT
ATOM      1  N   LIG    1       -5.081  -2.356   0.231  0.00  0.00    -0.530 NA
ATOM      2  C   LIG    1       -5.811  -1.588  -0.786  0.00  0.00    +0.170 C 
ATOM      3  C   LIG    1       -5.395  -2.068  -2.180  0.00  0.00    +0.300 C 
ATOM      4  N   LIG    1       -5.584  -3.526  -2.248  0.00  0.00    -0.600 N 
ATOM      5  C   LIG    1       -4.995  -4.353  -1.184  0.00  0.00    +0.300 C 
ATOM      6  C   LIG    1       -6.277  -4.088  -3.258  0.00  0.00    +0.600 C 
ATOM      7  O   LIG    1       -6.875  -3.385  -4.050  0.00  0.00    -0.540 OA
ATOM      8  C   LIG    1       -5.427  -3.783   0.171  0.00  0.00    +0.170 C 
ENDROOT
BRANCH   6   9
ATOM      9  C   LIG    1       -6.309  -5.553  -3.403  0.00  0.00    +0.010 A 
ATOM     10  C   LIG    1       -7.106  -6.190  -4.290  0.00  0.00    -0.040 A 
ATOM     11  S   LIG    1       -6.851  -7.875  -4.150  0.00  0.00    +0.230 S 
ATOM     12  C   LIG    1       -5.695  -7.631  -2.916  0.00  0.00    +0.060 A 
ATOM     13  N   LIG    1       -5.550  -6.376  -2.674  0.00  0.00    -0.440 NA
BRANCH  12  14
ATOM     14  C   LIG    1       -4.946  -8.733  -2.211  0.00  0.00    +0.050 C 
ATOM     15  C   LIG    1       -5.090 -10.151  -2.766  0.00  0.00    +0.040 C 
ATOM     16  C   LIG    1       -5.770  -9.772  -1.449  0.00  0.00    +0.050 C 
ENDBRANCH  12  14
ENDBRANCH   6   9
BRANCH   1  17
ATOM     17  C   LIG    1       -5.320  -1.812   1.574  0.00  0.00    +0.270 C 
BRANCH  17  20
ATOM     18  C   LIG    1       -3.076   1.018   2.017  0.00  0.00    +0.070 A 
ATOM     19  N   LIG    1       -3.466  -0.211   1.966  0.00  0.00    -0.450 NA
ATOM     20  C   LIG    1       -4.731  -0.428   1.668  0.00  0.00    +0.080 A 
ATOM     21  C   LIG    1       -5.449   0.679   1.456  0.00  0.00    -0.100 A 
ATOM     22  S   LIG    1       -4.383   2.066   1.671  0.00  0.00    +0.120 S 
BRANCH  18  24
ATOM     23  C   LIG    1       -0.703   0.886   1.310  0.00  0.00    +0.070 C 
ATOM     24  C   LIG    1       -1.674   1.466   2.340  0.00  0.00    +0.010 C 
ATOM     25  C   LIG    1       -1.605   2.994   2.303  0.00  0.00    +0.040 C 
ATOM     26  C   LIG    1       -1.291   0.972   3.737  0.00  0.00    +0.070 C 
ENDBRANCH  18  24
ENDBRANCH  17  20
ENDBRANCH   1  17
TORSDOF 5
