REMARK  Name = ZINCrD00000hQ74o.0
REMARK                            x       y       z     vdW  Elec       q    Type
REMARK                         _______ _______ _______ _____ _____    ______ ____
ROOT
ATOM      1  C   LIG    1       -2.425  -2.873   0.046  0.00  0.00    +0.340 C 
ATOM      2  C   LIG    1       -2.243  -3.541  -1.321  0.00  0.00    +0.240 C 
ATOM      3  O   LIG    1       -0.988  -4.225  -1.347  0.00  0.00    -0.360 OA
ATOM      4  C   LIG    1        0.148  -3.371  -1.193  0.00  0.00    +0.220 C 
ATOM      5  C   LIG    1        0.088  -2.693   0.176  0.00  0.00    +0.260 C 
ATOM      6  N   LIG    1       -1.232  -2.060   0.329  0.00  0.00    -0.610 N 
ATOM      7  C   LIG    1       -1.344  -0.773   0.712  0.00  0.00    +0.570 C 
ATOM      8  O   LIG    1       -2.434  -0.234   0.721  0.00  0.00    -0.520 OA
ENDROOT
BRANCH   1  13
ATOM      9  C   LIG    1       -6.806  -0.690   1.104  0.00  0.00    +0.210 C 
ATOM     10  C   LIG    1       -5.496  -1.059   0.458  0.00  0.00    +0.170 A 
ATOM     11  N   LIG    1       -4.981  -0.511  -0.603  0.00  0.00    -0.380 NA
ATOM     12  O   LIG    1       -3.916  -1.028  -0.866  0.00  0.00    +0.090 OA
ATOM     13  C   LIG    1       -3.646  -1.990   0.022  0.00  0.00    +0.200 A 
ATOM     14  N   LIG    1       -4.645  -2.015   0.871  0.00  0.00    -0.480 NA
ENDBRANCH   1  13
BRANCH   7  15
ATOM     15  C   LIG    1       -0.143  -0.017   1.119  0.00  0.00    -0.180 A 
ATOM     16  C   LIG    1       -0.115   1.375   0.993  0.00  0.00    +0.130 A 
ATOM     17  C   LIG    1        1.006   2.076   1.375  0.00  0.00    -0.020 A 
ATOM     18  C   LIG    1        2.110   1.402   1.884  0.00  0.00    +0.170 A 
ATOM     19  C   LIG    1        2.086   0.018   2.011  0.00  0.00    -0.080 A 
ATOM     20  C   LIG    1        0.968  -0.691   1.632  0.00  0.00    +0.090 A 
BRANCH  18  21
ATOM     21  O   LIG    1        3.214   2.098   2.259  0.00  0.00    -0.300 OA
BRANCH  21  22
ATOM     22  C   LIG    1        4.354   1.336   2.661  0.00  0.00    +0.160 C 
ATOM     23  C   LIG    1        4.228   0.970   4.141  0.00  0.00    +0.000 C 
ATOM     24  C   LIG    1        5.449   0.155   4.571  0.00  0.00    +0.010 C 
ATOM     25  C   LIG    1        6.717   0.985   4.358  0.00  0.00    +0.010 C 
ATOM     26  C   LIG    1        6.843   1.351   2.878  0.00  0.00    +0.020 C 
ATOM     27  C   LIG    1        5.622   2.166   2.447  0.00  0.00    +0.030 C 
ENDBRANCH  21  22
ENDBRANCH  18  21
ENDBRANCH   7  15
TORSDOF 4
