REMARK  Name = ZINCpe00000VVGe4.0
REMARK                            x       y       z     vdW  Elec       q    Type
REMARK                         _______ _______ _______ _____ _____    ______ ____
ROOT
ATOM      1  N   LIG    1       -3.592   1.949   0.030  0.00  0.00    -0.360 N 
ATOM      2  N   LIG    1       -2.436   1.401   0.021  0.00  0.00    -0.190 NA
ATOM      3  C   LIG    1       -1.305   2.064   0.019  0.00  0.00    +0.050 A 
ATOM      4  C   LIG    1       -1.335   3.536   0.034  0.00  0.00    -0.040 A 
ATOM      5  C   LIG    1       -0.182   4.313   0.038  0.00  0.00    +0.070 A 
ATOM      6  C   LIG    1       -0.292   5.687   0.052  0.00  0.00    +0.050 A 
ATOM      7  C   LIG    1       -1.538   6.301   0.061  0.00  0.00    +0.030 A 
ATOM      8  C   LIG    1       -2.694   5.549   0.044  0.00  0.00    +0.090 A 
ATOM      9  C   LIG    1       -2.604   4.161   0.036  0.00  0.00    -0.140 A 
ATOM     10  C   LIG    1       -3.783   3.284   0.037  0.00  0.00    +0.520 A 
ATOM     11  O   LIG    1       -4.907   3.752   0.044  0.00  0.00    -0.500 OA
ENDROOT
BRANCH   3  12
ATOM     12  C   LIG    1       -0.016   1.344   0.009  0.00  0.00    +0.600 C 
ATOM     13  N   LIG    1        0.002  -0.004   0.002  0.00  0.00    -0.710 N 
ATOM     14  H   LIG    1       -0.831  -0.500   0.007  0.00  0.00    +0.410 HD
ATOM     15  O   LIG    1        1.028   1.966   0.003  0.00  0.00    -0.520 OA
BRANCH  13  16
ATOM     16  C   LIG    1        1.281  -0.719  -0.014  0.00  0.00    +0.270 C 
BRANCH  16  17
ATOM     17  C   LIG    1        1.021  -2.227  -0.020  0.00  0.00    +0.170 C 
BRANCH  17  18
ATOM     18  N   LIG    1        2.303  -2.944  -0.036  0.00  0.00    -0.530 NA
ATOM     19  C   LIG    1        3.020  -2.714  -1.299  0.00  0.00    +0.150 C 
ATOM     20  C   LIG    1        4.373  -3.429  -1.249  0.00  0.00    +0.220 C 
ATOM     21  O   LIG    1        4.162  -4.820  -0.991  0.00  0.00    -0.380 OA
ATOM     22  C   LIG    1        3.468  -5.080   0.231  0.00  0.00    +0.220 C 
ATOM     23  C   LIG    1        2.106  -4.382   0.197  0.00  0.00    +0.160 C 
ENDBRANCH  17  18
ENDBRANCH  16  17
ENDBRANCH  13  16
ENDBRANCH   3  12
BRANCH   1  24
ATOM     24  C   LIG    1       -4.771   1.079   0.030  0.00  0.00    +0.320 C 
BRANCH  24  26
ATOM     25  C   LIG    1       -6.419  -0.123  -1.411  0.00  0.00    +0.030 C 
ATOM     26  C   LIG    1       -5.188   0.785  -1.412  0.00  0.00    +0.000 C 
ENDBRANCH  24  26
ENDBRANCH   1  24
TORSDOF 6
