REMARK  Name = ZINCrH00000tj11G.1
REMARK                            x       y       z     vdW  Elec       q    Type
REMARK                         _______ _______ _______ _____ _____    ______ ____
ROOT
ATOM      1  N   LIG    1       -0.675   1.545   3.712  0.00  0.00    -0.600 N 
ATOM      2  C   LIG    1       -0.417   2.696   4.356  0.00  0.00    +0.610 C 
ATOM      3  C   LIG    1       -1.304   2.842   5.524  0.00  0.00    -0.040 A 
ATOM      4  N   LIG    1       -1.632   3.609   6.545  0.00  0.00    -0.200 NA
ATOM      5  N   LIG    1       -2.577   3.068   7.229  0.00  0.00    -0.380 N 
ATOM      6  H   LIG    1       -2.979   3.451   8.024  0.00  0.00    +0.450 HD
ATOM      7  C   LIG    1       -2.930   1.872   6.671  0.00  0.00    +0.110 A 
ATOM      8  C   LIG    1       -2.135   1.700   5.583  0.00  0.00    -0.180 A 
ATOM      9  O   LIG    1        0.427   3.504   4.021  0.00  0.00    -0.510 OA
ATOM     10  C   LIG    1       -1.750   0.835   4.414  0.00  0.00    +0.360 C 
ENDROOT
BRANCH   7  11
ATOM     11  C   LIG    1       -3.974   0.944   7.158  0.00  0.00    -0.060 A 
ATOM     12  C   LIG    1       -5.313   1.332   7.151  0.00  0.00    +0.050 A 
ATOM     13  C   LIG    1       -6.284   0.462   7.606  0.00  0.00    -0.090 A 
ATOM     14  C   LIG    1       -5.933  -0.794   8.068  0.00  0.00    +0.040 A 
ATOM     15  C   LIG    1       -4.608  -1.189   8.079  0.00  0.00    -0.010 A 
ATOM     16  C   LIG    1       -7.731   0.881   7.598  0.00  0.00    +0.090 C 
ATOM     17  C   LIG    1       -3.623  -0.329   7.621  0.00  0.00    +0.140 A 
BRANCH  17  18
ATOM     18  O   LIG    1       -2.322  -0.718   7.627  0.00  0.00    -0.480 OA
ATOM     19  H   LIG    1       -1.852  -0.508   8.445  0.00  0.00    +0.390 HD
ENDBRANCH  17  18
ENDBRANCH   7  11
BRANCH  10  20
ATOM     20  C   LIG    1       -1.255  -0.503   4.900  0.00  0.00    -0.060 A 
ATOM     21  C   LIG    1        0.028  -0.625   5.399  0.00  0.00    +0.020 A 
ATOM     22  C   LIG    1        0.485  -1.851   5.846  0.00  0.00    +0.020 A 
ATOM     23  C   LIG    1       -0.340  -2.958   5.794  0.00  0.00    -0.020 A 
ATOM     24  C   LIG    1       -1.629  -2.838   5.295  0.00  0.00    +0.110 A 
ATOM     25  C   LIG    1       -2.087  -1.605   4.852  0.00  0.00    +0.010 A 
BRANCH  24  26
ATOM     26  O   LIG    1       -2.443  -3.925   5.242  0.00  0.00    -0.500 OA
ATOM     27  H   LIG    1       -2.976  -4.056   6.038  0.00  0.00    +0.390 HD
ENDBRANCH  24  26
ENDBRANCH  10  20
BRANCH   1  28
ATOM     28  C   LIG    1        0.011   1.072   2.506  0.00  0.00    +0.320 C 
BRANCH  28  30
ATOM     29  C   LIG    1       -0.013   1.086   0.008  0.00  0.00    +0.030 C 
ATOM     30  C   LIG    1       -0.729   1.579   1.267  0.00  0.00    +0.000 C 
ENDBRANCH  28  30
ENDBRANCH   1  28
TORSDOF 6
