REMARK  Name = ZINCrH00000tj11G.0
REMARK                            x       y       z     vdW  Elec       q    Type
REMARK                         _______ _______ _______ _____ _____    ______ ____
ROOT
ATOM      1  N   LIG    1       -6.387   3.969   5.072  0.00  0.00    -0.600 N 
ATOM      2  C   LIG    1       -7.159   3.657   4.014  0.00  0.00    +0.600 C 
ATOM      3  C   LIG    1       -6.349   3.049   2.953  0.00  0.00    -0.060 A 
ATOM      4  C   LIG    1       -5.037   2.989   3.381  0.00  0.00    -0.170 A 
ATOM      5  C   LIG    1       -4.320   2.404   2.331  0.00  0.00    +0.120 A 
ATOM      6  N   LIG    1       -5.176   2.151   1.361  0.00  0.00    -0.220 NA
ATOM      7  N   LIG    1       -6.364   2.511   1.697  0.00  0.00    -0.330 N 
ATOM      8  H   LIG    1       -7.153   2.418   1.140  0.00  0.00    +0.450 HD
ATOM      9  O   LIG    1       -8.357   3.852   3.948  0.00  0.00    -0.520 OA
ATOM     10  C   LIG    1       -5.005   3.579   4.764  0.00  0.00    +0.360 C 
ENDROOT
BRANCH   5  11
ATOM     11  C   LIG    1       -2.862   2.124   2.311  0.00  0.00    -0.030 A 
ATOM     12  C   LIG    1       -1.958   3.097   2.729  0.00  0.00    +0.050 A 
ATOM     13  C   LIG    1       -0.603   2.834   2.704  0.00  0.00    -0.090 A 
ATOM     14  C   LIG    1       -0.140   1.603   2.275  0.00  0.00    +0.040 A 
ATOM     15  C   LIG    1       -1.030   0.629   1.863  0.00  0.00    -0.010 A 
ATOM     16  C   LIG    1        0.375   3.890   3.150  0.00  0.00    +0.100 C 
ATOM     17  C   LIG    1       -2.392   0.881   1.878  0.00  0.00    +0.130 A 
BRANCH  17  18
ATOM     18  O   LIG    1       -3.267  -0.076   1.474  0.00  0.00    -0.490 OA
ATOM     19  H   LIG    1       -3.505  -0.709   2.166  0.00  0.00    +0.390 HD
ENDBRANCH  17  18
ENDBRANCH   5  11
BRANCH  10  20
ATOM     20  C   LIG    1       -4.523   2.552   5.755  0.00  0.00    -0.080 A 
ATOM     21  C   LIG    1       -5.333   1.482   6.090  0.00  0.00    +0.020 A 
ATOM     22  C   LIG    1       -4.891   0.534   6.995  0.00  0.00    +0.030 A 
ATOM     23  C   LIG    1       -3.644   0.661   7.576  0.00  0.00    -0.010 A 
ATOM     24  C   LIG    1       -2.832   1.736   7.246  0.00  0.00    +0.110 A 
ATOM     25  C   LIG    1       -3.275   2.682   6.333  0.00  0.00    +0.010 A 
BRANCH  24  26
ATOM     26  O   LIG    1       -1.605   1.862   7.815  0.00  0.00    -0.500 OA
ATOM     27  H   LIG    1       -1.603   2.369   8.639  0.00  0.00    +0.390 HD
ENDBRANCH  24  26
ENDBRANCH  10  20
BRANCH   1  28
ATOM     28  C   LIG    1       -6.847   4.589   6.316  0.00  0.00    +0.320 C 
BRANCH  28  30
ATOM     29  C   LIG    1       -7.730   4.148   8.611  0.00  0.00    +0.030 C 
ATOM     30  C   LIG    1       -7.250   3.499   7.311  0.00  0.00    +0.000 C 
ENDBRANCH  28  30
ENDBRANCH   1  28
TORSDOF 6
