REMARK  Name = ZINCqH0000000tia.0
REMARK                            x       y       z     vdW  Elec       q    Type
REMARK                         _______ _______ _______ _____ _____    ______ ____
ROOT
ATOM      1  N   LIG    1       -6.211  -1.034   0.046  0.00  0.00    -0.670 N 
ATOM      2  H   LIG    1       -6.202  -2.000  -0.038  0.00  0.00    +0.410 HD
ATOM      3  C   LIG    1       -5.052  -0.347   0.044  0.00  0.00    +0.520 C 
ATOM      4  O   LIG    1       -5.066   0.866   0.066  0.00  0.00    -0.520 OA
ENDROOT
BRANCH   1   8
ATOM      5  C   LIG    1       -9.836   0.993   0.417  0.00  0.00    +0.130 A 
ATOM      6  C   LIG    1       -8.786   1.571  -0.284  0.00  0.00    +0.000 A 
ATOM      7  C   LIG    1       -7.586   0.900  -0.406  0.00  0.00    +0.040 A 
ATOM      8  C   LIG    1       -7.429  -0.353   0.171  0.00  0.00    +0.130 A 
ATOM      9  C   LIG    1       -8.481  -0.934   0.867  0.00  0.00    +0.000 A 
ATOM     10  C   LIG    1       -9.680  -0.260   0.994  0.00  0.00    +0.040 A 
BRANCH   5  13
ATOM     11  C   LIG    1      -13.034   2.374   1.848  0.00  0.00    +0.110 C 
ATOM     12  C   LIG    1      -11.777   1.562   1.673  0.00  0.00    +0.510 C 
ATOM     13  N   LIG    1      -11.055   1.673   0.540  0.00  0.00    -0.670 N 
ATOM     14  H   LIG    1      -11.378   2.225  -0.189  0.00  0.00    +0.410 HD
ATOM     15  O   LIG    1      -11.415   0.807   2.551  0.00  0.00    -0.530 OA
ENDBRANCH   5  13
ENDBRANCH   1   8
BRANCH   3  16
ATOM     16  C   LIG    1       -3.738  -1.085   0.015  0.00  0.00    +0.080 C 
BRANCH  16  17
ATOM     17  C   LIG    1       -2.587  -0.077   0.018  0.00  0.00    +0.070 C 
BRANCH  17  18
ATOM     18  C   LIG    1       -1.274  -0.816  -0.011  0.00  0.00    +0.400 C 
ATOM     19  O   LIG    1       -1.260  -2.028  -0.032  0.00  0.00    -0.450 OA
BRANCH  18  20
ATOM     20  C   LIG    1       -0.007  -0.065  -0.013  0.00  0.00    -0.170 A 
ATOM     21  C   LIG    1       -0.018   1.333   0.011  0.00  0.00    +0.070 A 
ATOM     22  C   LIG    1        1.172   2.026   0.009  0.00  0.00    +0.010 A 
ATOM     23  C   LIG    1        2.381   1.347  -0.017  0.00  0.00    -0.060 A 
ATOM     24  C   LIG    1        3.800   1.876  -0.025  0.00  0.00    +0.080 C 
ATOM     25  C   LIG    1        4.670   0.693  -0.498  0.00  0.00    +0.030 C 
ATOM     26  C   LIG    1        3.831  -0.529  -0.068  0.00  0.00    +0.080 C 
ATOM     27  C   LIG    1        2.400  -0.038  -0.042  0.00  0.00    -0.110 A 
ATOM     28  C   LIG    1        1.213  -0.745  -0.040  0.00  0.00    +0.080 A 
ENDBRANCH  18  20
ENDBRANCH  17  18
ENDBRANCH  16  17
ENDBRANCH   3  16
TORSDOF 6
