REMARK  Name = ZINCpk00000y6xKZ.0
REMARK                            x       y       z     vdW  Elec       q    Type
REMARK                         _______ _______ _______ _____ _____    ______ ____
ROOT
ATOM      1  C   LIG    1       -2.523   1.022   0.019  0.00  0.00    +0.230 C 
ATOM      2  C   LIG    1       -3.371   1.480   1.209  0.00  0.00    +0.220 C 
ATOM      3  N   LIG    1       -4.613   0.696   1.251  0.00  0.00    -0.470 N 
ATOM      4  C   LIG    1       -4.319  -0.740   1.365  0.00  0.00    +0.180 C 
ATOM      5  C   LIG    1       -3.462  -1.176   0.173  0.00  0.00    +0.250 C 
ATOM      6  O   LIG    1       -2.273  -0.382   0.130  0.00  0.00    -0.370 OA
ENDROOT
BRANCH   1  11
ATOM      7  C   LIG    1       -0.049   3.753   0.022  0.00  0.00    +0.570 A 
ATOM      8  N   LIG    1        1.116   3.122   0.008  0.00  0.00    -0.570 NA
ATOM      9  C   LIG    1        1.169   1.800   0.001  0.00  0.00    +0.360 A 
ATOM     10  C   LIG    1       -0.013   1.076   0.008  0.00  0.00    -0.120 A 
ATOM     11  C   LIG    1       -1.214   1.768   0.017  0.00  0.00    +0.220 A 
ATOM     12  N   LIG    1       -1.196   3.090   0.029  0.00  0.00    -0.560 NA
BRANCH   7  14
ATOM     13  C   LIG    1        1.191   5.886   0.022  0.00  0.00    +0.310 C 
ATOM     14  N   LIG    1       -0.068   5.136   0.029  0.00  0.00    -0.590 N 
ATOM     15  C   LIG    1       -1.346   5.852   0.045  0.00  0.00    +0.300 C 
ENDBRANCH   7  14
ENDBRANCH   1  11
BRANCH   3  16
ATOM     16  C   LIG    1       -5.434   1.118   2.285  0.00  0.00    +0.380 A 
ATOM     17  C   LIG    1       -6.664   0.507   2.504  0.00  0.00    -0.170 A 
ATOM     18  C   LIG    1       -7.451   0.968   3.556  0.00  0.00    +0.460 A 
ATOM     19  N   LIG    1       -7.000   1.970   4.309  0.00  0.00    -0.590 NA
ATOM     20  C   LIG    1       -5.828   2.522   4.069  0.00  0.00    +0.570 A 
ATOM     21  N   LIG    1       -5.053   2.111   3.087  0.00  0.00    -0.590 NA
BRANCH  18  22
ATOM     22  N   LIG    1       -8.685   0.393   3.816  0.00  0.00    -0.680 N 
ATOM     23  H   LIG    1       -9.227   0.720   4.551  0.00  0.00    +0.410 HD
BRANCH  22  24
ATOM     24  C   LIG    1       -9.171  -0.708   2.980  0.00  0.00    +0.210 C 
ATOM     25  C   LIG    1      -10.634  -0.665   2.536  0.00  0.00    +0.020 C 
ATOM     26  C   LIG    1      -10.185  -1.671   3.600  0.00  0.00    +0.020 C 
ENDBRANCH  22  24
ENDBRANCH  18  22
ENDBRANCH   3  16
TORSDOF 5
