REMARK  Name = ZINCrD000000CzCt.0
REMARK                            x       y       z     vdW  Elec       q    Type
REMARK                         _______ _______ _______ _____ _____    ______ ____
ROOT
ATOM      1  O   LIG    1        3.955   7.609  -1.500  0.00  0.00    -0.500 OA
ATOM      2  C   LIG    1        4.671   6.822  -0.910  0.00  0.00    +0.600 C 
ATOM      3  N   LIG    1        4.343   6.411   0.330  0.00  0.00    -0.620 N 
ATOM      4  C   LIG    1        3.065   6.798   0.952  0.00  0.00    +0.320 C 
ATOM      5  C   LIG    1        2.264   5.522   1.227  0.00  0.00    +0.290 C 
ATOM      6  N   LIG    1        3.103   4.515   1.863  0.00  0.00    -0.510 N 
ATOM      7  C   LIG    1        4.434   4.484   1.792  0.00  0.00    +0.500 C 
ATOM      8  O   LIG    1        5.019   3.547   2.294  0.00  0.00    -0.500 OA
ATOM      9  C   LIG    1        5.245   5.557   1.118  0.00  0.00    +0.340 C 
ENDROOT
BRANCH   2  10
ATOM     10  C   LIG    1        5.894   6.319  -1.551  0.00  0.00    +0.000 A 
ATOM     11  C   LIG    1        6.766   7.065  -2.281  0.00  0.00    +0.080 A 
ATOM     12  C   LIG    1        7.804   6.209  -2.719  0.00  0.00    -0.130 A 
ATOM     13  C   LIG    1        8.959   6.413  -3.492  0.00  0.00    +0.170 A 
ATOM     14  C   LIG    1        9.801   5.350  -3.753  0.00  0.00    -0.080 A 
ATOM     15  C   LIG    1        9.511   4.086  -3.258  0.00  0.00    +0.100 A 
ATOM     16  C   LIG    1        8.382   3.870  -2.499  0.00  0.00    -0.030 A 
ATOM     17  C   LIG    1        7.517   4.924  -2.220  0.00  0.00    +0.150 A 
ATOM     18  N   LIG    1        6.347   5.013  -1.502  0.00  0.00    -0.580 N 
ATOM     19  H   LIG    1        5.910   4.281  -1.041  0.00  0.00    +0.420 HD
BRANCH  13  20
ATOM     20  O   LIG    1        9.247   7.647  -3.979  0.00  0.00    -0.310 OA
BRANCH  20  21
ATOM     21  C   LIG    1       10.439   7.776  -4.757  0.00  0.00    +0.590 C 
ATOM     22  F   LIG    1       10.359   6.940  -5.875  0.00  0.00    -0.200 F 
ATOM     23  F   LIG    1       11.544   7.412  -3.980  0.00  0.00    -0.200 F 
ENDBRANCH  20  21
ENDBRANCH  13  20
ENDBRANCH   2  10
BRANCH   6  24
ATOM     24  C   LIG    1        2.468   3.509   2.595  0.00  0.00    +0.010 A 
ATOM     25  C   LIG    1        1.141   3.331   2.676  0.00  0.00    -0.040 A 
ATOM     26  C   LIG    1        0.747   2.262   3.463  0.00  0.00    +0.020 A 
ATOM     27  C   LIG    1        1.744   1.577   4.023  0.00  0.00    -0.110 A 
ATOM     28  S   LIG    1        3.285   2.279   3.550  0.00  0.00    +0.230 S 
ENDBRANCH   6  24
TORSDOF 4
