REMARK  Name = ZINCbw0000001gPe.0
REMARK                            x       y       z     vdW  Elec       q    Type
REMARK                         _______ _______ _______ _____ _____    ______ ____
ROOT
ATOM      1  C   LIG    1        2.220   1.067  -0.013  0.00  0.00    -0.320 A 
ATOM      2  C   LIG    1        1.137   1.911   0.002  0.00  0.00    +0.130 A 
ATOM      3  N   LIG    1       -0.015   1.290   0.009  0.00  0.00    -0.420 NA
ATOM      4  C   LIG    1        0.002  -0.004   0.002  0.00  0.00    -0.050 A 
ATOM      5 BR   LIG    1        1.295   3.795   0.009  0.00  0.00    +0.060 Br
ATOM      6  S   LIG    1        1.609  -0.586  -0.017  0.00  0.00    +0.350 S 
ENDROOT
BRANCH   4   7
ATOM      7  C   LIG    1       -1.226  -0.878   0.009  0.00  0.00    +0.510 C 
ATOM      8  F   LIG    1       -0.950  -2.076  -0.659  0.00  0.00    -0.180 F 
ATOM      9  F   LIG    1       -2.274  -0.214  -0.637  0.00  0.00    -0.170 F 
ENDBRANCH   4   7
BRANCH   1  11
ATOM     10  O   LIG    1        4.451   0.609  -0.037  0.00  0.00    -0.440 OA
ATOM     11  C   LIG    1        3.579   1.454  -0.024  0.00  0.00    +0.540 C 
ENDBRANCH   1  11
TORSDOF 2
