REMARK  Name = ZINCqH0000003IHM.0
REMARK                            x       y       z     vdW  Elec       q    Type
REMARK                         _______ _______ _______ _____ _____    ______ ____
ROOT
ATOM      1  C   LIG    1        1.709  -1.885  -0.025  0.00  0.00    +0.390 C 
ATOM      2  C   LIG    1        1.517  -2.490   1.367  0.00  0.00    +0.070 C 
ENDROOT
BRANCH   1   3
ATOM      3  C   LIG    1        1.264  -0.445  -0.012  0.00  0.00    +0.180 A 
ATOM      4  N   LIG    1        2.041   0.610  -0.014  0.00  0.00    -0.460 NA
ATOM      5  C   LIG    1        1.208   1.675  -0.001  0.00  0.00    +0.220 A 
ATOM      6  N   LIG    1       -0.014   1.209   0.009  0.00  0.00    -0.370 NA
ATOM      7  O   LIG    1        0.002  -0.004   0.002  0.00  0.00    +0.090 OA
BRANCH   5   8
ATOM      8  C   LIG    1        1.605   3.104   0.004  0.00  0.00    -0.040 A 
ATOM      9  C   LIG    1        2.954   3.454  -0.002  0.00  0.00    +0.110 A 
ATOM     10  C   LIG    1        3.319   4.785  -0.003  0.00  0.00    -0.010 A 
ATOM     11  C   LIG    1        2.347   5.772   0.013  0.00  0.00    +0.120 A 
ATOM     12  C   LIG    1        1.005   5.428   0.024  0.00  0.00    -0.010 A 
ATOM     13  F   LIG    1        2.709   7.074   0.017  0.00  0.00    -0.130 F 
ATOM     14  C   LIG    1        0.631   4.101   0.019  0.00  0.00    +0.090 A 
ENDBRANCH   5   8
ENDBRANCH   1   3
BRANCH   1  16
ATOM     15  C   LIG    1        1.409  -3.754  -1.559  0.00  0.00    +0.570 C 
ATOM     16  N   LIG    1        0.911  -2.634  -0.998  0.00  0.00    -0.730 N 
ATOM     17  H   LIG    1        0.024  -2.324  -1.240  0.00  0.00    +0.410 HD
ATOM     18  O   LIG    1        2.520  -4.143  -1.256  0.00  0.00    -0.530 OA
BRANCH  15  22
ATOM     19  C   LIG    1       -0.906  -5.927  -4.380  0.00  0.00    +0.160 A 
ATOM     20  C   LIG    1        0.365  -6.372  -4.036  0.00  0.00    -0.020 A 
ATOM     21  C   LIG    1        1.119  -5.671  -3.121  0.00  0.00    +0.140 A 
ATOM     22  C   LIG    1        0.604  -4.509  -2.539  0.00  0.00    -0.180 A 
ATOM     23  C   LIG    1       -0.676  -4.067  -2.884  0.00  0.00    +0.090 A 
ATOM     24  C   LIG    1       -1.421  -4.772  -3.803  0.00  0.00    -0.080 A 
BRANCH  19  25
ATOM     25  O   LIG    1       -1.645  -6.621  -5.281  0.00  0.00    -0.310 OA
BRANCH  25  27
ATOM     26  C   LIG    1       -3.621  -7.016  -6.616  0.00  0.00    +0.070 C 
ATOM     27  C   LIG    1       -2.943  -6.107  -5.589  0.00  0.00    +0.190 C 
ENDBRANCH  25  27
ENDBRANCH  19  25
ENDBRANCH  15  22
ENDBRANCH   1  16
TORSDOF 6
