REMARK  Name = ZINCvU00000006bm.0
REMARK                            x       y       z     vdW  Elec       q    Type
REMARK                         _______ _______ _______ _____ _____    ______ ____
ROOT
ATOM      1  C   LIG    1       -1.187   1.624   0.017  0.00  0.00    +0.540 C 
ATOM      2  N   LIG    1       -0.011   0.966   0.007  0.00  0.00    -0.610 N 
ATOM      3  H   LIG    1        0.002  -0.004   0.002  0.00  0.00    +0.430 HD
ATOM      4  O   LIG    1       -1.204   2.837   0.023  0.00  0.00    -0.490 OA
ENDROOT
BRANCH   2   5
ATOM      5  C   LIG    1        1.183   1.677  -0.000  0.00  0.00    +0.280 A 
ATOM      6  N   LIG    1        2.368   1.151  -0.014  0.00  0.00    -0.500 NA
ATOM      7  C   LIG    1        3.397   1.987  -0.020  0.00  0.00    +0.120 A 
ATOM      8  C   LIG    1        3.078   3.294  -0.010  0.00  0.00    -0.100 A 
ATOM      9  S   LIG    1        1.322   3.433   0.000  0.00  0.00    +0.220 S 
BRANCH   7  10
ATOM     10  C   LIG    1        4.803   1.514  -0.036  0.00  0.00    -0.000 A 
ATOM     11  C   LIG    1        5.849   2.433  -0.047  0.00  0.00    +0.060 A 
ATOM     12  C   LIG    1        7.157   1.990  -0.057  0.00  0.00    +0.030 A 
ATOM     13  C   LIG    1        7.429   0.632  -0.067  0.00  0.00    +0.070 A 
ATOM     14  C   LIG    1        6.391  -0.288  -0.061  0.00  0.00    +0.070 A 
ATOM     15  F   LIG    1        6.662  -1.612  -0.070  0.00  0.00    -0.130 F 
ATOM     16  F   LIG    1        8.710   0.203  -0.081  0.00  0.00    -0.130 F 
ATOM     17  C   LIG    1        5.080   0.148  -0.046  0.00  0.00    +0.060 A 
ENDBRANCH   7  10
ENDBRANCH   2   5
BRANCH   1  18
ATOM     18  C   LIG    1       -2.482   0.853   0.018  0.00  0.00    +0.130 C 
BRANCH  18  19
ATOM     19  S   LIG    1       -3.874   2.010   0.031  0.00  0.00    +0.100 S 
BRANCH  19  25
ATOM     20  N   LIG    1       -6.550   1.185   0.040  0.00  0.00    -0.420 N 
ATOM     21  C   LIG    1       -7.212  -0.014   0.036  0.00  0.00    +0.200 A 
ATOM     22  N   LIG    1       -6.310  -0.955   0.027  0.00  0.00    -0.280 NA
ATOM     23  N   LIG    1       -5.133  -0.439   0.018  0.00  0.00    -0.290 NA
ATOM     24  C   LIG    1       -8.706  -0.210   0.042  0.00  0.00    +0.200 C 
ATOM     25  C   LIG    1       -5.218   0.872   0.032  0.00  0.00    +0.140 A 
BRANCH  20  31
ATOM     26  C   LIG    1       -7.292   5.473   2.333  0.00  0.00    +0.100 C 
ATOM     27  C   LIG    1       -7.494   4.565   1.147  0.00  0.00    -0.070 A 
ATOM     28  C   LIG    1       -8.242   4.995   0.067  0.00  0.00    +0.030 A 
ATOM     29  C   LIG    1       -8.429   4.165  -1.023  0.00  0.00    +0.040 A 
ATOM     30  C   LIG    1       -7.870   2.902  -1.035  0.00  0.00    +0.030 A 
ATOM     31  C   LIG    1       -7.119   2.467   0.049  0.00  0.00    +0.100 A 
ATOM     32  C   LIG    1       -6.937   3.301   1.143  0.00  0.00    +0.030 A 
ENDBRANCH  20  31
ENDBRANCH  19  25
ENDBRANCH  18  19
ENDBRANCH   1  18
TORSDOF 6
