REMARK  Name = ZINCvU00000009sA.0
REMARK                            x       y       z     vdW  Elec       q    Type
REMARK                         _______ _______ _______ _____ _____    ______ ____
ROOT
ATOM      1  C   LIG    1        7.869   2.530   3.420  0.00  0.00    +0.220 A 
ATOM      2  C   LIG    1        6.484   2.387   3.508  0.00  0.00    -0.010 A 
ATOM      3  C   LIG    1        5.703   2.523   2.397  0.00  0.00    +0.120 A 
ATOM      4  C   LIG    1        6.295   2.806   1.161  0.00  0.00    -0.170 A 
ATOM      5  C   LIG    1        5.482   2.956  -0.047  0.00  0.00    +0.030 A 
ATOM      6  C   LIG    1        6.115   3.225  -1.219  0.00  0.00    -0.040 A 
ATOM      7  C   LIG    1        7.518   3.364  -1.241  0.00  0.00    +0.510 A 
ATOM      8  O   LIG    1        8.259   3.224  -0.130  0.00  0.00    -0.260 OA
ATOM      9  O   LIG    1        8.073   3.610  -2.297  0.00  0.00    -0.450 OA
ATOM     10  C   LIG    1        7.692   2.951   1.065  0.00  0.00    +0.180 A 
ATOM     11  C   LIG    1        8.471   2.811   2.202  0.00  0.00    +0.020 A 
ENDROOT
BRANCH   1  13
ATOM     12  C   LIG    1        9.774   3.125   4.708  0.00  0.00    +0.650 C 
ATOM     13  N   LIG    1        8.654   2.389   4.564  0.00  0.00    -0.650 N 
ATOM     14  H   LIG    1        8.393   1.762   5.257  0.00  0.00    +0.430 HD
ATOM     15  O   LIG    1       10.049   3.979   3.889  0.00  0.00    -0.540 OA
BRANCH  12  16
ATOM     16  O   LIG    1       10.587   2.914   5.760  0.00  0.00    -0.360 OA
BRANCH  16  18
ATOM     17  C   LIG    1       12.570   3.360   7.101  0.00  0.00    +0.080 C 
ATOM     18  C   LIG    1       11.776   3.743   5.851  0.00  0.00    +0.240 C 
ENDBRANCH  16  18
ENDBRANCH  12  16
ENDBRANCH   1  13
BRANCH   5  19
ATOM     19  C   LIG    1        3.983   2.810   0.006  0.00  0.00    +0.160 C 
BRANCH  19  20
ATOM     20  S   LIG    1        3.552   1.059   0.162  0.00  0.00    +0.100 S 
BRANCH  20  21
ATOM     21  C   LIG    1        1.795   1.178   0.200  0.00  0.00    +0.120 A 
ATOM     22  N   LIG    1        1.089   2.283   0.128  0.00  0.00    -0.280 NA
ATOM     23  N   LIG    1       -0.164   1.995   0.185  0.00  0.00    -0.260 NA
ATOM     24  C   LIG    1       -0.308   0.697   0.296  0.00  0.00    +0.230 A 
ATOM     25  O   LIG    1        0.929   0.152   0.308  0.00  0.00    -0.200 OA
BRANCH  24  26
ATOM     26  C   LIG    1       -1.587  -0.036   0.391  0.00  0.00    -0.040 A 
ATOM     27  C   LIG    1       -1.592  -1.427   0.500  0.00  0.00    +0.050 A 
ATOM     28  C   LIG    1       -2.790  -2.105   0.593  0.00  0.00    +0.000 A 
ATOM     29  C   LIG    1       -3.986  -1.409   0.568  0.00  0.00    +0.050 A 
ATOM     30  C   LIG    1       -3.989  -0.030   0.455  0.00  0.00    +0.020 A 
ATOM     31  C   LIG    1       -2.798   0.660   0.366  0.00  0.00    -0.030 A 
ATOM     32  C   LIG    1       -2.803   2.162   0.243  0.00  0.00    +0.110 C 
ENDBRANCH  24  26
ENDBRANCH  20  21
ENDBRANCH  19  20
ENDBRANCH   5  19
TORSDOF 7
