REMARK  Name = ZINCpk00000ebJ8v.0
REMARK                            x       y       z     vdW  Elec       q    Type
REMARK                         _______ _______ _______ _____ _____    ______ ____
ROOT
ATOM      1  O   LIG    1       -1.262   3.522   0.853  0.00  0.00    -0.530 OA
ATOM      2  C   LIG    1       -2.338   4.050   1.056  0.00  0.00    +0.590 C 
ATOM      3  N   LIG    1       -3.394   3.303   1.436  0.00  0.00    -0.610 N 
ATOM      4  C   LIG    1       -3.355   1.867   1.771  0.00  0.00    +0.260 C 
ATOM      5  C   LIG    1       -4.799   1.364   1.526  0.00  0.00    +0.040 C 
ATOM      6  C   LIG    1       -5.638   2.577   2.009  0.00  0.00    +0.050 C 
ATOM      7  C   LIG    1       -4.775   3.784   1.585  0.00  0.00    +0.210 C 
ENDROOT
BRANCH   2   8
ATOM      8  C   LIG    1       -2.489   5.508   0.885  0.00  0.00    -0.240 A 
ATOM      9  C   LIG    1       -1.363   6.344   0.879  0.00  0.00    +0.160 A 
ATOM     10  C   LIG    1       -1.550   7.690   0.714  0.00  0.00    -0.060 A 
ATOM     11  C   LIG    1       -2.843   8.188   0.568  0.00  0.00    +0.340 A 
ATOM     12  N   LIG    1       -3.891   7.376   0.582  0.00  0.00    -0.510 NA
ATOM     13  C   LIG    1       -3.756   6.075   0.734  0.00  0.00    +0.340 A 
BRANCH  11  14
ATOM     14  N   LIG    1       -3.036   9.549   0.405  0.00  0.00    -0.480 N 
ATOM     15  C   LIG    1       -2.439  10.302   1.518  0.00  0.00    +0.180 C 
ATOM     16  C   LIG    1       -2.622  11.802   1.269  0.00  0.00    +0.230 C 
ATOM     17  O   LIG    1       -4.015  12.086   1.108  0.00  0.00    -0.380 OA
ATOM     18  C   LIG    1       -4.628  11.370   0.033  0.00  0.00    +0.230 C 
ATOM     19  C   LIG    1       -4.465   9.866   0.270  0.00  0.00    +0.190 C 
ENDBRANCH  11  14
ENDBRANCH   2   8
BRANCH   7  20
ATOM     20  C   LIG    1       -4.835   4.870   2.662  0.00  0.00    +0.300 C 
BRANCH  20  21
ATOM     21  N   LIG    1       -6.164   5.485   2.661  0.00  0.00    -0.370 N 
ATOM     22  C   LIG    1       -6.984   5.603   3.726  0.00  0.00    +0.220 A 
ATOM     23  C   LIG    1       -8.109   6.232   3.313  0.00  0.00    -0.120 A 
ATOM     24  C   LIG    1       -7.974   6.502   1.947  0.00  0.00    +0.230 A 
ATOM     25  N   LIG    1       -6.809   6.053   1.555  0.00  0.00    -0.280 NA
ENDBRANCH  20  21
ENDBRANCH   7  20
TORSDOF 4
