REMARK  Name = ZINCrD0000073nrT.0
REMARK                            x       y       z     vdW  Elec       q    Type
REMARK                         _______ _______ _______ _____ _____    ______ ____
ROOT
ATOM      1  C   LIG    1       -3.734   3.657   4.582  0.00  0.00    +0.200 C 
ATOM      2  C   LIG    1       -3.333   5.134   4.553  0.00  0.00    +0.070 C 
ENDROOT
BRANCH   1   3
ATOM      3  C   LIG    1       -4.630   3.403   5.767  0.00  0.00    +0.520 C 
ATOM      4  N   LIG    1       -5.844   3.983   5.830  0.00  0.00    -0.670 N 
ATOM      5  H   LIG    1       -6.116   4.616   5.148  0.00  0.00    +0.410 HD
ATOM      6  O   LIG    1       -4.257   2.676   6.664  0.00  0.00    -0.490 OA
BRANCH   4   7
ATOM      7  C   LIG    1       -6.714   3.672   6.881  0.00  0.00    +0.140 A 
ATOM      8  C   LIG    1       -6.211   3.418   8.150  0.00  0.00    +0.020 A 
ATOM      9  C   LIG    1       -7.074   3.111   9.183  0.00  0.00    +0.030 A 
ATOM     10  C   LIG    1       -8.440   3.055   8.960  0.00  0.00    -0.110 A 
ATOM     11  C   LIG    1       -9.576   2.745   9.911  0.00  0.00    +0.080 C 
ATOM     12  C   LIG    1      -10.847   3.261   9.204  0.00  0.00    +0.030 C 
ATOM     13  C   LIG    1      -10.453   3.183   7.714  0.00  0.00    +0.080 C 
ATOM     14  C   LIG    1       -8.944   3.307   7.697  0.00  0.00    -0.080 A 
ATOM     15  C   LIG    1       -8.083   3.621   6.660  0.00  0.00    -0.010 A 
ENDBRANCH   4   7
ENDBRANCH   1   3
BRANCH   1  16
ATOM     16  O   LIG    1       -2.542   2.835   4.690  0.00  0.00    -0.330 OA
BRANCH  16  17
ATOM     17  C   LIG    1       -1.962   2.443   3.538  0.00  0.00    +0.520 C 
ATOM     18  O   LIG    1       -2.439   2.781   2.473  0.00  0.00    -0.490 OA
BRANCH  17  22
ATOM     19  C   LIG    1        1.532   0.033   3.634  0.00  0.00    +0.210 A 
ATOM     20  C   LIG    1        0.932   0.438   4.822  0.00  0.00    -0.120 A 
ATOM     21  C   LIG    1       -0.200   1.218   4.796  0.00  0.00    +0.170 A 
ATOM     22  C   LIG    1       -0.751   1.608   3.571  0.00  0.00    -0.200 A 
ATOM     23  C   LIG    1       -0.145   1.199   2.373  0.00  0.00    +0.230 A 
ATOM     24  C   LIG    1        0.991   0.409   2.413  0.00  0.00    -0.110 A 
BRANCH  19  26
ATOM     25  C   LIG    1        3.151  -1.095   4.958  0.00  0.00    +0.250 C 
ATOM     26  O   LIG    1        2.649  -0.738   3.669  0.00  0.00    -0.310 OA
ENDBRANCH  19  26
BRANCH  23  27
ATOM     27  O   LIG    1       -0.673   1.571   1.180  0.00  0.00    -0.280 OA
ATOM     28  C   LIG    1       -0.002   1.117   0.003  0.00  0.00    +0.250 C 
ENDBRANCH  23  27
ENDBRANCH  17  22
ENDBRANCH  16  17
ENDBRANCH   1  16
TORSDOF 7
