REMARK  Name = ZINCkj000005kNv4.0
REMARK                            x       y       z     vdW  Elec       q    Type
REMARK                         _______ _______ _______ _____ _____    ______ ____
ROOT
ATOM      1  C   LIG    1        2.569   6.962  -1.835  0.00  0.00    +0.610 C 
ATOM      2  N   LIG    1        1.904   6.302  -0.867  0.00  0.00    -0.620 N 
ATOM      3  C   LIG    1        2.609   5.812   0.325  0.00  0.00    +0.320 C 
ATOM      4  C   LIG    1        2.321   4.316   0.488  0.00  0.00    +0.030 C 
ATOM      5  C   LIG    1        0.807   4.092   0.517  0.00  0.00    +0.170 C 
ATOM      6  C   LIG    1        0.195   4.561  -0.805  0.00  0.00    +0.030 C 
ATOM      7  C   LIG    1        0.459   6.059  -0.983  0.00  0.00    +0.300 C 
ATOM      8  O   LIG    1        3.748   7.224  -1.693  0.00  0.00    -0.520 OA
ENDROOT
BRANCH   1  15
ATOM      9  C   LIG    1        3.559   6.411  -4.800  0.00  0.00    +0.170 C 
ATOM     10  C   LIG    1        2.297   7.126  -4.393  0.00  0.00    +0.130 A 
ATOM     11  N   LIG    1        1.408   7.633  -5.202  0.00  0.00    -0.290 NA
ATOM     12  N   LIG    1        0.384   8.212  -4.445  0.00  0.00    -0.350 N 
ATOM     13  C   LIG    1        0.667   8.040  -3.144  0.00  0.00    +0.270 A 
ATOM     14  C   LIG    1       -0.801   8.886  -4.982  0.00  0.00    +0.370 C 
ATOM     15  C   LIG    1        1.868   7.365  -3.068  0.00  0.00    -0.300 A 
ENDBRANCH   1  15
BRANCH   5  16
ATOM     16  N   LIG    1        0.527   2.663   0.707  0.00  0.00    -0.510 N 
ATOM     17  H   LIG    1        0.858   2.146  -0.094  0.00  0.00    +0.430 HD
ATOM     18  H   LIG    1        0.999   2.335   1.536  0.00  0.00    +0.430 HD
BRANCH  16  19
ATOM     19  C   LIG    1       -0.920   2.463   0.854  0.00  0.00    +0.280 C 
BRANCH  19  20
ATOM     20  C   LIG    1       -1.212   0.974   1.052  0.00  0.00    -0.090 C 
ATOM     21  C   LIG    1       -2.037   0.267  -0.025  0.00  0.00    +0.050 C 
ATOM     22  C   LIG    1       -2.659   0.569   1.340  0.00  0.00    +0.070 C 
ENDBRANCH  19  20
ENDBRANCH  16  19
ENDBRANCH   5  16
TORSDOF 4
