REMARK  Name = ZINCkj000005l0oo.0
REMARK                            x       y       z     vdW  Elec       q    Type
REMARK                         _______ _______ _______ _____ _____    ______ ____
ROOT
ATOM      1  C   LIG    1        0.881   3.790   1.201  0.00  0.00    -0.030 C 
ATOM      2  C   LIG    1       -0.586   3.901   1.627  0.00  0.00    +0.070 C 
ATOM      3  C   LIG    1       -0.659   4.496   3.035  0.00  0.00    +0.260 C 
ATOM      4  N   LIG    1       -0.042   5.827   3.042  0.00  0.00    -0.380 N 
ATOM      5  C   LIG    1        1.382   5.718   2.705  0.00  0.00    +0.250 C 
ATOM      6  H   LIG    1       -0.503   6.414   2.362  0.00  0.00    +0.430 HD
ATOM      7  C   LIG    1        1.534   5.173   1.283  0.00  0.00    +0.070 C 
ENDROOT
BRANCH   1   8
ATOM      8  C   LIG    1        0.958   3.272  -0.237  0.00  0.00    +0.330 C 
BRANCH   8  14
ATOM      9  C   LIG    1        2.417   0.549  -0.477  0.00  0.00    +0.320 C 
ATOM     10  N   LIG    1        0.965   0.736  -0.422  0.00  0.00    -0.450 N 
ATOM     11  C   LIG    1        0.017  -0.251  -0.466  0.00  0.00    +0.140 A 
ATOM     12  C   LIG    1       -1.182   0.357  -0.387  0.00  0.00    +0.160 A 
ATOM     13  N   LIG    1       -0.972   1.679  -0.297  0.00  0.00    -0.480 NA
ATOM     14  C   LIG    1        0.312   1.913  -0.317  0.00  0.00    +0.150 A 
ENDBRANCH   8  14
BRANCH   8  15
ATOM     15  O   LIG    1        0.275   4.177  -1.107  0.00  0.00    -0.540 OA
ATOM     16  H   LIG    1       -0.662   4.293  -0.895  0.00  0.00    +0.390 HD
ENDBRANCH   8  15
ENDBRANCH   1   8
BRANCH   4  17
ATOM     17  C   LIG    1       -0.184   6.423   4.377  0.00  0.00    +0.280 C 
BRANCH  17  18
ATOM     18  C   LIG    1        0.321   7.867   4.348  0.00  0.00    +0.210 C 
BRANCH  18  19
ATOM     19  O   LIG    1       -0.499   8.640   3.470  0.00  0.00    -0.370 OA
BRANCH  19  20
ATOM     20  C   LIG    1       -0.110  10.012   3.370  0.00  0.00    +0.130 C 
ATOM     21  C   LIG    1       -1.225  11.058   3.291  0.00  0.00    +0.030 C 
ATOM     22  C   LIG    1       -0.391  10.731   2.049  0.00  0.00    +0.030 C 
ENDBRANCH  19  20
ENDBRANCH  18  19
ENDBRANCH  17  18
ENDBRANCH   4  17
TORSDOF 7
