REMARK  Name = ZINCqH00000018eO.0
REMARK                            x       y       z     vdW  Elec       q    Type
REMARK                         _______ _______ _______ _____ _____    ______ ____
ROOT
ATOM      1  C   LIG    1       -0.750   3.109   1.275  0.00  0.00    +0.050 C 
ATOM      2  C   LIG    1       -0.729   1.579   1.267  0.00  0.00    -0.070 C 
ATOM      3  C   LIG    1       -2.164   1.050   1.278  0.00  0.00    +0.070 C 
ENDROOT
BRANCH   2   4
ATOM      4  C   LIG    1        0.000   1.080   2.488  0.00  0.00    +0.530 C 
ATOM      5  N   LIG    1       -0.453   1.393   3.718  0.00  0.00    -0.720 N 
ATOM      6  H   LIG    1       -1.248   1.939   3.817  0.00  0.00    +0.400 HD
ATOM      7  O   LIG    1        0.994   0.397   2.363  0.00  0.00    -0.540 OA
BRANCH   5   8
ATOM      8  C   LIG    1        0.256   0.907   4.905  0.00  0.00    +0.230 C 
ATOM      9  C   LIG    1       -0.230  -0.503   5.251  0.00  0.00    -0.020 C 
ATOM     10  C   LIG    1        0.460  -0.974   6.533  0.00  0.00    +0.220 C 
ATOM     11  O   LIG    1        0.182  -0.053   7.590  0.00  0.00    -0.370 OA
ATOM     12  C   LIG    1        0.638   1.274   7.342  0.00  0.00    +0.120 C 
ATOM     13  C   LIG    1        0.317   2.172   8.551  0.00  0.00    +0.050 C 
ATOM     14  C   LIG    1        1.626   2.173   9.380  0.00  0.00    +0.020 C 
ATOM     15  C   LIG    1        2.724   2.192   8.287  0.00  0.00    +0.020 C 
ATOM     16  C   LIG    1        2.164   1.283   7.172  0.00  0.00    +0.000 C 
ATOM     17  C   LIG    1       -0.028   1.839   6.088  0.00  0.00    +0.010 C 
ENDBRANCH   5   8
ENDBRANCH   2   4
BRANCH   2  18
ATOM     18  C   LIG    1       -0.013   1.086   0.008  0.00  0.00    +0.180 C 
BRANCH  18  19
ATOM     19  C   LIG    1       -0.742   1.585  -1.213  0.00  0.00    +0.290 A 
ATOM     20  N   LIG    1       -2.004   1.388  -1.460  0.00  0.00    -0.480 NA
ATOM     21  C   LIG    1       -2.335   1.974  -2.639  0.00  0.00    +0.050 A 
ATOM     22  C   LIG    1       -3.524   2.072  -3.366  0.00  0.00    +0.060 A 
ATOM     23  C   LIG    1       -3.541   2.741  -4.557  0.00  0.00    +0.000 A 
ATOM     24  C   LIG    1       -2.386   3.325  -5.057  0.00  0.00    +0.030 A 
ATOM     25  C   LIG    1       -1.201   3.241  -4.357  0.00  0.00    +0.010 A 
ATOM     26  C   LIG    1       -1.165   2.566  -3.145  0.00  0.00    +0.050 A 
ATOM     27  N   LIG    1       -0.174   2.302  -2.220  0.00  0.00    -0.600 N 
ATOM     28  H   LIG    1        0.754   2.578  -2.277  0.00  0.00    +0.420 HD
ENDBRANCH  18  19
ENDBRANCH   2  18
TORSDOF 4
