REMARK  Name = ZINCpk000005CeKB.0
REMARK                            x       y       z     vdW  Elec       q    Type
REMARK                         _______ _______ _______ _____ _____    ______ ____
ROOT
ATOM      1  C   LIG    1        2.538   5.679   0.134  0.00  0.00    +0.040 C 
ATOM      2  C   LIG    1        2.555   4.155   0.000  0.00  0.00    +0.230 C 
ENDROOT
BRANCH   2   3
ATOM      3  N   LIG    1        3.299   3.575   1.121  0.00  0.00    -0.730 N 
ATOM      4  H   LIG    1        2.825   3.268   1.910  0.00  0.00    +0.400 HD
ATOM      5  C   LIG    1        4.641   3.467   1.056  0.00  0.00    +0.560 C 
ATOM      6  O   LIG    1        5.234   3.851   0.068  0.00  0.00    -0.530 OA
BRANCH   5   7
ATOM      7  C   LIG    1        5.390   2.881   2.188  0.00  0.00    -0.140 A 
ATOM      8  C   LIG    1        4.712   2.445   3.327  0.00  0.00    +0.050 A 
ATOM      9  C   LIG    1        5.418   1.894   4.378  0.00  0.00    +0.000 A 
ATOM     10  C   LIG    1        6.795   1.785   4.308  0.00  0.00    +0.060 A 
ATOM     11  C   LIG    1        7.474   2.221   3.184  0.00  0.00    -0.100 A 
ATOM     12  C   LIG    1        6.780   2.768   2.124  0.00  0.00    +0.100 A 
BRANCH  11  13
ATOM     13  C   LIG    1        8.974   2.098   3.116  0.00  0.00    +0.240 C 
BRANCH  13  14
ATOM     14  O   LIG    1        9.574   3.283   3.645  0.00  0.00    -0.570 OA
ATOM     15  H   LIG    1       10.541   3.273   3.633  0.00  0.00    +0.380 HD
ENDBRANCH  13  14
ENDBRANCH  11  13
ENDBRANCH   5   7
ENDBRANCH   2   3
BRANCH   2  16
ATOM     16  C   LIG    1        1.120   3.626   0.011  0.00  0.00    +0.280 C 
BRANCH  16  17
ATOM     17  N   LIG    1        1.140   2.161   0.003  0.00  0.00    -0.730 N 
ATOM     18  H   LIG    1        1.986   1.687  -0.008  0.00  0.00    +0.400 HD
ATOM     19  C   LIG    1       -0.018   1.471   0.010  0.00  0.00    +0.570 C 
ATOM     20  O   LIG    1       -1.079   2.065   0.018  0.00  0.00    -0.540 OA
BRANCH  19  21
ATOM     21  C   LIG    1        0.002  -0.004   0.002  0.00  0.00    -0.180 A 
ATOM     22  C   LIG    1       -1.198  -0.721   0.010  0.00  0.00    +0.130 A 
ATOM     23  C   LIG    1       -1.177  -2.097   0.002  0.00  0.00    -0.050 A 
ATOM     24  C   LIG    1        0.037  -2.776  -0.014  0.00  0.00    +0.220 A 
ATOM     25  C   LIG    1        1.237  -2.066  -0.021  0.00  0.00    +0.010 A 
ATOM     26  F   LIG    1        2.414  -2.728  -0.037  0.00  0.00    -0.140 F 
ATOM     27  C   LIG    1        1.222  -0.688  -0.019  0.00  0.00    +0.070 A 
BRANCH  24  28
ATOM     28  N   LIG    1        0.054  -4.168  -0.022  0.00  0.00    -0.860 N 
ATOM     29  H   LIG    1        0.900  -4.643  -0.033  0.00  0.00    +0.410 HD
ATOM     30  H   LIG    1       -0.779  -4.663  -0.017  0.00  0.00    +0.410 HD
ENDBRANCH  24  28
ENDBRANCH  19  21
ENDBRANCH  16  17
ENDBRANCH   2  16
TORSDOF 8
