REMARK  Name = ZINCpk00000l7P27.1
REMARK                            x       y       z     vdW  Elec       q    Type
REMARK                         _______ _______ _______ _____ _____    ______ ____
ROOT
ATOM      1  C   LIG    1       -4.167   2.521  -1.349  0.00  0.00    +0.600 C 
ATOM      2  N   LIG    1       -2.928   3.046  -1.276  0.00  0.00    -0.480 N 
ATOM      3  H   LIG    1       -2.734   3.894  -1.706  0.00  0.00    +0.420 HD
ATOM      4  O   LIG    1       -4.409   1.458  -0.810  0.00  0.00    -0.500 OA
ENDROOT
BRANCH   1  12
ATOM      5  O   LIG    1       -8.902   0.234  -2.328  0.00  0.00    -0.520 OA
ATOM      6  C   LIG    1       -8.097   1.065  -2.693  0.00  0.00    +0.530 C 
ATOM      7  C   LIG    1       -7.985   1.420  -4.141  0.00  0.00    +0.040 C 
ATOM      8  C   LIG    1       -8.830   2.642  -4.524  0.00  0.00    +0.080 C 
ATOM      9  C   LIG    1       -8.660   3.709  -3.428  0.00  0.00    +0.150 C 
ATOM     10  C   LIG    1       -7.218   3.768  -3.001  0.00  0.00    -0.020 A 
ATOM     11  C   LIG    1       -6.612   2.816  -2.268  0.00  0.00    +0.090 A 
ATOM     12  C   LIG    1       -5.227   3.233  -2.082  0.00  0.00    -0.230 A 
ATOM     13  C   LIG    1       -5.125   4.429  -2.741  0.00  0.00    +0.270 A 
ATOM     14  O   LIG    1       -6.317   4.725  -3.275  0.00  0.00    -0.150 OA
ATOM     15  N   LIG    1       -7.293   1.676  -1.793  0.00  0.00    -0.650 N 
ATOM     16  H   LIG    1       -7.191   1.351  -0.885  0.00  0.00    +0.420 HD
ENDBRANCH   1  12
BRANCH   2  17
ATOM     17  N   LIG    1       -1.919   2.368  -0.580  0.00  0.00    -0.430 N 
ATOM     18  C   LIG    1       -0.811   1.623  -1.196  0.00  0.00    +0.280 C 
ATOM     19  C   LIG    1       -0.013   1.086   0.008  0.00  0.00    +0.290 C 
ATOM     20  N   LIG    1       -0.752   1.586   1.177  0.00  0.00    -0.630 N 
ATOM     21  C   LIG    1       -1.811   2.295   0.753  0.00  0.00    +0.710 C 
ATOM     22  O   LIG    1       -2.599   2.825   1.512  0.00  0.00    -0.550 OA
BRANCH  20  23
ATOM     23  C   LIG    1       -0.392   1.345   2.576  0.00  0.00    +0.380 C 
BRANCH  23  24
ATOM     24  C   LIG    1        0.539   2.459   3.061  0.00  0.00    +0.430 C 
ATOM     25  F   LIG    1        1.697   2.473   2.276  0.00  0.00    -0.180 F 
ATOM     26  F   LIG    1        0.884   2.230   4.397  0.00  0.00    -0.180 F 
ATOM     27  F   LIG    1       -0.113   3.692   2.952  0.00  0.00    -0.170 F 
ENDBRANCH  23  24
ENDBRANCH  20  23
ENDBRANCH   2  17
TORSDOF 4
