REMARK  Name = ZINCqH0000005TW5.0
REMARK                            x       y       z     vdW  Elec       q    Type
REMARK                         _______ _______ _______ _____ _____    ______ ____
ROOT
ATOM      1  C   LIG    1       -5.751   1.026  -0.485  0.00  0.00    -0.180 A 
ATOM      2  C   LIG    1       -6.687   0.264  -1.190  0.00  0.00    +0.260 A 
ATOM      3  C   LIG    1       -6.441  -0.089  -2.499  0.00  0.00    -0.080 A 
ATOM      4  C   LIG    1       -5.268   0.308  -3.122  0.00  0.00    +0.250 A 
ATOM      5  C   LIG    1       -4.337   1.065  -2.442  0.00  0.00    -0.070 A 
ATOM      6  C   LIG    1       -4.564   1.427  -1.121  0.00  0.00    +0.290 A 
ENDROOT
BRANCH   5   7
ATOM      7  N   LIG    1       -3.091   1.489  -3.121  0.00  0.00    +0.030 N 
ATOM      8  O   LIG    1       -2.312   2.234  -2.554  0.00  0.00    -0.080 OA
ATOM      9  O   LIG    1       -2.845   1.092  -4.246  0.00  0.00    -0.170 OA
ENDBRANCH   5   7
BRANCH   3  10
ATOM     10  N   LIG    1       -7.434  -0.896  -3.243  0.00  0.00    +0.030 N 
ATOM     11  O   LIG    1       -7.219  -1.210  -4.400  0.00  0.00    -0.140 OA
ATOM     12  O   LIG    1       -8.465  -1.247  -2.698  0.00  0.00    -0.140 OA
ENDBRANCH   3  10
BRANCH   1  13
ATOM     13  C   LIG    1       -6.008   1.407   0.914  0.00  0.00    +0.520 C 
ATOM     14  O   LIG    1       -5.246   2.159   1.489  0.00  0.00    -0.490 OA
BRANCH  13  16
ATOM     15  C   LIG    1       -7.277   1.338   2.935  0.00  0.00    +0.290 C 
ATOM     16  O   LIG    1       -7.087   0.920   1.558  0.00  0.00    -0.340 OA
ENDBRANCH  13  16
ENDBRANCH   1  13
BRANCH   6  17
ATOM     17  N   LIG    1       -3.626   2.184  -0.433  0.00  0.00    -0.620 N 
ATOM     18  H   LIG    1       -4.066   2.740   0.286  0.00  0.00    +0.390 HD
BRANCH  17  19
ATOM     19  C   LIG    1       -2.572   1.331   0.133  0.00  0.00    +0.220 C 
ATOM     20  C   LIG    1       -2.980   0.879   1.536  0.00  0.00    +0.030 C 
BRANCH  19  21
ATOM     21  C   LIG    1       -1.284   2.109   0.210  0.00  0.00    -0.070 A 
ATOM     22  C   LIG    1       -1.313   3.488   0.292  0.00  0.00    +0.040 A 
ATOM     23  C   LIG    1       -0.131   4.202   0.358  0.00  0.00    +0.000 A 
ATOM     24  C   LIG    1        1.080   3.536   0.345  0.00  0.00    +0.010 A 
ATOM     25  C   LIG    1        1.109   2.156   0.268  0.00  0.00    +0.000 A 
ATOM     26  C   LIG    1       -0.072   1.442   0.203  0.00  0.00    -0.080 A 
ATOM     27  C   LIG    1       -0.041  -0.062   0.119  0.00  0.00    +0.080 C 
ENDBRANCH  19  21
ENDBRANCH  17  19
ENDBRANCH   6  17
TORSDOF 7
