REMARK  Name = ZINCpe000000X48a.0
REMARK                            x       y       z     vdW  Elec       q    Type
REMARK                         _______ _______ _______ _____ _____    ______ ____
ROOT
ATOM      1  C   LIG    1       -2.303   1.018   8.164  0.00  0.00    +0.310 C 
ENDROOT
BRANCH   1   5
ATOM      2  N   LIG    1       -1.156   1.395   4.692  0.00  0.00    -0.730 N 
ATOM      3  H   LIG    1       -0.760   2.280   4.714  0.00  0.00    +0.400 HD
ATOM      4  C   LIG    1       -1.706   0.874   5.807  0.00  0.00    +0.710 C 
ATOM      5  N   LIG    1       -1.706   1.584   6.952  0.00  0.00    -0.740 N 
ATOM      6  H   LIG    1       -1.310   2.469   6.974  0.00  0.00    +0.400 HD
ATOM      7  O   LIG    1       -2.202  -0.235   5.779  0.00  0.00    -0.580 OA
BRANCH   2  11
ATOM      8  C   LIG    1       -0.013   1.086   0.008  0.00  0.00    +0.070 C 
ATOM      9  C   LIG    1       -0.729   1.579   1.267  0.00  0.00    +0.180 C 
ATOM     10  C   LIG    1        0.002   1.079   2.531  0.00  0.00    +0.050 C 
ATOM     11  C   LIG    1       -1.156   0.623   3.446  0.00  0.00    +0.250 C 
ATOM     12  C   LIG    1       -2.410   0.907   2.646  0.00  0.00    +0.470 C 
ATOM     13  O   LIG    1       -3.526   1.028   3.095  0.00  0.00    -0.420 OA
ATOM     14  O   LIG    1       -2.067   1.001   1.348  0.00  0.00    -0.350 OA
ENDBRANCH   2  11
ENDBRANCH   1   5
BRANCH   1  15
ATOM     15  C   LIG    1       -2.172   2.020   9.313  0.00  0.00    +0.160 C 
ATOM     16  C   LIG    1       -2.791   1.428  10.582  0.00  0.00    +0.170 C 
ATOM     17  N   LIG    1       -2.594   2.362  11.700  0.00  0.00    -0.520 NA
ATOM     18  C   LIG    1       -1.163   2.623  11.913  0.00  0.00    +0.150 C 
ATOM     19  C   LIG    1       -0.559   3.204  10.631  0.00  0.00    +0.230 C 
ATOM     20  O   LIG    1       -0.789   2.297   9.549  0.00  0.00    -0.380 OA
BRANCH  17  21
ATOM     21  C   LIG    1       -3.224   1.856  12.926  0.00  0.00    +0.270 C 
BRANCH  21  22
ATOM     22  C   LIG    1       -2.658   0.500  13.260  0.00  0.00    -0.130 A 
ATOM     23  C   LIG    1       -3.258  -0.642  12.763  0.00  0.00    +0.010 A 
ATOM     24  C   LIG    1       -2.735  -1.885  13.066  0.00  0.00    +0.000 A 
ATOM     25  C   LIG    1       -1.618  -1.988  13.873  0.00  0.00    +0.000 A 
ATOM     26  C   LIG    1       -1.021  -0.846  14.375  0.00  0.00    +0.000 A 
ATOM     27  C   LIG    1       -1.541   0.398  14.068  0.00  0.00    +0.010 A 
ENDBRANCH  21  22
ENDBRANCH  17  21
ENDBRANCH   1  15
TORSDOF 5
