REMARK  Name = ZINCpe000000XEPT.0
REMARK                            x       y       z     vdW  Elec       q    Type
REMARK                         _______ _______ _______ _____ _____    ______ ____
ROOT
ATOM      1  C   LIG    1       -7.702   4.884   2.096  0.00  0.00    -0.090 A 
ATOM      2  C   LIG    1       -7.902   3.536   2.336  0.00  0.00    +0.050 A 
ATOM      3  C   LIG    1       -6.856   2.646   2.201  0.00  0.00    +0.080 A 
ATOM      4  C   LIG    1       -5.595   3.107   1.822  0.00  0.00    -0.120 A 
ATOM      5  C   LIG    1       -5.399   4.469   1.587  0.00  0.00    +0.050 A 
ATOM      6  C   LIG    1       -6.454   5.348   1.720  0.00  0.00    +0.020 A 
ENDROOT
BRANCH   4   7
ATOM      7  C   LIG    1       -4.470   2.159   1.677  0.00  0.00    +0.570 C 
ATOM      8  N   LIG    1       -3.574   2.324   0.683  0.00  0.00    -0.610 N 
ATOM      9  C   LIG    1       -3.763   3.361  -0.343  0.00  0.00    +0.260 C 
ATOM     10  C   LIG    1       -3.606   2.711  -1.722  0.00  0.00    +0.230 C 
ATOM     11  O   LIG    1       -2.371   1.992  -1.766  0.00  0.00    -0.350 OA
ATOM     12  C   LIG    1       -2.289   0.913  -0.832  0.00  0.00    +0.150 C 
ATOM     13  C   LIG    1       -2.378   1.471   0.593  0.00  0.00    +0.290 C 
ATOM     14  O   LIG    1       -4.353   1.231   2.453  0.00  0.00    -0.520 OA
BRANCH  12  15
ATOM     15  C   LIG    1       -0.977   0.193  -1.009  0.00  0.00    +0.530 C 
ATOM     16  O   LIG    1       -0.153   0.617  -1.792  0.00  0.00    -0.510 OA
ATOM     17  N   LIG    1       -0.721  -0.926  -0.301  0.00  0.00    -0.850 N 
ATOM     18  H   LIG    1       -1.379  -1.265   0.325  0.00  0.00    +0.400 HD
ATOM     19  H   LIG    1        0.122  -1.391  -0.418  0.00  0.00    +0.410 HD
ENDBRANCH  12  15
ENDBRANCH   4   7
BRANCH   1  20
ATOM     20  C   LIG    1       -8.848   5.851   2.245  0.00  0.00    +0.380 C 
BRANCH  20  27
ATOM     21  C   LIG    1       -7.374   8.371   3.285  0.00  0.00    +0.140 C 
ATOM     22  C   LIG    1       -8.253   7.446   4.087  0.00  0.00    +0.090 A 
ATOM     23  C   LIG    1       -8.546   7.565   5.403  0.00  0.00    -0.120 A 
ATOM     24  C   LIG    1       -9.390   6.506   5.753  0.00  0.00    +0.080 A 
ATOM     25  N   LIG    1       -9.601   5.781   4.684  0.00  0.00    -0.290 NA
ATOM     26  C   LIG    1       -9.963   6.248   7.123  0.00  0.00    +0.160 C 
ATOM     27  N   LIG    1       -8.889   6.351   3.621  0.00  0.00    -0.370 N 
ENDBRANCH  20  27
ENDBRANCH   1  20
TORSDOF 4
