REMARK  Name = ZINCqH00000011sr.0
REMARK                            x       y       z     vdW  Elec       q    Type
REMARK                         _______ _______ _______ _____ _____    ______ ____
ROOT
ATOM      1  C   LIG    1        3.799   0.092   6.944  0.00  0.00    +0.240 C 
ENDROOT
BRANCH   1   4
ATOM      2  N   LIG    1        2.543   0.845   4.950  0.00  0.00    -0.630 N 
ATOM      3  H   LIG    1        3.263   1.470   4.772  0.00  0.00    +0.430 HD
ATOM      4  C   LIG    1        2.608   0.031   6.023  0.00  0.00    +0.510 C 
ATOM      5  O   LIG    1        1.708  -0.751   6.246  0.00  0.00    -0.470 OA
BRANCH   2   9
ATOM      6  C   LIG    1       -0.009   1.093   2.501  0.00  0.00    +0.050 A 
ATOM      7  N   LIG    1       -0.416   0.170   3.326  0.00  0.00    -0.360 NA
ATOM      8  O   LIG    1        0.380  -0.018   4.217  0.00  0.00    +0.110 OA
ATOM      9  C   LIG    1        1.447   0.788   4.102  0.00  0.00    +0.210 A 
ATOM     10  C   LIG    1        1.237   1.542   2.983  0.00  0.00    -0.100 A 
BRANCH   6  12
ATOM     11  C   LIG    1       -0.054   1.032   0.022  0.00  0.00    +0.050 C 
ATOM     12  C   LIG    1       -0.733   1.589   1.275  0.00  0.00    +0.010 C 
ATOM     13  C   LIG    1       -2.188   1.119   1.318  0.00  0.00    +0.040 C 
ATOM     14  C   LIG    1       -0.691   3.118   1.241  0.00  0.00    +0.050 C 
ENDBRANCH   6  12
ENDBRANCH   2   9
ENDBRANCH   1   4
BRANCH   1  15
ATOM     15  N   LIG    1        3.591  -0.823   8.075  0.00  0.00    -0.520 NA
BRANCH  15  16
ATOM     16  C   LIG    1        4.453  -0.463   9.208  0.00  0.00    +0.310 C 
BRANCH  16  17
ATOM     17  C   LIG    1        3.889   0.749   9.903  0.00  0.00    -0.020 A 
ATOM     18  C   LIG    1        2.933   0.740  10.849  0.00  0.00    -0.030 A 
ATOM     19  C   LIG    1        2.712   2.087  11.220  0.00  0.00    -0.060 A 
ATOM     20  C   LIG    1        3.546   2.837  10.479  0.00  0.00    +0.160 A 
ATOM     21  O   LIG    1        4.261   2.022   9.687  0.00  0.00    -0.180 OA
ENDBRANCH  16  17
ENDBRANCH  15  16
BRANCH  15  22
ATOM     22  C   LIG    1        3.809  -2.218   7.669  0.00  0.00    +0.310 C 
BRANCH  22  23
ATOM     23  C   LIG    1        3.353  -3.139   8.772  0.00  0.00    -0.020 A 
ATOM     24  C   LIG    1        2.116  -3.648   8.910  0.00  0.00    -0.020 A 
ATOM     25  C   LIG    1        2.132  -4.453  10.072  0.00  0.00    -0.070 A 
ATOM     26  C   LIG    1        3.378  -4.387  10.575  0.00  0.00    +0.160 A 
ATOM     27  O   LIG    1        4.115  -3.594   9.779  0.00  0.00    -0.180 OA
ENDBRANCH  22  23
ENDBRANCH  15  22
ENDBRANCH   1  15
TORSDOF 8
