REMARK  Name = ZINCpk000004Mjnp.0
REMARK                            x       y       z     vdW  Elec       q    Type
REMARK                         _______ _______ _______ _____ _____    ______ ____
ROOT
ATOM      1  C   LIG    1       -4.737   4.714   0.943  0.00  0.00    +0.250 C 
ATOM      2  C   LIG    1       -5.024   5.811  -0.086  0.00  0.00    +0.050 C 
ATOM      3  C   LIG    1       -4.260   7.079   0.301  0.00  0.00    +0.210 C 
ATOM      4  N   LIG    1       -4.678   7.516   1.639  0.00  0.00    -0.460 N 
ATOM      5  C   LIG    1       -4.369   6.497   2.651  0.00  0.00    +0.190 C 
ATOM      6  C   LIG    1       -5.137   5.212   2.334  0.00  0.00    +0.180 C 
ENDROOT
BRANCH   4   7
ATOM      7  C   LIG    1       -4.104   8.731   1.967  0.00  0.00    +0.410 A 
ATOM      8  C   LIG    1       -4.269   9.851   1.139  0.00  0.00    -0.220 A 
ATOM      9  C   LIG    1       -4.961  10.115  -0.121  0.00  0.00    -0.010 A 
ATOM     10  C   LIG    1       -4.747  11.407  -0.419  0.00  0.00    +0.230 A 
ATOM     11  N   LIG    1       -3.972  11.985   0.553  0.00  0.00    -0.570 N 
ATOM     12  H   LIG    1       -3.685  12.912   0.557  0.00  0.00    +0.420 HD
ATOM     13  C   LIG    1       -3.664  11.064   1.516  0.00  0.00    +0.330 A 
ATOM     14  N   LIG    1       -2.958  11.100   2.646  0.00  0.00    -0.550 NA
ATOM     15  C   LIG    1       -2.830  10.024   3.392  0.00  0.00    +0.540 A 
ATOM     16  N   LIG    1       -3.385   8.867   3.078  0.00  0.00    -0.580 NA
ENDBRANCH   4   7
BRANCH   1  18
ATOM     17  C   LIG    1       -2.825   3.500   0.044  0.00  0.00    +0.530 C 
ATOM     18  N   LIG    1       -3.307   4.393   0.930  0.00  0.00    -0.720 N 
ATOM     19  H   LIG    1       -2.708   4.824   1.560  0.00  0.00    +0.400 HD
ATOM     20  O   LIG    1       -3.574   2.962  -0.743  0.00  0.00    -0.540 OA
BRANCH  17  24
ATOM     21  C   LIG    1        0.002  -0.004   0.002  0.00  0.00    +0.040 C 
ATOM     22  C   LIG    1       -0.019   1.526   0.010  0.00  0.00    -0.090 C 
ATOM     23  C   LIG    1       -0.945   2.123   1.083  0.00  0.00    +0.050 C 
ATOM     24  C   LIG    1       -1.355   3.170   0.031  0.00  0.00    -0.030 C 
ATOM     25  C   LIG    1        1.383   2.139   0.000  0.00  0.00    +0.050 C 
ATOM     26  C   LIG    1       -0.965   2.135  -1.038  0.00  0.00    +0.060 C 
ENDBRANCH  17  24
ENDBRANCH   1  18
BRANCH   6  27
ATOM     27  O   LIG    1       -4.820   4.215   3.308  0.00  0.00    -0.550 OA
ATOM     28  H   LIG    1       -5.047   4.464   4.214  0.00  0.00    +0.380 HD
ENDBRANCH   6  27
TORSDOF 4
