REMARK  Name = ZINCvU00000007fe.0
REMARK                            x       y       z     vdW  Elec       q    Type
REMARK                         _______ _______ _______ _____ _____    ______ ____
ROOT
ATOM      1  N   LIG    1       -6.465   4.736  -1.631  0.00  0.00    -0.660 N 
ATOM      2  H   LIG    1       -7.032   4.954  -0.874  0.00  0.00    +0.420 HD
ATOM      3  C   LIG    1       -5.264   4.158  -1.429  0.00  0.00    +0.510 C 
ATOM      4  O   LIG    1       -4.587   3.821  -2.377  0.00  0.00    -0.500 OA
ENDROOT
BRANCH   1  11
ATOM      5  C   LIG    1       -7.666   6.155  -3.182  0.00  0.00    +0.060 A 
ATOM      6  C   LIG    1       -8.090   6.431  -4.472  0.00  0.00    +0.060 A 
ATOM      7  C   LIG    1       -7.748   5.583  -5.509  0.00  0.00    +0.040 A 
ATOM      8  C   LIG    1       -6.984   4.457  -5.263  0.00  0.00    -0.010 A 
ATOM      9  C   LIG    1       -6.553   4.177  -3.979  0.00  0.00    +0.050 A 
ATOM     10 CL   LIG    1       -6.559   3.396  -6.570  0.00  0.00    -0.050 Cl
ATOM     11  C   LIG    1       -6.896   5.020  -2.933  0.00  0.00    +0.160 A 
BRANCH   5  12
ATOM     12  O   LIG    1       -8.002   6.988  -2.161  0.00  0.00    -0.250 OA
BRANCH  12  17
ATOM     13  C   LIG    1       -4.383  11.081  -0.791  0.00  0.00    +0.100 C 
ATOM     14  C   LIG    1       -5.351   9.986  -1.158  0.00  0.00    -0.110 A 
ATOM     15  C   LIG    1       -6.583   9.916  -0.534  0.00  0.00    +0.050 A 
ATOM     16  C   LIG    1       -7.473   8.914  -0.868  0.00  0.00    -0.010 A 
ATOM     17  C   LIG    1       -7.129   7.975  -1.831  0.00  0.00    +0.110 A 
ATOM     18  C   LIG    1       -5.889   8.043  -2.451  0.00  0.00    -0.060 A 
ATOM     19  C   LIG    1       -5.006   9.052  -2.117  0.00  0.00    +0.040 A 
ENDBRANCH  12  17
ENDBRANCH   5  12
ENDBRANCH   1  11
BRANCH   3  20
ATOM     20  C   LIG    1       -4.763   3.932  -0.026  0.00  0.00    +0.380 C 
BRANCH  20  21
ATOM     21  N   LIG    1       -3.445   3.295  -0.076  0.00  0.00    -0.420 N 
ATOM     22  N   LIG    1       -3.364   1.902  -0.086  0.00  0.00    -0.240 NA
ATOM     23  C   LIG    1       -2.231   1.265  -0.129  0.00  0.00    +0.150 A 
ATOM     24  C   LIG    1       -0.973   2.011  -0.168  0.00  0.00    -0.060 A 
ATOM     25  C   LIG    1        0.264   1.366  -0.214  0.00  0.00    +0.040 A 
ATOM     26  C   LIG    1        1.419   2.114  -0.255  0.00  0.00    +0.050 A 
ATOM     27  C   LIG    1        1.367   3.502  -0.245  0.00  0.00    +0.030 A 
ATOM     28  C   LIG    1        0.159   4.161  -0.195  0.00  0.00    +0.090 A 
ATOM     29  C   LIG    1       -1.024   3.424  -0.152  0.00  0.00    -0.120 A 
ATOM     30  C   LIG    1       -2.214  -0.241  -0.138  0.00  0.00    +0.180 C 
ATOM     31  C   LIG    1       -2.341   4.071  -0.098  0.00  0.00    +0.540 A 
ATOM     32  O   LIG    1       -2.436   5.285  -0.088  0.00  0.00    -0.520 OA
ENDBRANCH  20  21
ENDBRANCH   3  20
TORSDOF 5
