REMARK  Name = ZINCpe000000WfwR.0
REMARK                            x       y       z     vdW  Elec       q    Type
REMARK                         _______ _______ _______ _____ _____    ______ ____
ROOT
ATOM      1  N   LIG    1        3.637  -0.500  -0.035  0.00  0.00    -0.470 N 
ATOM      2  C   LIG    1        3.785  -1.422   1.099  0.00  0.00    +0.230 C 
ATOM      3  C   LIG    1        5.138  -2.131   1.003  0.00  0.00    +0.190 C 
ATOM      4  N   LIG    1        6.214  -1.130   0.998  0.00  0.00    -0.520 NA
ATOM      5  C   LIG    1        6.065  -0.207  -0.136  0.00  0.00    +0.200 C 
ATOM      6  C   LIG    1        4.712   0.502  -0.040  0.00  0.00    +0.230 C 
ENDROOT
BRANCH   1  13
ATOM      7  C   LIG    1        1.221  -0.662  -0.013  0.00  0.00    -0.030 A 
ATOM      8  C   LIG    1        0.002  -0.004   0.002  0.00  0.00    +0.180 A 
ATOM      9  N   LIG    1       -0.016   1.322   0.009  0.00  0.00    -0.530 NA
ATOM     10  C   LIG    1        1.103   2.017   0.002  0.00  0.00    +0.520 A 
ATOM     11  N   LIG    1        2.286   1.434  -0.012  0.00  0.00    -0.550 NA
ATOM     12  C   LIG    1       -1.287  -0.785   0.011  0.00  0.00    +0.150 C 
ATOM     13  C   LIG    1        2.390   0.110  -0.020  0.00  0.00    +0.350 A 
BRANCH   7  15
ATOM     14  C   LIG    1        1.297  -2.661  -1.299  0.00  0.00    +0.230 C 
ATOM     15  O   LIG    1        1.280  -2.021  -0.021  0.00  0.00    -0.320 OA
ENDBRANCH   7  15
ENDBRANCH   1  13
BRANCH   4  16
ATOM     16  C   LIG    1        7.534  -1.775   0.982  0.00  0.00    +0.240 C 
BRANCH  16  17
ATOM     17  C   LIG    1        7.745  -2.517   2.276  0.00  0.00    +0.520 C 
ATOM     18  N   LIG    1        8.894  -3.189   2.488  0.00  0.00    -0.630 N 
ATOM     19  H   LIG    1        9.585  -3.195   1.807  0.00  0.00    +0.420 HD
ATOM     20  O   LIG    1        6.882  -2.510   3.128  0.00  0.00    -0.490 OA
BRANCH  18  21
ATOM     21  C   LIG    1        9.090  -3.876   3.686  0.00  0.00    +0.250 A 
ATOM     22  N   LIG    1       10.145  -4.567   4.031  0.00  0.00    -0.390 NA
ATOM     23  O   LIG    1       10.018  -5.048   5.133  0.00  0.00    +0.100 OA
ATOM     24  C   LIG    1        8.835  -4.732   5.679  0.00  0.00    -0.020 A 
ATOM     25  C   LIG    1        8.329  -5.151   7.036  0.00  0.00    +0.180 C 
ATOM     26  C   LIG    1        8.187  -3.960   4.778  0.00  0.00    -0.040 A 
ENDBRANCH  18  21
ENDBRANCH  16  17
ENDBRANCH   4  16
TORSDOF 5
