REMARK  Name = ZINCqH0000051wum.0
REMARK                            x       y       z     vdW  Elec       q    Type
REMARK                         _______ _______ _______ _____ _____    ______ ____
ROOT
ATOM      1  O   LIG    1        0.002  -0.004   0.002  0.00  0.00    -0.470 OA
ATOM      2  C   LIG    1       -0.014   1.212   0.009  0.00  0.00    +0.550 C 
ENDROOT
BRANCH   2   3
ATOM      3  C   LIG    1        1.241   1.960   0.001  0.00  0.00    -0.070 A 
ATOM      4  C   LIG    1        2.519   1.417  -0.014  0.00  0.00    -0.020 A 
ATOM      5  C   LIG    1        3.413   2.513  -0.017  0.00  0.00    -0.050 A 
ATOM      6  C   LIG    1        2.666   3.635  -0.004  0.00  0.00    +0.240 A 
ATOM      7  O   LIG    1        1.368   3.304   0.001  0.00  0.00    -0.140 OA
BRANCH   4   8
ATOM      8  C   LIG    1        2.874  -0.021  -0.025  0.00  0.00    -0.040 A 
ATOM      9  C   LIG    1        2.303  -0.891   0.903  0.00  0.00    +0.050 A 
ATOM     10  C   LIG    1        2.634  -2.230   0.884  0.00  0.00    +0.000 A 
ATOM     11  C   LIG    1        3.539  -2.709  -0.046  0.00  0.00    +0.010 A 
ATOM     12  C   LIG    1        4.114  -1.850  -0.966  0.00  0.00    +0.000 A 
ATOM     13  C   LIG    1        3.786  -0.510  -0.961  0.00  0.00    +0.020 A 
ENDBRANCH   4   8
ENDBRANCH   2   3
BRANCH   2  14
ATOM     14  O   LIG    1       -1.192   1.871   0.018  0.00  0.00    -0.320 OA
BRANCH  14  15
ATOM     15  C   LIG    1       -2.380   1.077   0.019  0.00  0.00    +0.250 C 
BRANCH  15  16
ATOM     16  C   LIG    1       -3.587   1.978   0.030  0.00  0.00    +0.520 C 
ATOM     17  N   LIG    1       -4.826   1.446   0.033  0.00  0.00    -0.610 N 
ATOM     18  C   LIG    1       -6.017   2.308   0.049  0.00  0.00    +0.310 C 
ATOM     19  C   LIG    1       -6.780   2.103  -1.269  0.00  0.00    +0.110 C 
ATOM     20  C   LIG    1       -6.877   0.620  -1.558  0.00  0.00    -0.170 A 
ATOM     21  C   LIG    1       -6.104  -0.330  -0.999  0.00  0.00    -0.130 A 
ATOM     22  C   LIG    1       -6.387  -1.618  -1.442  0.00  0.00    +0.020 A 
ATOM     23  C   LIG    1       -7.367  -1.717  -2.334  0.00  0.00    -0.040 A 
ATOM     24  S   LIG    1       -8.013  -0.119  -2.679  0.00  0.00    +0.110 S 
ATOM     25  C   LIG    1       -5.021  -0.010   0.026  0.00  0.00    +0.360 C 
ATOM     26  O   LIG    1       -3.445   3.183   0.036  0.00  0.00    -0.510 OA
ENDBRANCH  15  16
ENDBRANCH  14  15
ENDBRANCH   2  14
TORSDOF 5
