REMARK  Name = ZINCrH000004vHsO.0
REMARK                            x       y       z     vdW  Elec       q    Type
REMARK                         _______ _______ _______ _____ _____    ______ ____
ROOT
ATOM      1  C   LIG    1        1.334  -4.763  -0.149  0.00  0.00    +0.240 C 
ENDROOT
BRANCH   1   2
ATOM      2  C   LIG    1        1.157  -6.260  -0.139  0.00  0.00    +0.530 C 
ATOM      3  N   LIG    1        2.232  -7.065  -0.247  0.00  0.00    -0.570 N 
ATOM      4  C   LIG    1        2.082  -8.529  -0.234  0.00  0.00    +0.300 C 
ATOM      5  C   LIG    1        2.159  -9.079   1.159  0.00  0.00    +0.030 C 
ATOM      6  C   LIG    1        3.518  -8.964   1.832  0.00  0.00    +0.110 C 
ATOM      7  S   LIG    1        3.870  -7.230   2.239  0.00  0.00    -0.150 S 
ATOM      8  C   LIG    1        4.431  -6.594   0.677  0.00  0.00    -0.100 A 
ATOM      9  C   LIG    1        5.725  -6.134   0.531  0.00  0.00    +0.080 A 
ATOM     10  C   LIG    1        6.107  -5.557  -0.670  0.00  0.00    +0.030 A 
ATOM     11  C   LIG    1        5.195  -5.449  -1.704  0.00  0.00    +0.040 A 
ATOM     12  C   LIG    1        3.908  -5.933  -1.564  0.00  0.00    +0.010 A 
ATOM     13  C   LIG    1        3.522  -6.531  -0.370  0.00  0.00    +0.150 A 
ATOM     14  O   LIG    1        0.048  -6.739  -0.034  0.00  0.00    -0.500 OA
ENDBRANCH   1   2
BRANCH   1  15
ATOM     15  O   LIG    1        0.058  -4.132  -0.022  0.00  0.00    -0.290 OA
BRANCH  15  19
ATOM     16  C   LIG    1        0.002  -0.004   0.002  0.00  0.00    +0.130 A 
ATOM     17  C   LIG    1        1.208  -0.682  -0.124  0.00  0.00    +0.050 A 
ATOM     18  C   LIG    1        1.226  -2.062  -0.126  0.00  0.00    -0.050 A 
ATOM     19  C   LIG    1        0.040  -2.772  -0.014  0.00  0.00    +0.110 A 
ATOM     20  C   LIG    1       -1.166  -2.096   0.107  0.00  0.00    +0.020 A 
ATOM     21  C   LIG    1       -1.185  -0.715   0.114  0.00  0.00    +0.010 A 
BRANCH  16  27
ATOM     22  O   LIG    1        2.223   1.757   0.041  0.00  0.00    -0.510 OA
ATOM     23  C   LIG    1        1.082   2.170   0.025  0.00  0.00    +0.510 C 
ATOM     24  C   LIG    1        0.691   3.631   0.015  0.00  0.00    +0.070 C 
ATOM     25  C   LIG    1       -0.794   3.625  -0.417  0.00  0.00    +0.060 C 
ATOM     26  C   LIG    1       -1.240   2.208   0.009  0.00  0.00    +0.260 C 
ATOM     27  N   LIG    1       -0.017   1.397   0.010  0.00  0.00    -0.560 N 
ENDBRANCH  16  27
ENDBRANCH  15  19
ENDBRANCH   1  15
TORSDOF 4
