REMARK  Name = ZINCb80000003Wtb.0
REMARK                            x       y       z     vdW  Elec       q    Type
REMARK                         _______ _______ _______ _____ _____    ______ ____
ROOT
ATOM      1  C   LIG    1        1.237   1.926   0.001  0.00  0.00    -0.710 A 
ATOM      2  C   LIG    1        2.251   1.050  -0.014  0.00  0.00    +0.080 A 
ATOM      3  S   LIG    1        1.672  -0.555  -0.017  0.00  0.00    +0.300 S 
ATOM      4  C   LIG    1        0.002  -0.004   0.002  0.00  0.00    -0.340 A 
ATOM      5  C   LIG    1       -0.017   1.368   0.010  0.00  0.00    +0.190 A 
ENDROOT
BRANCH   1   6
ATOM      6  S   LIG    1        1.494   3.669   0.007  0.00  0.00    +2.720 S 
ATOM      7  O   LIG    1        0.311   4.252  -0.523  0.00  0.00    -0.950 OA
ATOM      8  O   LIG    1        2.784   3.886  -0.549  0.00  0.00    -0.960 OA
BRANCH   6   9
ATOM      9  N   LIG    1        1.581   4.146   1.590  0.00  0.00    -1.250 NA
ATOM     10  H   LIG    1        1.091   3.659   2.271  0.00  0.00    +0.420 HD
ATOM     11  H   LIG    1        2.121   4.913   1.837  0.00  0.00    +0.420 HD
ENDBRANCH   6   9
ENDBRANCH   1   6
BRANCH   4  12
ATOM     12  C   LIG    1       -1.137  -0.839   0.008  0.00  0.00    +0.520 C 
ATOM     13  O   LIG    1       -2.248  -0.350   0.022  0.00  0.00    -0.450 OA
ENDBRANCH   4  12
TORSDOF 3
