REMARK  Name = ZINCpe00000c92j3.0
REMARK                            x       y       z     vdW  Elec       q    Type
REMARK                         _______ _______ _______ _____ _____    ______ ____
ROOT
ATOM      1  N   LIG    1       -4.660   4.789  -6.269  0.00  0.00    -0.510 NA
ATOM      2  C   LIG    1       -3.348   4.630  -6.909  0.00  0.00    +0.180 C 
ATOM      3  C   LIG    1       -2.801   3.231  -6.604  0.00  0.00    +0.300 C 
ATOM      4  N   LIG    1       -2.810   3.034  -5.146  0.00  0.00    -0.610 N 
ATOM      5  C   LIG    1       -4.058   3.301  -4.416  0.00  0.00    +0.280 C 
ATOM      6  C   LIG    1       -1.706   2.613  -4.498  0.00  0.00    +0.600 C 
ATOM      7  O   LIG    1       -0.621   2.667  -5.046  0.00  0.00    -0.520 OA
ATOM      8  C   LIG    1       -4.554   4.703  -4.806  0.00  0.00    +0.190 C 
ENDROOT
BRANCH   6   9
ATOM      9  C   LIG    1       -1.812   2.091  -3.132  0.00  0.00    -0.280 A 
ATOM     10  C   LIG    1       -0.764   1.790  -2.321  0.00  0.00    +0.120 A 
ATOM     11  C   LIG    1       -1.137   1.310  -1.069  0.00  0.00    -0.140 A 
ATOM     12  C   LIG    1       -2.466   1.231  -0.888  0.00  0.00    -0.230 A 
ATOM     13  C   LIG    1       -2.782   0.698   0.504  0.00  0.00    +0.120 C 
ATOM     14  C   LIG    1       -1.476   0.884   1.306  0.00  0.00    +0.040 C 
ATOM     15  C   LIG    1       -0.414   0.834   0.190  0.00  0.00    +0.100 C 
ATOM     16  S   LIG    1       -3.311   1.757  -2.285  0.00  0.00    +0.230 S 
ENDBRANCH   6   9
BRANCH   1  17
ATOM     17  C   LIG    1       -5.296   6.048  -6.677  0.00  0.00    +0.260 C 
BRANCH  17  19
ATOM     18  O   LIG    1       -3.462   7.010  -5.545  0.00  0.00    -0.530 OA
ATOM     19  C   LIG    1       -4.456   7.209  -6.211  0.00  0.00    +0.480 C 
ATOM     20  N   LIG    1       -4.808   8.469  -6.535  0.00  0.00    -0.620 N 
ATOM     21  C   LIG    1       -6.005   8.736  -7.348  0.00  0.00    +0.250 C 
ATOM     22  C   LIG    1       -6.847   9.801  -6.627  0.00  0.00    +0.220 C 
ATOM     23  O   LIG    1       -6.020  10.928  -6.327  0.00  0.00    -0.380 OA
ATOM     24  C   LIG    1       -4.939  10.640  -5.436  0.00  0.00    +0.220 C 
ATOM     25  C   LIG    1       -4.003   9.619  -6.092  0.00  0.00    +0.250 C 
ENDBRANCH  17  19
ENDBRANCH   1  17
TORSDOF 3
