REMARK  Name = ZINCnE000005ur0m.0
REMARK                            x       y       z     vdW  Elec       q    Type
REMARK                         _______ _______ _______ _____ _____    ______ ____
ROOT
ATOM      1  O   LIG    1       -4.383   1.531   0.309  0.00  0.00    -1.000 OA
ATOM      2  S   LIG    1       -3.218   0.916   0.843  0.00  0.00    +2.710 S 
ATOM      3  O   LIG    1       -3.249   0.012   1.939  0.00  0.00    -0.950 OA
ENDROOT
BRANCH   2   4
ATOM      4  C   LIG    1       -2.133   2.224   1.307  0.00  0.00    -0.800 A 
ATOM      5  C   LIG    1       -2.439   3.528   0.970  0.00  0.00    +0.160 A 
ATOM      6  C   LIG    1       -1.588   4.556   1.334  0.00  0.00    -0.170 A 
ATOM      7  C   LIG    1       -0.428   4.281   2.037  0.00  0.00    +0.080 A 
ATOM      8  C   LIG    1       -0.118   2.977   2.376  0.00  0.00    -0.140 A 
ATOM      9 CL   LIG    1        1.337   2.631   3.258  0.00  0.00    -0.090 Cl
ATOM     10 CL   LIG    1       -1.975   6.194   0.909  0.00  0.00    -0.110 Cl
ATOM     11  C   LIG    1       -0.974   1.945   2.016  0.00  0.00    +0.360 A 
ATOM     12  O   LIG    1       -0.673   0.663   2.353  0.00  0.00    -0.630 OA
ENDBRANCH   2   4
BRANCH   2  13
ATOM     13  N   LIG    1       -2.501   0.105  -0.411  0.00  0.00    -1.100 NA
ATOM     14  H   LIG    1       -2.928   0.085  -1.282  0.00  0.00    +0.410 HD
BRANCH  13  15
ATOM     15  C   LIG    1       -1.223  -0.580  -0.205  0.00  0.00    +0.210 C 
ATOM     16  C   LIG    1       -1.236  -1.567   0.974  0.00  0.00    +0.080 C 
ATOM     17  C   LIG    1       -1.705  -2.635  -0.030  0.00  0.00    -0.010 C 
ATOM     18  C   LIG    1       -1.021  -1.797  -1.123  0.00  0.00    +0.030 C 
BRANCH  15  19
ATOM     19  C   LIG    1       -0.049   0.365  -0.188  0.00  0.00    -0.100 A 
ATOM     20  C   LIG    1       -0.172   1.648  -0.698  0.00  0.00    +0.060 A 
ATOM     21  C   LIG    1        0.934   2.482  -0.662  0.00  0.00    -0.050 A 
ATOM     22  C   LIG    1        2.116   2.011  -0.122  0.00  0.00    +0.230 A 
ATOM     23  N   LIG    1        2.197   0.784   0.354  0.00  0.00    -0.480 NA
ATOM     24  C   LIG    1        1.166  -0.037   0.336  0.00  0.00    +0.280 A 
ENDBRANCH  15  19
ENDBRANCH  13  15
ENDBRANCH   2  13
TORSDOF 4
