REMARK  Name = ZINCrH000004n5L2.0
REMARK                            x       y       z     vdW  Elec       q    Type
REMARK                         _______ _______ _______ _____ _____    ______ ____
ROOT
ATOM      1  C   LIG    1        0.074  -4.270  -0.015  0.00  0.00    +0.190 C 
ATOM      2  C   LIG    1       -0.028  -4.792  -1.461  0.00  0.00    +0.020 C 
ATOM      3  C   LIG    1        1.252  -5.630  -1.679  0.00  0.00    +0.020 C 
ATOM      4  C   LIG    1        1.680  -5.992  -0.234  0.00  0.00    +0.180 C 
ATOM      5  N   LIG    1        1.356  -4.763   0.534  0.00  0.00    -0.500 NA
ENDROOT
BRANCH   1   9
ATOM      6  C   LIG    1        0.034   0.007  -0.002  0.00  0.00    +0.160 A 
ATOM      7  C   LIG    1        1.240  -0.679  -0.019  0.00  0.00    -0.120 A 
ATOM      8  C   LIG    1        1.250  -2.061  -0.024  0.00  0.00    +0.140 A 
ATOM      9  C   LIG    1        0.060  -2.763  -0.011  0.00  0.00    -0.140 A 
ATOM     10  C   LIG    1       -1.149  -2.081   0.006  0.00  0.00    +0.170 A 
ATOM     11  C   LIG    1       -1.162  -0.695   0.016  0.00  0.00    -0.110 A 
BRANCH   6  13
ATOM     12  C   LIG    1        1.293   2.023  -0.010  0.00  0.00    +0.250 C 
ATOM     13  O   LIG    1        0.025   1.366   0.003  0.00  0.00    -0.320 OA
ENDBRANCH   6  13
BRANCH  10  14
ATOM     14  O   LIG    1       -2.319  -2.772   0.019  0.00  0.00    -0.310 OA
ATOM     15  C   LIG    1       -3.525  -2.006   0.037  0.00  0.00    +0.250 C 
ENDBRANCH  10  14
ENDBRANCH   1   9
BRANCH   5  16
ATOM     16  C   LIG    1        1.236  -5.056   1.969  0.00  0.00    +0.210 C 
BRANCH  16  17
ATOM     17  C   LIG    1        2.471  -5.780   2.439  0.00  0.00    +0.520 C 
ATOM     18  N   LIG    1        2.584  -6.152   3.729  0.00  0.00    -0.670 N 
ATOM     19  H   LIG    1        1.902  -5.895   4.369  0.00  0.00    +0.420 HD
ATOM     20  O   LIG    1        3.363  -6.028   1.656  0.00  0.00    -0.500 OA
BRANCH  18  21
ATOM     21  C   LIG    1        3.686  -6.909   4.146  0.00  0.00    +0.170 A 
ATOM     22  C   LIG    1        4.932  -6.697   3.571  0.00  0.00    +0.060 A 
ATOM     23  C   LIG    1        6.018  -7.444   3.983  0.00  0.00    +0.050 A 
ATOM     24  C   LIG    1        5.866  -8.405   4.967  0.00  0.00    +0.050 A 
ATOM     25  C   LIG    1        4.623  -8.619   5.543  0.00  0.00    +0.090 A 
ATOM     26  F   LIG    1        4.476  -9.557   6.505  0.00  0.00    -0.120 F 
ATOM     27  F   LIG    1        6.930  -9.135   5.368  0.00  0.00    -0.130 F 
ATOM     28  C   LIG    1        3.535  -7.869   5.138  0.00  0.00    -0.010 A 
ENDBRANCH  18  21
ENDBRANCH  16  17
ENDBRANCH   5  16
TORSDOF 6
