REMARK  Name = ZINCrg00000aYx4y.0
REMARK                            x       y       z     vdW  Elec       q    Type
REMARK                         _______ _______ _______ _____ _____    ______ ____
ROOT
ATOM      1  C   LIG    1       -2.706   0.482   2.207  0.00  0.00    +0.520 C 
ATOM      2  N   LIG    1       -2.131   1.132   1.176  0.00  0.00    -0.610 N 
ATOM      3  C   LIG    1       -0.705   1.485   1.215  0.00  0.00    +0.270 C 
ATOM      4  C   LIG    1       -0.029   0.941  -0.047  0.00  0.00    +0.030 C 
ATOM      5  C   LIG    1       -0.771   1.456  -1.283  0.00  0.00    +0.050 C 
ATOM      6  C   LIG    1       -2.217   0.956  -1.256  0.00  0.00    +0.020 C 
ATOM      7  C   LIG    1       -2.919   1.500  -0.009  0.00  0.00    +0.280 C 
ATOM      8  O   LIG    1       -3.899   0.265   2.199  0.00  0.00    -0.510 OA
ENDROOT
BRANCH   5   9
ATOM      9  C   LIG    1       -0.077   0.942  -2.546  0.00  0.00    +0.100 C 
ATOM     10  C   LIG    1        0.646   1.968  -3.422  0.00  0.00    +0.040 C 
ATOM     11  C   LIG    1       -0.672   1.350  -3.895  0.00  0.00    +0.040 C 
BRANCH   9  12
ATOM     12  N   LIG    1        0.512  -0.395  -2.443  0.00  0.00    -0.670 N 
ATOM     13  H   LIG    1        0.447  -0.892  -1.612  0.00  0.00    +0.410 HD
ATOM     14  C   LIG    1        1.146  -0.936  -3.503  0.00  0.00    +0.610 C 
ATOM     15  O   LIG    1        1.229  -0.313  -4.544  0.00  0.00    -0.510 OA
BRANCH  14  16
ATOM     16  C   LIG    1        1.740  -2.284  -3.399  0.00  0.00    +0.010 A 
ATOM     17  N   LIG    1        1.698  -3.028  -2.316  0.00  0.00    -0.550 NA
ATOM     18  S   LIG    1        2.433  -4.371  -2.613  0.00  0.00    +0.730 S 
ATOM     19  N   LIG    1        2.840  -4.103  -4.094  0.00  0.00    -0.570 NA
ATOM     20  C   LIG    1        2.408  -2.926  -4.440  0.00  0.00    +0.310 A 
ENDBRANCH  14  16
ENDBRANCH   9  12
ENDBRANCH   5   9
BRANCH   1  21
ATOM     21  C   LIG    1       -1.865   0.023   3.371  0.00  0.00    +0.170 C 
BRANCH  21  22
ATOM     22  C   LIG    1       -1.960   1.047   4.504  0.00  0.00    -0.040 C 
ATOM     23  C   LIG    1       -0.906   0.752   5.606  0.00  0.00    +0.020 C 
ATOM     24  C   LIG    1       -0.679   2.172   6.183  0.00  0.00    +0.210 C 
ATOM     25  O   LIG    1       -0.759   3.054   5.052  0.00  0.00    -0.380 OA
ATOM     26  C   LIG    1       -1.538   2.449   4.014  0.00  0.00    +0.190 C 
ENDBRANCH  21  22
BRANCH  21  28
ATOM     27  C   LIG    1       -1.326  -2.071   4.405  0.00  0.00    +0.200 C 
ATOM     28  O   LIG    1       -2.340  -1.243   3.832  0.00  0.00    -0.360 OA
ENDBRANCH  21  28
ENDBRANCH   1  21
TORSDOF 6
