REMARK  Name = ZINCrH000004qnbf.0
REMARK                            x       y       z     vdW  Elec       q    Type
REMARK                         _______ _______ _______ _____ _____    ______ ____
ROOT
ATOM      1  C   LIG    1        0.054   5.574   0.033  0.00  0.00    +0.420 C 
ATOM      2  O   LIG    1        1.170   6.051   0.025  0.00  0.00    -0.430 OA
ENDROOT
BRANCH   1   6
ATOM      3  C   LIG    1       -4.755   7.254   0.090  0.00  0.00    +0.120 C 
ATOM      4  C   LIG    1       -3.250   7.177   0.075  0.00  0.00    +0.010 A 
ATOM      5  C   LIG    1       -2.529   6.043   0.061  0.00  0.00    -0.010 A 
ATOM      6  C   LIG    1       -1.118   6.451   0.050  0.00  0.00    -0.260 A 
ATOM      7  C   LIG    1       -1.124   7.833   0.063  0.00  0.00    +0.120 A 
ATOM      8  C   LIG    1        0.093   8.723   0.064  0.00  0.00    +0.150 C 
ATOM      9  N   LIG    1       -2.403   8.247   0.072  0.00  0.00    -0.430 N 
BRANCH   9  10
ATOM     10  C   LIG    1       -2.828   9.649   0.084  0.00  0.00    +0.300 C 
BRANCH  10  11
ATOM     11  C   LIG    1       -2.962  10.129   1.531  0.00  0.00    +0.110 C 
BRANCH  11  12
ATOM     12  C   LIG    1       -3.399  11.571   1.543  0.00  0.00    -0.190 A 
ATOM     13  C   LIG    1       -4.665  11.991   1.558  0.00  0.00    +0.010 A 
ATOM     14  C   LIG    1       -4.824  13.366   1.568  0.00  0.00    +0.000 A 
ATOM     15  C   LIG    1       -3.687  14.063   1.561  0.00  0.00    -0.040 A 
ATOM     16  S   LIG    1       -2.318  12.958   1.548  0.00  0.00    +0.110 S 
ENDBRANCH  11  12
ENDBRANCH  10  11
ENDBRANCH   9  10
ENDBRANCH   1   6
BRANCH   1  17
ATOM     17  C   LIG    1       -0.124   4.077   0.026  0.00  0.00    +0.210 C 
BRANCH  17  18
ATOM     18  O   LIG    1        1.157   3.445   0.010  0.00  0.00    -0.260 OA
BRANCH  18  19
ATOM     19  C   LIG    1        1.174   2.088   0.002  0.00  0.00    +0.190 A 
ATOM     20  C   LIG    1       -0.017   1.377   0.010  0.00  0.00    -0.080 A 
ATOM     21  C   LIG    1        0.002  -0.004   0.002  0.00  0.00    +0.080 A 
ATOM     22  C   LIG    1        1.206  -0.688  -0.013  0.00  0.00    -0.040 A 
ATOM     23  C   LIG    1        2.399   0.003  -0.021  0.00  0.00    +0.080 A 
ATOM     24  C   LIG    1        2.394   1.399  -0.013  0.00  0.00    -0.180 A 
BRANCH  24  25
ATOM     25  C   LIG    1        3.667   2.145  -0.021  0.00  0.00    +0.560 C 
ATOM     26  O   LIG    1        3.659   3.361  -0.014  0.00  0.00    -0.510 OA
ATOM     27  N   LIG    1        4.839   1.479  -0.035  0.00  0.00    -0.860 N 
ATOM     28  H   LIG    1        5.676   1.970  -0.040  0.00  0.00    +0.400 HD
ATOM     29  H   LIG    1        4.845   0.509  -0.040  0.00  0.00    +0.400 HD
ENDBRANCH  24  25
ENDBRANCH  18  19
ENDBRANCH  17  18
ENDBRANCH   1  17
TORSDOF 8
