REMARK  Name = ZINCrH000004mA2i.0
REMARK                            x       y       z     vdW  Elec       q    Type
REMARK                         _______ _______ _______ _____ _____    ______ ____
ROOT
ATOM      1  C   LIG    1        0.002  -0.004   0.002  0.00  0.00    +0.520 C 
ATOM      2  N   LIG    1       -0.016   1.344   0.009  0.00  0.00    -0.740 N 
ATOM      3  H   LIG    1       -0.863   1.817   0.016  0.00  0.00    +0.400 HD
ATOM      4  O   LIG    1        1.060  -0.596  -0.011  0.00  0.00    -0.520 OA
ENDROOT
BRANCH   1   5
ATOM      5  C   LIG    1       -1.293  -0.775   0.010  0.00  0.00    +0.060 C 
BRANCH   5   6
ATOM      6  C   LIG    1       -0.993  -2.276  -0.001  0.00  0.00    +0.100 C 
BRANCH   6  10
ATOM      7  C   LIG    1       -4.664  -4.463   0.024  0.00  0.00    +0.150 A 
ATOM      8  C   LIG    1       -4.055  -4.114   1.220  0.00  0.00    -0.060 A 
ATOM      9  C   LIG    1       -2.866  -3.411   1.209  0.00  0.00    +0.070 A 
ATOM     10  C   LIG    1       -2.287  -3.047   0.007  0.00  0.00    -0.120 A 
ATOM     11  C   LIG    1       -2.892  -3.393  -1.187  0.00  0.00    +0.090 A 
ATOM     12  C   LIG    1       -4.079  -4.101  -1.182  0.00  0.00    -0.120 A 
ATOM     13 BR   LIG    1       -4.906  -4.574  -2.815  0.00  0.00    -0.030 Br
BRANCH   7  15
ATOM     14  C   LIG    1       -6.376  -5.498   1.309  0.00  0.00    +0.250 C 
ATOM     15  O   LIG    1       -5.832  -5.159   0.032  0.00  0.00    -0.300 OA
ENDBRANCH   7  15
ENDBRANCH   6  10
ENDBRANCH   5   6
ENDBRANCH   1   5
BRANCH   2  16
ATOM     16  C   LIG    1        1.242   2.093   0.001  0.00  0.00    +0.410 C 
BRANCH  16  17
ATOM     17  C   LIG    1        1.021   3.453   0.611  0.00  0.00    +0.170 A 
ATOM     18  N   LIG    1        1.897   4.418   0.691  0.00  0.00    -0.260 NA
ATOM     19  N   LIG    1        1.367   5.437   1.268  0.00  0.00    -0.290 NA
ATOM     20  C   LIG    1        0.132   5.167   1.592  0.00  0.00    +0.190 A 
ATOM     21  C   LIG    1       -0.832   6.092   2.289  0.00  0.00    +0.200 C 
ATOM     22  N   LIG    1       -0.123   3.900   1.184  0.00  0.00    -0.580 N 
ATOM     23  H   LIG    1       -0.956   3.412   1.282  0.00  0.00    +0.420 HD
ENDBRANCH  16  17
BRANCH  16  24
ATOM     24  C   LIG    1        1.724   2.252  -1.418  0.00  0.00    -0.100 A 
ATOM     25  C   LIG    1        0.819   2.514  -2.429  0.00  0.00    +0.010 A 
ATOM     26  C   LIG    1        1.261   2.663  -3.731  0.00  0.00    +0.000 A 
ATOM     27  C   LIG    1        2.607   2.542  -4.021  0.00  0.00    +0.010 A 
ATOM     28  C   LIG    1        3.511   2.274  -3.011  0.00  0.00    +0.010 A 
ATOM     29  C   LIG    1        3.070   2.129  -1.709  0.00  0.00    +0.050 A 
ENDBRANCH  16  24
ENDBRANCH   2  16
TORSDOF 7
