REMARK  Name = ZINCrH000004mA2i.1
REMARK                            x       y       z     vdW  Elec       q    Type
REMARK                         _______ _______ _______ _____ _____    ______ ____
ROOT
ATOM      1  C   LIG    1       -0.742   1.585  -1.213  0.00  0.00    +0.520 C 
ATOM      2  N   LIG    1       -0.288   1.272  -2.443  0.00  0.00    -0.720 N 
ATOM      3  H   LIG    1        0.507   0.726  -2.543  0.00  0.00    +0.410 HD
ATOM      4  O   LIG    1       -1.736   2.268  -1.088  0.00  0.00    -0.530 OA
ENDROOT
BRANCH   1   5
ATOM      5  C   LIG    1       -0.013   1.086   0.008  0.00  0.00    +0.070 C 
BRANCH   5   6
ATOM      6  C   LIG    1       -0.729   1.579   1.267  0.00  0.00    +0.100 C 
BRANCH   6  10
ATOM      7  C   LIG    1        1.337   0.163   4.730  0.00  0.00    +0.150 A 
ATOM      8  C   LIG    1        0.321  -0.596   4.168  0.00  0.00    -0.060 A 
ATOM      9  C   LIG    1       -0.348  -0.133   3.051  0.00  0.00    +0.070 A 
ATOM     10  C   LIG    1        0.000   1.080   2.488  0.00  0.00    -0.120 A 
ATOM     11  C   LIG    1        1.012   1.839   3.046  0.00  0.00    +0.090 A 
ATOM     12  C   LIG    1        1.682   1.383   4.165  0.00  0.00    -0.120 A 
ATOM     13 BR   LIG    1        3.067   2.421   4.927  0.00  0.00    -0.040 Br
BRANCH   7  15
ATOM     14  C   LIG    1        1.586  -1.552   6.358  0.00  0.00    +0.240 C 
ATOM     15  O   LIG    1        1.994  -0.288   5.831  0.00  0.00    -0.300 OA
ENDBRANCH   7  15
ENDBRANCH   6  10
ENDBRANCH   5   6
ENDBRANCH   1   5
BRANCH   2  16
ATOM     16  C   LIG    1       -0.997   1.758  -3.630  0.00  0.00    +0.410 C 
BRANCH  16  17
ATOM     17  C   LIG    1       -0.721   0.838  -4.791  0.00  0.00    +0.230 A 
ATOM     18  N   LIG    1        0.452   0.363  -5.122  0.00  0.00    -0.300 NA
ATOM     19  N   LIG    1        0.258  -0.444  -6.254  0.00  0.00    -0.480 N 
ATOM     20  H   LIG    1        0.937  -0.939  -6.739  0.00  0.00    +0.440 HD
ATOM     21  C   LIG    1       -1.056  -0.397  -6.533  0.00  0.00    +0.290 A 
ATOM     22  C   LIG    1       -1.747  -1.109  -7.667  0.00  0.00    +0.210 C 
ATOM     23  N   LIG    1       -1.632   0.372  -5.644  0.00  0.00    -0.530 NA
ENDBRANCH  16  17
BRANCH  16  24
ATOM     24  C   LIG    1       -0.521   3.148  -3.966  0.00  0.00    -0.100 A 
ATOM     25  C   LIG    1        0.819   3.467  -3.848  0.00  0.00    +0.030 A 
ATOM     26  C   LIG    1        1.256   4.741  -4.160  0.00  0.00    +0.000 A 
ATOM     27  C   LIG    1        0.352   5.698  -4.581  0.00  0.00    +0.010 A 
ATOM     28  C   LIG    1       -0.989   5.380  -4.694  0.00  0.00    +0.010 A 
ATOM     29  C   LIG    1       -1.425   4.105  -4.386  0.00  0.00    +0.040 A 
ENDBRANCH  16  24
ENDBRANCH   2  16
TORSDOF 7
