REMARK  Name = ZINCb70000002ELG.0
REMARK                            x       y       z     vdW  Elec       q    Type
REMARK                         _______ _______ _______ _____ _____    ______ ____
ROOT
ATOM      1  C   LIG    1       -0.756   2.035  -1.230  0.00  0.00    +0.230 C 
ENDROOT
BRANCH   1   2
ATOM      2  C   LIG    1       -0.019   1.527   0.010  0.00  0.00    +0.130 C 
ATOM      3  C   LIG    1        0.002  -0.004   0.002  0.00  0.00    +0.190 C 
ATOM      4  O   LIG    1        0.788  -0.469   1.103  0.00  0.00    -0.360 OA
ATOM      5  C   LIG    1        2.133   0.019   1.093  0.00  0.00    +0.210 C 
ATOM      6  C   LIG    1        2.112   1.550   1.102  0.00  0.00    +0.220 C 
ATOM      7  O   LIG    1        1.326   2.015   0.000  0.00  0.00    -0.360 OA
ENDBRANCH   1   2
BRANCH   1   8
ATOM      8  N   LIG    1       -2.135   1.528  -1.222  0.00  0.00    -0.640 N 
ATOM      9  H   LIG    1       -2.608   1.853  -0.393  0.00  0.00    +0.440 HD
ATOM     10  H   LIG    1       -2.122   0.519  -1.229  0.00  0.00    +0.440 HD
ATOM     11  H   LIG    1       -2.621   1.863  -2.040  0.00  0.00    +0.440 HD
ENDBRANCH   1   8
BRANCH   1  12
ATOM     12  C   LIG    1       -0.776   3.565  -1.220  0.00  0.00    -0.030 C 
ATOM     13  C   LIG    1       -2.125   4.253  -0.999  0.00  0.00    +0.020 C 
ATOM     14  C   LIG    1       -1.475   4.270  -2.385  0.00  0.00    +0.050 C 
ENDBRANCH   1  12
TORSDOF 3
