REMARK  Name = ZINCrD00000lciV1.0
REMARK                            x       y       z     vdW  Elec       q    Type
REMARK                         _______ _______ _______ _____ _____    ______ ____
ROOT
ATOM      1  C   LIG    1        4.101   2.453  -1.466  0.00  0.00    +0.270 C 
ENDROOT
BRANCH   1   2
ATOM      2  N   LIG    1        5.360   3.201  -1.474  0.00  0.00    -0.730 N 
ATOM      3  H   LIG    1        5.785   3.444  -0.637  0.00  0.00    +0.400 HD
ATOM      4  C   LIG    1        5.928   3.552  -2.645  0.00  0.00    +0.510 C 
ATOM      5  O   LIG    1        5.397   3.248  -3.692  0.00  0.00    -0.510 OA
BRANCH   4   6
ATOM      6  C   LIG    1        7.224   4.321  -2.654  0.00  0.00    +0.270 C 
BRANCH   6   7
ATOM      7  O   LIG    1        7.627   4.576  -4.025  0.00  0.00    -0.330 OA
BRANCH   7   8
ATOM      8  C   LIG    1        8.775   5.259  -4.209  0.00  0.00    +0.550 C 
ATOM      9  O   LIG    1        9.421   5.633  -3.249  0.00  0.00    -0.500 OA
BRANCH   8  10
ATOM     10  C   LIG    1        9.243   5.552  -5.565  0.00  0.00    -0.280 A 
ATOM     11  C   LIG    1       10.386   6.234  -5.880  0.00  0.00    -0.000 A 
ATOM     12  C   LIG    1       10.584   6.367  -7.233  0.00  0.00    -0.010 A 
ATOM     13  C   LIG    1        9.639   5.814  -8.002  0.00  0.00    -0.050 A 
ATOM     14  C   LIG    1       11.334   6.785  -4.845  0.00  0.00    +0.130 C 
ATOM     15  S   LIG    1        8.431   5.077  -7.050  0.00  0.00    +0.260 S 
ENDBRANCH   8  10
ENDBRANCH   7   8
ENDBRANCH   6   7
ENDBRANCH   4   6
ENDBRANCH   1   2
BRANCH   1  16
ATOM     16  C   LIG    1        3.676   2.185  -0.021  0.00  0.00    +0.070 C 
BRANCH  16  20
ATOM     17  C   LIG    1        0.002  -0.004   0.002  0.00  0.00    +0.100 A 
ATOM     18  C   LIG    1        1.213  -0.677  -0.013  0.00  0.00    -0.030 A 
ATOM     19  C   LIG    1        2.399   0.034  -0.021  0.00  0.00    +0.020 A 
ATOM     20  C   LIG    1        2.380   1.415  -0.013  0.00  0.00    -0.080 A 
ATOM     21  C   LIG    1        1.175   2.094   0.002  0.00  0.00    -0.030 A 
ATOM     22  C   LIG    1       -0.017   1.388   0.010  0.00  0.00    +0.110 A 
BRANCH  17  23
ATOM     23  O   LIG    1       -1.165  -0.702   0.009  0.00  0.00    -0.300 OA
BRANCH  23  25
ATOM     24  C   LIG    1       -2.474  -2.733   0.010  0.00  0.00    +0.070 C 
ATOM     25  C   LIG    1       -1.069  -2.127   0.000  0.00  0.00    +0.170 C 
ENDBRANCH  23  25
ENDBRANCH  17  23
BRANCH  22  26
ATOM     26  O   LIG    1       -1.203   2.053   0.019  0.00  0.00    -0.300 OA
BRANCH  26  27
ATOM     27  C   LIG    1       -1.146   3.481   0.026  0.00  0.00    +0.170 C 
ATOM     28  C   LIG    1       -2.566   4.048   0.036  0.00  0.00    +0.070 C 
ENDBRANCH  26  27
ENDBRANCH  22  26
ENDBRANCH  16  20
ENDBRANCH   1  16
TORSDOF 11
