REMARK  Name = ZINCpe00000VVGej.0
REMARK                            x       y       z     vdW  Elec       q    Type
REMARK                         _______ _______ _______ _____ _____    ______ ____
ROOT
ATOM      1  N   LIG    1       -3.611   1.792   0.029  0.00  0.00    -0.520 NA
ATOM      2  C   LIG    1       -3.659   2.545   1.291  0.00  0.00    +0.160 C 
ATOM      3  C   LIG    1       -4.811   3.551   1.235  0.00  0.00    +0.230 C 
ATOM      4  O   LIG    1       -6.033   2.856   0.974  0.00  0.00    -0.380 OA
ATOM      5  C   LIG    1       -6.022   2.112  -0.248  0.00  0.00    +0.160 C 
ATOM      6  C   LIG    1       -4.882   1.091  -0.207  0.00  0.00    +0.170 C 
ENDROOT
BRANCH   1   7
ATOM      7  C   LIG    1       -2.482   0.853   0.018  0.00  0.00    +0.210 C 
BRANCH   7   9
ATOM      8  O   LIG    1       -1.204   2.837   0.023  0.00  0.00    -0.510 OA
ATOM      9  C   LIG    1       -1.187   1.624   0.017  0.00  0.00    +0.520 C 
ATOM     10  N   LIG    1       -0.011   0.966   0.007  0.00  0.00    -0.720 N 
ATOM     11  H   LIG    1        0.002  -0.004   0.002  0.00  0.00    +0.400 HD
BRANCH  10  12
ATOM     12  C   LIG    1        1.248   1.716  -0.001  0.00  0.00    +0.300 C 
BRANCH  12  13
ATOM     13  C   LIG    1        2.349   0.857  -0.625  0.00  0.00    -0.060 C 
ATOM     14  C   LIG    1        3.175   1.478  -1.753  0.00  0.00    +0.030 C 
ATOM     15  C   LIG    1        2.147   0.390  -2.068  0.00  0.00    +0.030 C 
ENDBRANCH  12  13
BRANCH  12  16
ATOM     16  C   LIG    1        1.635   2.077   1.435  0.00  0.00    -0.060 C 
ATOM     17  C   LIG    1        0.815   1.453   2.566  0.00  0.00    +0.000 C 
ATOM     18  C   LIG    1        0.656   2.938   2.235  0.00  0.00    +0.030 C 
ENDBRANCH  12  16
ENDBRANCH  10  12
ENDBRANCH   7   9
ENDBRANCH   1   7
BRANCH   5  19
ATOM     19  C   LIG    1       -7.356   1.382  -0.414  0.00  0.00    +0.290 C 
BRANCH  19  20
ATOM     20  N   LIG    1       -8.433   2.362  -0.572  0.00  0.00    -0.710 N 
ATOM     21  H   LIG    1       -8.231   3.311  -0.560  0.00  0.00    +0.410 HD
BRANCH  20  22
ATOM     22  C   LIG    1       -9.745   1.933  -0.741  0.00  0.00    +0.340 A 
ATOM     23  C   LIG    1      -10.038   0.570  -0.765  0.00  0.00    -0.040 A 
ATOM     24  C   LIG    1      -11.362   0.194  -0.930  0.00  0.00    +0.070 A 
ATOM     25  C   LIG    1      -12.312   1.196  -1.071  0.00  0.00    +0.150 A 
ATOM     26  N   LIG    1      -11.945   2.462  -1.041  0.00  0.00    -0.200 NA
ATOM     27  N   LIG    1      -10.722   2.817  -0.884  0.00  0.00    -0.310 NA
ENDBRANCH  20  22
ENDBRANCH  19  20
ENDBRANCH   5  19
TORSDOF 8
