REMARK  Name = ZINCrD000000AT6D.0
REMARK                            x       y       z     vdW  Elec       q    Type
REMARK                         _______ _______ _______ _____ _____    ______ ____
ROOT
ATOM      1  C   LIG    1        4.639   8.313   0.001  0.00  0.00    +0.520 C 
ATOM      2  N   LIG    1        4.616   9.661   0.009  0.00  0.00    -0.620 N 
ATOM      3  C   LIG    1        3.342  10.397   0.019  0.00  0.00    +0.250 C 
ATOM      4  C   LIG    1        3.396  11.434   1.152  0.00  0.00    +0.220 C 
ATOM      5  O   LIG    1        4.582  12.220   1.012  0.00  0.00    -0.370 OA
ATOM      6  C   LIG    1        5.796  11.475   1.129  0.00  0.00    +0.200 C 
ATOM      7  C   LIG    1        5.864  10.440   0.000  0.00  0.00    +0.280 C 
ATOM      8  O   LIG    1        5.700   7.725  -0.013  0.00  0.00    -0.530 OA
ENDROOT
BRANCH   6   9
ATOM      9  C   LIG    1        6.973  12.411   1.026  0.00  0.00    -0.100 A 
ATOM     10  C   LIG    1        6.911  13.508   0.189  0.00  0.00    +0.080 A 
ATOM     11  C   LIG    1        7.988  14.370   0.097  0.00  0.00    -0.020 A 
ATOM     12  C   LIG    1        9.133  14.127   0.837  0.00  0.00    +0.110 A 
ATOM     13  C   LIG    1        9.196  13.024   1.672  0.00  0.00    -0.010 A 
ATOM     14  F   LIG    1       10.188  14.966   0.745  0.00  0.00    -0.140 F 
ATOM     15  C   LIG    1        8.116  12.167   1.766  0.00  0.00    +0.070 A 
ENDBRANCH   6   9
BRANCH   1  16
ATOM     16  C   LIG    1        3.347   7.538   0.010  0.00  0.00    +0.050 C 
BRANCH  16  17
ATOM     17  C   LIG    1        3.652   6.039  -0.001  0.00  0.00    +0.290 C 
BRANCH  17  20
ATOM     18  O   LIG    1        3.482   3.347  -0.014  0.00  0.00    -0.520 OA
ATOM     19  C   LIG    1        2.420   3.937  -0.000  0.00  0.00    +0.560 C 
ATOM     20  N   LIG    1        2.397   5.284   0.007  0.00  0.00    -0.730 N 
ATOM     21  H   LIG    1        1.548   5.755   0.018  0.00  0.00    +0.400 HD
BRANCH  19  22
ATOM     22  C   LIG    1        1.153   3.176   0.008  0.00  0.00    -0.120 A 
ATOM     23  C   LIG    1        1.173   1.780   0.000  0.00  0.00    +0.100 A 
ATOM     24  C   LIG    1       -0.013   1.076   0.008  0.00  0.00    +0.040 A 
ATOM     25  C   LIG    1       -1.222   1.750   0.017  0.00  0.00    -0.070 A 
ATOM     26  C   LIG    1       -1.249   3.135   0.031  0.00  0.00    +0.040 A 
ATOM     27 BR   LIG    1       -2.843   0.777   0.020  0.00  0.00    -0.040 Br
ATOM     28  C   LIG    1       -0.070   3.850   0.023  0.00  0.00    +0.060 A 
ENDBRANCH  19  22
ENDBRANCH  17  20
ENDBRANCH  16  17
ENDBRANCH   1  16
TORSDOF 5
