REMARK  Name = ZINCrg000000sF6A.0
REMARK                            x       y       z     vdW  Elec       q    Type
REMARK                         _______ _______ _______ _____ _____    ______ ____
ROOT
ATOM      1  N   LIG    1        0.703   4.236   1.526  0.00  0.00    -0.980 NA
ENDROOT
BRANCH   1   2
ATOM      2  S   LIG    1        1.225   4.156  -0.043  0.00  0.00    +2.720 S 
ATOM      3  O   LIG    1        0.275   4.874  -0.819  0.00  0.00    -0.920 OA
ATOM      4  O   LIG    1        2.610   4.475  -0.022  0.00  0.00    -0.950 OA
BRANCH   2   8
ATOM      5  C   LIG    1        3.309  -0.440  -1.093  0.00  0.00    +0.350 C 
ATOM      6  N   LIG    1        2.108   0.396  -1.013  0.00  0.00    -0.530 N 
ATOM      7  C   LIG    1        2.216   1.702  -0.620  0.00  0.00    +0.510 A 
ATOM      8  C   LIG    1        1.109   2.472  -0.547  0.00  0.00    -0.860 A 
ATOM      9  C   LIG    1       -0.145   1.908  -0.882  0.00  0.00    +0.590 A 
ATOM     10  N   LIG    1       -0.209   0.617  -1.265  0.00  0.00    -0.550 N 
ATOM     11  C   LIG    1       -1.502   0.022  -1.614  0.00  0.00    +0.350 C 
ATOM     12  O   LIG    1       -1.157   2.584  -0.829  0.00  0.00    -0.480 OA
ATOM     13  C   LIG    1        0.910  -0.128  -1.329  0.00  0.00    +0.690 A 
ATOM     14  O   LIG    1        0.837  -1.291  -1.676  0.00  0.00    -0.520 OA
ENDBRANCH   2   8
ENDBRANCH   1   2
BRANCH   1  15
ATOM     15  C   LIG    1       -0.730   4.329   1.817  0.00  0.00    +0.420 C 
BRANCH  15  16
ATOM     16  C   LIG    1       -1.183   3.074   2.518  0.00  0.00    -0.030 A 
ATOM     17  C   LIG    1       -1.103   2.838   3.840  0.00  0.00    -0.050 A 
ATOM     18  C   LIG    1       -1.640   1.549   4.059  0.00  0.00    -0.060 A 
ATOM     19  C   LIG    1       -2.010   1.071   2.857  0.00  0.00    +0.160 A 
ATOM     20  O   LIG    1       -1.730   1.999   1.927  0.00  0.00    -0.160 OA
ENDBRANCH  15  16
ENDBRANCH   1  15
BRANCH   1  21
ATOM     21  C   LIG    1        1.673   4.212   2.623  0.00  0.00    +0.340 C 
BRANCH  21  22
ATOM     22  C   LIG    1        1.997   5.624   3.038  0.00  0.00    -0.120 A 
ATOM     23  C   LIG    1        3.046   6.297   2.439  0.00  0.00    +0.040 A 
ATOM     24  C   LIG    1        3.340   7.594   2.816  0.00  0.00    +0.000 A 
ATOM     25  C   LIG    1        2.591   8.215   3.799  0.00  0.00    +0.010 A 
ATOM     26  C   LIG    1        1.546   7.540   4.401  0.00  0.00    +0.000 A 
ATOM     27  C   LIG    1        1.249   6.245   4.021  0.00  0.00    +0.020 A 
ENDBRANCH  21  22
ENDBRANCH   1  21
TORSDOF 6
