REMARK  Name = ZINCvU0000000Fkg.0
REMARK                            x       y       z     vdW  Elec       q    Type
REMARK                         _______ _______ _______ _____ _____    ______ ____
ROOT
ATOM      1  N   LIG    1       -0.018   1.461   0.010  0.00  0.00    -0.720 N 
ATOM      2  H   LIG    1        0.816   1.957   0.005  0.00  0.00    +0.400 HD
ATOM      3  C   LIG    1       -1.194   2.119   0.019  0.00  0.00    +0.540 C 
ATOM      4  O   LIG    1       -2.236   1.498   0.021  0.00  0.00    -0.520 OA
ENDROOT
BRANCH   1   6
ATOM      5  C   LIG    1       -0.130  -0.508  -1.437  0.00  0.00    +0.040 C 
ATOM      6  C   LIG    1        0.002  -0.004   0.002  0.00  0.00    +0.280 C 
BRANCH   6   7
ATOM      7  C   LIG    1        1.302  -0.492   0.588  0.00  0.00    -0.090 A 
ATOM      8  C   LIG    1        1.302  -1.575   1.411  0.00  0.00    +0.040 A 
ATOM      9  C   LIG    1        2.512  -2.033   1.959  0.00  0.00    -0.050 A 
ATOM     10  C   LIG    1        2.551  -3.149   2.812  0.00  0.00    +0.020 A 
ATOM     11  C   LIG    1        3.743  -3.564   3.324  0.00  0.00    +0.010 A 
ATOM     12  C   LIG    1        4.927  -2.899   3.014  0.00  0.00    +0.010 A 
ATOM     13  C   LIG    1        4.928  -1.814   2.191  0.00  0.00    +0.020 A 
ATOM     14  C   LIG    1        3.717  -1.357   1.643  0.00  0.00    -0.050 A 
ATOM     15  C   LIG    1        3.678  -0.241   0.789  0.00  0.00    +0.030 A 
ATOM     16  C   LIG    1        2.488   0.170   0.273  0.00  0.00    +0.010 A 
ENDBRANCH   6   7
ENDBRANCH   1   6
BRANCH   3  17
ATOM     17  C   LIG    1       -1.214   3.626   0.028  0.00  0.00    +0.080 C 
BRANCH  17  18
ATOM     18  S   LIG    1       -2.933   4.207   0.039  0.00  0.00    +0.120 S 
BRANCH  18  19
ATOM     19  C   LIG    1       -2.758   5.960   0.048  0.00  0.00    +0.200 A 
ATOM     20  N   LIG    1       -1.620   6.615   0.045  0.00  0.00    -0.320 NA
ATOM     21  N   LIG    1       -1.939   7.982   0.054  0.00  0.00    -0.320 N 
ATOM     22  C   LIG    1       -3.283   8.060   0.062  0.00  0.00    +0.330 A 
ATOM     23  N   LIG    1       -3.763   6.843   0.052  0.00  0.00    -0.510 NA
BRANCH  21  24
ATOM     24  C   LIG    1       -1.036   9.054   0.056  0.00  0.00    +0.140 A 
ATOM     25  C   LIG    1       -1.342  10.222  -0.630  0.00  0.00    +0.020 A 
ATOM     26  C   LIG    1       -0.453  11.279  -0.621  0.00  0.00    +0.040 A 
ATOM     27  C   LIG    1        0.745  11.171   0.060  0.00  0.00    +0.020 A 
ATOM     28  C   LIG    1        1.056  10.007   0.738  0.00  0.00    +0.030 A 
ATOM     29  C   LIG    1        0.168   8.948   0.739  0.00  0.00    +0.020 A 
ENDBRANCH  21  24
BRANCH  22  30
ATOM     30  C   LIG    1       -4.095   9.330   0.073  0.00  0.00    +0.020 C 
ATOM     31  C   LIG    1       -5.605   9.201   0.283  0.00  0.00    +0.080 C 
ATOM     32  C   LIG    1       -5.053   9.566  -1.096  0.00  0.00    +0.060 C 
ENDBRANCH  22  30
ENDBRANCH  18  19
ENDBRANCH  17  18
ENDBRANCH   3  17
TORSDOF 7
