REMARK  Name = ZINCwJ00000006MO.0
REMARK                            x       y       z     vdW  Elec       q    Type
REMARK                         _______ _______ _______ _____ _____    ______ ____
ROOT
ATOM      1  C   LIG    1        7.432  -1.814   0.980  0.00  0.00    +0.630 C 
ATOM      2  N   LIG    1        7.712  -2.680   1.934  0.00  0.00    -0.560 NA
ATOM      3  C   LIG    1        8.897  -3.310   1.954  0.00  0.00    +0.190 C 
ATOM      4  C   LIG    1        9.227  -4.236   2.952  0.00  0.00    +0.020 C 
ATOM      5  C   LIG    1       10.445  -4.848   2.926  0.00  0.00    +0.140 C 
ATOM      6  C   LIG    1       11.367  -4.568   1.922  0.00  0.00    +0.050 C 
ATOM      7  C   LIG    1       11.077  -3.672   0.935  0.00  0.00    +0.110 C 
ATOM      8  C   LIG    1        9.836  -3.027   0.933  0.00  0.00    -0.180 C 
ATOM      9  C   LIG    1        9.480  -2.087  -0.067  0.00  0.00    +0.540 C 
ATOM     10  H   LIG    1        7.058  -2.863   2.627  0.00  0.00    +0.440 HD
ATOM     11  N   LIG    1        8.283  -1.523  -0.001  0.00  0.00    -0.580 NA
ENDROOT
BRANCH   1  15
ATOM     12  N   LIG    1        3.632  -0.515  -0.036  0.00  0.00    -0.480 NA
ATOM     13  C   LIG    1        3.766  -1.440   1.098  0.00  0.00    +0.270 C 
ATOM     14  C   LIG    1        5.108  -2.171   1.000  0.00  0.00    +0.250 C 
ATOM     15  N   LIG    1        6.199  -1.187   0.995  0.00  0.00    -0.480 NA
ATOM     16  C   LIG    1        6.065  -0.262  -0.139  0.00  0.00    +0.300 C 
ATOM     17  C   LIG    1        4.724   0.469  -0.041  0.00  0.00    +0.220 C 
BRANCH  12  22
ATOM     18  C   LIG    1        0.002  -0.004   0.002  0.00  0.00    +0.270 C 
ATOM     19  C   LIG    1       -0.017   1.390   0.010  0.00  0.00    -0.040 C 
ATOM     20  C   LIG    1        1.177   2.080   0.002  0.00  0.00    +0.410 C 
ATOM     21  N   LIG    1        2.331   1.439  -0.013  0.00  0.00    -0.510 NA
ATOM     22  C   LIG    1        2.393   0.115  -0.020  0.00  0.00    +0.380 C 
ATOM     23  H   LIG    1        3.155   1.951  -0.017  0.00  0.00    +0.440 HD
ATOM     24  C   LIG    1        1.233  -0.648  -0.013  0.00  0.00    +0.000 C 
BRANCH  18  26
ATOM     25  C   LIG    1       -2.374   0.030   0.024  0.00  0.00    +0.300 C 
ATOM     26  O   LIG    1       -1.154  -0.715   0.009  0.00  0.00    -0.270 OA
ENDBRANCH  18  26
ENDBRANCH  12  22
ENDBRANCH   1  15
BRANCH   9  27
ATOM     27  N   LIG    1       10.354  -1.772  -1.085  0.00  0.00    -0.630 NA
ATOM     28  H   LIG    1       11.226  -2.195  -1.124  0.00  0.00    +0.430 HD
BRANCH  27  29
ATOM     29  C   LIG    1        9.966  -0.798  -2.109  0.00  0.00    +0.350 C 
BRANCH  29  30
ATOM     30  C   LIG    1       11.091  -0.635  -3.098  0.00  0.00    -0.140 A 
ATOM     31  C   LIG    1       12.061   0.327  -2.889  0.00  0.00    +0.040 A 
ATOM     32  C   LIG    1       13.096   0.474  -3.794  0.00  0.00    +0.010 A 
ATOM     33  C   LIG    1       13.153  -0.334  -4.914  0.00  0.00    +0.040 A 
ATOM     34  C   LIG    1       12.180  -1.292  -5.127  0.00  0.00    +0.010 A 
ATOM     35  C   LIG    1       11.148  -1.442  -4.219  0.00  0.00    +0.020 A 
ENDBRANCH  29  30
ENDBRANCH  27  29
ENDBRANCH   9  27
TORSDOF 6
