REMARK  Name = ZINCrD000000AkH0.0
REMARK                            x       y       z     vdW  Elec       q    Type
REMARK                         _______ _______ _______ _____ _____    ______ ____
ROOT
ATOM      1  N   LIG    1       -0.706   1.531   1.232  0.00  0.00    -0.930 N 
ENDROOT
BRANCH   1   2
ATOM      2  C   LIG    1       -1.633   0.607   1.721  0.00  0.00    +0.180 A 
ATOM      3  C   LIG    1       -2.516   0.974   2.728  0.00  0.00    +0.000 A 
ATOM      4  C   LIG    1       -3.435   0.061   3.207  0.00  0.00    +0.070 A 
ATOM      5  C   LIG    1       -3.469  -1.222   2.694  0.00  0.00    -0.010 A 
ATOM      6  C   LIG    1       -2.586  -1.595   1.694  0.00  0.00    +0.120 A 
ATOM      7  F   LIG    1       -2.622  -2.849   1.194  0.00  0.00    -0.130 F 
ATOM      8  C   LIG    1       -1.668  -0.683   1.206  0.00  0.00    -0.020 A 
ENDBRANCH   1   2
BRANCH   1   9
ATOM      9  S   LIG    1        0.374   2.246   2.263  0.00  0.00    +2.680 S 
ATOM     10  O   LIG    1        1.523   2.558   1.487  0.00  0.00    -0.950 OA
ATOM     11  O   LIG    1        0.419   1.431   3.426  0.00  0.00    -0.930 OA
BRANCH   9  12
ATOM     12  C   LIG    1       -0.323   3.786   2.762  0.00  0.00    -0.660 A 
ATOM     13  C   LIG    1       -0.126   4.916   1.990  0.00  0.00    +0.120 A 
ATOM     14  C   LIG    1       -0.677   6.123   2.379  0.00  0.00    +0.000 A 
ATOM     15  C   LIG    1       -1.415   6.202   3.545  0.00  0.00    +0.070 A 
ATOM     16  C   LIG    1       -1.607   5.073   4.319  0.00  0.00    -0.010 A 
ATOM     17  C   LIG    1       -1.061   3.865   3.928  0.00  0.00    +0.120 A 
ENDBRANCH   9  12
ENDBRANCH   1   9
BRANCH   1  18
ATOM     18  C   LIG    1       -0.690   1.867  -0.194  0.00  0.00    +0.340 C 
BRANCH  18  20
ATOM     19  O   LIG    1       -2.367   3.401   0.442  0.00  0.00    -0.510 OA
ATOM     20  C   LIG    1       -1.700   2.952  -0.466  0.00  0.00    +0.490 C 
ATOM     21  N   LIG    1       -1.861   3.424  -1.718  0.00  0.00    -0.730 N 
ATOM     22  H   LIG    1       -1.328   3.065  -2.444  0.00  0.00    +0.400 HD
BRANCH  21  23
ATOM     23  C   LIG    1       -2.842   4.479  -1.982  0.00  0.00    +0.370 C 
BRANCH  23  24
ATOM     24  C   LIG    1       -2.826   4.825  -3.449  0.00  0.00    -0.210 A 
ATOM     25  C   LIG    1       -3.581   4.245  -4.384  0.00  0.00    +0.030 A 
ATOM     26  C   LIG    1       -3.393   4.729  -5.667  0.00  0.00    +0.000 A 
ATOM     27  C   LIG    1       -2.487   5.702  -5.774  0.00  0.00    -0.030 A 
ATOM     28  S   LIG    1       -1.815   6.059  -4.189  0.00  0.00    +0.120 S 
ENDBRANCH  23  24
ENDBRANCH  21  23
ENDBRANCH  18  20
ENDBRANCH   1  18
TORSDOF 7
