REMARK  Name = ZINCtV00001bB39M.0
REMARK                            x       y       z     vdW  Elec       q    Type
REMARK                         _______ _______ _______ _____ _____    ______ ____
ROOT
ATOM      1  N   LIG    1       -0.305   0.421  -0.261  0.00  0.00    -0.670 N 
ATOM      2  H   LIG    1       -0.237  -0.546  -0.240  0.00  0.00    +0.410 HD
ATOM      3  C   LIG    1       -1.516   1.011  -0.320  0.00  0.00    +0.560 C 
ATOM      4  O   LIG    1       -1.599   2.221  -0.430  0.00  0.00    -0.530 OA
ENDROOT
BRANCH   1   9
ATOM      5  C   LIG    1        3.105   1.567   0.517  0.00  0.00    +0.160 A 
ATOM      6  C   LIG    1        3.146   2.760  -0.193  0.00  0.00    +0.010 A 
ATOM      7  C   LIG    1        2.045   3.172  -0.920  0.00  0.00    +0.040 A 
ATOM      8  C   LIG    1        0.903   2.396  -0.949  0.00  0.00    +0.010 A 
ATOM      9  C   LIG    1        0.853   1.204  -0.236  0.00  0.00    +0.160 A 
ATOM     10  C   LIG    1        1.957   0.788   0.495  0.00  0.00    -0.140 A 
ATOM     11  C   LIG    1        1.909  -0.507   1.264  0.00  0.00    +0.100 C 
BRANCH   5  13
ATOM     12  C   LIG    1        5.001   2.063   1.865  0.00  0.00    +0.510 C 
ATOM     13  N   LIG    1        4.220   1.151   1.252  0.00  0.00    -0.670 N 
ATOM     14  H   LIG    1        4.430   0.207   1.322  0.00  0.00    +0.410 HD
ATOM     15  O   LIG    1        4.787   3.247   1.711  0.00  0.00    -0.520 OA
BRANCH  12  17
ATOM     16  C   LIG    1        6.863   2.834   3.309  0.00  0.00    +0.040 C 
ATOM     17  C   LIG    1        6.142   1.611   2.740  0.00  0.00    +0.060 C 
ENDBRANCH  12  17
ENDBRANCH   5  13
ENDBRANCH   1   9
BRANCH   3  18
ATOM     18  C   LIG    1       -2.689   0.225  -0.255  0.00  0.00    -0.120 C 
ATOM     19  C   LIG    1       -3.908   0.819  -0.315  0.00  0.00    +0.190 C 
BRANCH  19  20
ATOM     20  C   LIG    1       -5.082   0.033  -0.250  0.00  0.00    -0.200 A 
ATOM     21  C   LIG    1       -6.362   0.519  -0.300  0.00  0.00    +0.070 A 
ATOM     22  C   LIG    1       -7.338  -0.435  -0.220  0.00  0.00    +0.030 A 
ATOM     23  C   LIG    1       -6.879  -1.716  -0.103  0.00  0.00    -0.140 A 
ATOM     24  S   LIG    1       -5.121  -1.718  -0.100  0.00  0.00    +0.180 S 
BRANCH  23  25
ATOM     25  C   LIG    1       -7.731  -2.917   0.001  0.00  0.00    -0.020 A 
ATOM     26  C   LIG    1       -7.497  -4.016  -0.829  0.00  0.00    +0.040 A 
ATOM     27  C   LIG    1       -8.297  -5.136  -0.727  0.00  0.00    +0.030 A 
ATOM     28  C   LIG    1       -9.329  -5.172   0.193  0.00  0.00    +0.040 A 
ATOM     29  C   LIG    1       -9.568  -4.087   1.018  0.00  0.00    +0.030 A 
ATOM     30  C   LIG    1       -8.772  -2.962   0.932  0.00  0.00    -0.020 A 
ATOM     31 CL   LIG    1       -9.068  -1.605   1.973  0.00  0.00    -0.060 Cl
ENDBRANCH  23  25
ENDBRANCH  19  20
ENDBRANCH   3  18
TORSDOF 6
