REMARK  Name = ZINCrH000004pqee.0
REMARK                            x       y       z     vdW  Elec       q    Type
REMARK                         _______ _______ _______ _____ _____    ______ ____
ROOT
ATOM      1  N   LIG    1        2.085   7.286  -1.928  0.00  0.00    -0.720 N 
ATOM      2  H   LIG    1        2.940   7.711  -1.756  0.00  0.00    +0.390 HD
ATOM      3  C   LIG    1        1.773   6.127  -1.313  0.00  0.00    +0.600 C 
ATOM      4  O   LIG    1        0.701   5.594  -1.528  0.00  0.00    -0.530 OA
ENDROOT
BRANCH   3   5
ATOM      5  C   LIG    1        2.731   5.507  -0.382  0.00  0.00    -0.280 A 
ATOM      6  C   LIG    1        3.977   5.988  -0.035  0.00  0.00    +0.300 A 
ATOM      7  N   LIG    1        4.525   5.124   0.833  0.00  0.00    -0.460 N 
ATOM      8  H   LIG    1        5.403   5.218   1.235  0.00  0.00    +0.450 HD
ATOM      9  N   LIG    1        3.640   4.068   1.069  0.00  0.00    -0.280 NA
ATOM     10  C   LIG    1        2.548   4.258   0.363  0.00  0.00    +0.180 A 
BRANCH  10  11
ATOM     11  C   LIG    1        1.359   3.373   0.324  0.00  0.00    -0.030 A 
ATOM     12  C   LIG    1        1.512   1.991   0.419  0.00  0.00    +0.060 A 
ATOM     13  C   LIG    1        0.402   1.171   0.381  0.00  0.00    +0.020 A 
ATOM     14  C   LIG    1       -0.861   1.720   0.242  0.00  0.00    -0.020 A 
ATOM     15  C   LIG    1       -1.020   3.092   0.153  0.00  0.00    +0.020 A 
ATOM     16 CL   LIG    1       -2.253   0.683   0.187  0.00  0.00    -0.070 Cl
ATOM     17  C   LIG    1        0.084   3.920   0.190  0.00  0.00    +0.110 A 
ENDBRANCH  10  11
ENDBRANCH   3   5
BRANCH   1  19
ATOM     18  C   LIG    1        0.137   8.758  -2.068  0.00  0.00    +0.040 C 
ATOM     19  C   LIG    1        1.133   7.903  -2.854  0.00  0.00    +0.290 C 
BRANCH  19  20
ATOM     20  C   LIG    1        1.877   8.772  -3.835  0.00  0.00    -0.110 A 
ATOM     21  C   LIG    1        2.933   9.552  -3.401  0.00  0.00    +0.030 A 
ATOM     22  C   LIG    1        3.620  10.346  -4.298  0.00  0.00    -0.010 A 
ATOM     23  C   LIG    1        3.243  10.368  -5.635  0.00  0.00    +0.170 A 
ATOM     24  C   LIG    1        2.179   9.588  -6.066  0.00  0.00    +0.030 A 
ATOM     25  C   LIG    1        1.498   8.792  -5.165  0.00  0.00    +0.050 A 
BRANCH  23  26
ATOM     26  N   LIG    1        3.935  11.175  -6.545  0.00  0.00    -0.690 N 
ATOM     27  H   LIG    1        4.886  11.329  -6.432  0.00  0.00    +0.410 HD
ATOM     28  C   LIG    1        3.279  11.738  -7.580  0.00  0.00    +0.700 C 
ATOM     29  O   LIG    1        2.072  11.625  -7.668  0.00  0.00    -0.570 OA
ATOM     30  N   LIG    1        3.962  12.426  -8.516  0.00  0.00    -0.860 N 
ATOM     31  H   LIG    1        3.491  12.832  -9.260  0.00  0.00    +0.420 HD
ATOM     32  H   LIG    1        4.926  12.517  -8.445  0.00  0.00    +0.400 HD
ENDBRANCH  23  26
ENDBRANCH  19  20
ENDBRANCH   1  19
TORSDOF 5
