REMARK  Name = ZINCvU000000070T.0
REMARK                            x       y       z     vdW  Elec       q    Type
REMARK                         _______ _______ _______ _____ _____    ______ ____
ROOT
ATOM      1  N   LIG    1        0.208  -8.257   5.805  0.00  0.00    -0.410 N 
ATOM      2  C   LIG    1        0.014  -7.000   5.302  0.00  0.00    +0.170 A 
ATOM      3  N   LIG    1        0.034  -6.167   6.319  0.00  0.00    -0.280 NA
ATOM      4  N   LIG    1        0.216  -6.812   7.415  0.00  0.00    -0.260 NA
ATOM      5  C   LIG    1        0.333  -8.096   7.167  0.00  0.00    +0.240 A 
ENDROOT
BRANCH   1   9
ATOM      6  C   LIG    1        0.382 -11.832   3.661  0.00  0.00    +0.160 A 
ATOM      7  C   LIG    1        1.389 -10.888   3.519  0.00  0.00    +0.010 A 
ATOM      8  C   LIG    1        1.332  -9.705   4.229  0.00  0.00    +0.080 A 
ATOM      9  C   LIG    1        0.266  -9.459   5.083  0.00  0.00    +0.050 A 
ATOM     10  C   LIG    1       -0.739 -10.406   5.229  0.00  0.00    +0.080 A 
ATOM     11  C   LIG    1       -0.683 -11.586   4.515  0.00  0.00    -0.060 A 
BRANCH   6  12
ATOM     12  O   LIG    1        0.439 -12.996   2.962  0.00  0.00    -0.310 OA
BRANCH  12  14
ATOM     13  C   LIG    1       -0.397 -15.164   2.294  0.00  0.00    +0.070 C 
ATOM     14  C   LIG    1       -0.632 -13.922   3.156  0.00  0.00    +0.190 C 
ENDBRANCH  12  14
ENDBRANCH   6  12
ENDBRANCH   1   9
BRANCH   5  15
ATOM     15  C   LIG    1        0.557  -9.167   8.161  0.00  0.00    -0.070 A 
ATOM     16  C   LIG    1        1.023 -10.424   7.761  0.00  0.00    +0.080 A 
ATOM     17  C   LIG    1        1.216 -11.392   8.731  0.00  0.00    -0.030 A 
ATOM     18  C   LIG    1        0.945 -11.089  10.053  0.00  0.00    +0.280 A 
ATOM     19  N   LIG    1        0.506  -9.895  10.402  0.00  0.00    -0.480 NA
ATOM     20  C   LIG    1        0.312  -8.939   9.517  0.00  0.00    +0.320 A 
ENDBRANCH   5  15
BRANCH   2  21
ATOM     21  S   LIG    1       -0.212  -6.575   3.607  0.00  0.00    +0.040 S 
BRANCH  21  22
ATOM     22  C   LIG    1       -0.397  -4.780   3.755  0.00  0.00    +0.100 C 
BRANCH  22  23
ATOM     23  C   LIG    1       -0.611  -4.173   2.367  0.00  0.00    +0.220 C 
BRANCH  23  24
ATOM     24  O   LIG    1       -0.756  -2.757   2.484  0.00  0.00    -0.310 OA
BRANCH  24  25
ATOM     25  C   LIG    1       -0.955  -2.060   1.334  0.00  0.00    +0.130 A 
ATOM     26  C   LIG    1       -1.009  -2.726   0.119  0.00  0.00    -0.090 A 
ATOM     27  C   LIG    1       -1.212  -2.016  -1.049  0.00  0.00    +0.050 A 
ATOM     28  C   LIG    1       -1.367  -0.643  -1.006  0.00  0.00    -0.040 A 
ATOM     29  C   LIG    1       -1.308   0.025   0.204  0.00  0.00    -0.050 A 
ATOM     30  C   LIG    1       -1.470   1.522   0.247  0.00  0.00    +0.090 C 
ATOM     31  C   LIG    1       -1.105  -0.681   1.374  0.00  0.00    -0.020 A 
ENDBRANCH  24  25
ENDBRANCH  23  24
ENDBRANCH  22  23
ENDBRANCH  21  22
ENDBRANCH   2  21
TORSDOF 9
