REMARK  Name = ZINCkj000005eCAG.0
REMARK                            x       y       z     vdW  Elec       q    Type
REMARK                         _______ _______ _______ _____ _____    ______ ____
ROOT
ATOM      1  N   LIG    1        0.137   0.914   4.877  0.00  0.00    -0.530 NA
ATOM      2  C   LIG    1        0.092  -0.553   4.954  0.00  0.00    +0.210 C 
ATOM      3  C   LIG    1        0.830  -1.017   6.212  0.00  0.00    +0.270 C 
ATOM      4  N   LIG    1        0.195  -0.427   7.398  0.00  0.00    -0.390 N 
ATOM      5  C   LIG    1        0.269   1.037   7.318  0.00  0.00    +0.280 C 
ATOM      6  H   LIG    1       -0.772  -0.713   7.438  0.00  0.00    +0.420 HD
ATOM      7  C   LIG    1       -0.473   1.519   6.069  0.00  0.00    +0.210 C 
ENDROOT
BRANCH   1   8
ATOM      8  C   LIG    1       -0.512   1.397   3.651  0.00  0.00    +0.170 C 
BRANCH   8   9
ATOM      9  C   LIG    1        0.299   0.949   2.433  0.00  0.00    +0.210 C 
BRANCH   9  10
ATOM     10  O   LIG    1        1.620   1.487   2.517  0.00  0.00    -0.550 OA
ATOM     11  H   LIG    1        1.650   2.454   2.539  0.00  0.00    +0.380 HD
ENDBRANCH   9  10
BRANCH   9  12
ATOM     12  C   LIG    1       -0.378   1.451   1.157  0.00  0.00    -0.010 C 
BRANCH  12  13
ATOM     13  C   LIG    1        0.362   0.899  -0.064  0.00  0.00    +0.060 C 
BRANCH  13  15
ATOM     14  C   LIG    1        0.397   2.030  -2.227  0.00  0.00    +0.020 C 
ATOM     15  C   LIG    1       -0.304   1.394  -1.321  0.00  0.00    -0.060 C 
ENDBRANCH  13  15
ENDBRANCH  12  13
ENDBRANCH   9  12
ENDBRANCH   8   9
ENDBRANCH   1   8
BRANCH   4  16
ATOM     16  C   LIG    1        0.892  -0.888   8.606  0.00  0.00    +0.260 C 
BRANCH  16  17
ATOM     17  C   LIG    1        0.875  -2.417   8.654  0.00  0.00    -0.020 C 
ATOM     18  C   LIG    1       -0.571  -2.910   8.765  0.00  0.00    -0.010 C 
ATOM     19  C   LIG    1       -0.573  -4.436   8.891  0.00  0.00    +0.220 C 
ATOM     20  O   LIG    1        0.203  -4.820  10.028  0.00  0.00    -0.370 OA
ATOM     21  C   LIG    1        1.575  -4.427   9.958  0.00  0.00    +0.230 C 
ATOM     22  C   LIG    1        1.663  -2.901   9.875  0.00  0.00    +0.020 C 
ENDBRANCH  16  17
ENDBRANCH   4  16
TORSDOF 8
