REMARK  Name = ZINCrg000000rZfd.0
REMARK                            x       y       z     vdW  Elec       q    Type
REMARK                         _______ _______ _______ _____ _____    ______ ____
ROOT
ATOM      1  C   LIG    1        2.458   8.252  -0.105  0.00  0.00    +0.530 C 
ATOM      2  N   LIG    1        1.314   7.545  -0.188  0.00  0.00    -0.660 N 
ATOM      3  H   LIG    1        0.465   8.006  -0.283  0.00  0.00    +0.420 HD
ATOM      4  O   LIG    1        3.528   7.676  -0.080  0.00  0.00    -0.410 OA
ENDROOT
BRANCH   1   8
ATOM      5  C   LIG    1       -0.113  12.541  -0.042  0.00  0.00    +0.160 C 
ATOM      6  C   LIG    1        1.200  11.800  -0.012  0.00  0.00    +0.220 A 
ATOM      7  C   LIG    1        1.196  10.417  -0.071  0.00  0.00    -0.060 A 
ATOM      8  C   LIG    1        2.413   9.732  -0.044  0.00  0.00    +0.030 A 
ATOM      9  C   LIG    1        3.591  10.490   0.049  0.00  0.00    -0.240 A 
ATOM     10  C   LIG    1        5.022  10.149   0.096  0.00  0.00    +0.560 A 
ATOM     11  N   LIG    1        5.702  11.311   0.178  0.00  0.00    -0.510 N 
ATOM     12  H   LIG    1        6.667  11.395   0.227  0.00  0.00    +0.440 HD
ATOM     13  N   LIG    1        4.797  12.377   0.181  0.00  0.00    -0.400 N 
ATOM     14  C   LIG    1        5.162  13.794   0.260  0.00  0.00    +0.360 C 
ATOM     15  O   LIG    1        5.501   9.032   0.070  0.00  0.00    -0.470 OA
ATOM     16  C   LIG    1        3.506  11.891   0.100  0.00  0.00    +0.410 A 
ATOM     17  N   LIG    1        2.322  12.485   0.070  0.00  0.00    -0.510 NA
ENDBRANCH   1   8
BRANCH   2  18
ATOM     18  C   LIG    1        1.349   6.152  -0.138  0.00  0.00    +0.340 A 
ATOM     19  C   LIG    1        0.158   5.435  -0.118  0.00  0.00    -0.040 A 
ATOM     20  C   LIG    1        0.204   4.053  -0.074  0.00  0.00    +0.070 A 
ATOM     21  C   LIG    1        1.451   3.431  -0.040  0.00  0.00    +0.030 A 
ATOM     22  C   LIG    1        2.597   4.212  -0.063  0.00  0.00    +0.250 A 
ATOM     23  N   LIG    1        2.516   5.528  -0.110  0.00  0.00    -0.450 NA
BRANCH  21  24
ATOM     24  N   LIG    1        1.545   2.035   0.010  0.00  0.00    -0.480 N 
ATOM     25  C   LIG    1        2.950   1.603   0.033  0.00  0.00    +0.170 C 
ATOM     26  C   LIG    1        3.007   0.077   0.148  0.00  0.00    +0.230 C 
ATOM     27  O   LIG    1        2.278  -0.505  -0.936  0.00  0.00    -0.380 OA
ATOM     28  C   LIG    1        0.906  -0.106  -0.987  0.00  0.00    +0.220 C 
ATOM     29  C   LIG    1        0.828   1.418  -1.114  0.00  0.00    +0.160 C 
ENDBRANCH  21  24
ENDBRANCH   2  18
TORSDOF 3
