REMARK  Name = ZINCrH000004tkSj.0
REMARK                            x       y       z     vdW  Elec       q    Type
REMARK                         _______ _______ _______ _____ _____    ______ ____
ROOT
ATOM      1  C   LIG    1        6.119   5.676  -2.439  0.00  0.00    -0.090 A 
ATOM      2  C   LIG    1        6.322   5.521  -1.068  0.00  0.00    +0.080 A 
ATOM      3  C   LIG    1        6.086   4.301  -0.471  0.00  0.00    +0.000 A 
ATOM      4  C   LIG    1        5.646   3.227  -1.233  0.00  0.00    +0.130 A 
ATOM      5  C   LIG    1        5.448   3.376  -2.599  0.00  0.00    -0.070 A 
ATOM      6  C   LIG    1        5.677   4.595  -3.202  0.00  0.00    +0.070 A 
ENDROOT
BRANCH   1  10
ATOM      7  C   LIG    1        6.846   9.437  -4.292  0.00  0.00    -0.030 A 
ATOM      8  C   LIG    1        6.403   8.354  -5.057  0.00  0.00    +0.080 A 
ATOM      9  C   LIG    1        6.168   7.138  -4.457  0.00  0.00    +0.020 A 
ATOM     10  C   LIG    1        6.372   6.986  -3.084  0.00  0.00    -0.010 A 
ATOM     11  C   LIG    1        6.810   8.067  -2.319  0.00  0.00    +0.020 A 
ATOM     12  C   LIG    1        7.051   9.283  -2.918  0.00  0.00    +0.080 A 
BRANCH   7  14
ATOM     13  N   LIG    1        7.284  11.707  -5.410  0.00  0.00    -0.410 NA
ATOM     14  C   LIG    1        7.090  10.703  -4.915  0.00  0.00    +0.250 C 
ENDBRANCH   7  14
ENDBRANCH   1  10
BRANCH   4  15
ATOM     15  O   LIG    1        5.415   2.026  -0.642  0.00  0.00    -0.310 OA
BRANCH  15  16
ATOM     16  C   LIG    1        4.964   0.964  -1.485  0.00  0.00    +0.360 C 
BRANCH  16  17
ATOM     17  C   LIG    1        4.763  -0.281  -0.660  0.00  0.00    +0.240 A 
ATOM     18  N   LIG    1        5.658  -1.202  -0.416  0.00  0.00    -0.300 NA
ATOM     19  N   LIG    1        5.163  -2.131   0.321  0.00  0.00    -0.030 NA
ATOM     20  N   LIG    1        3.932  -1.868   0.601  0.00  0.00    -0.060 NA
ATOM     21  N   LIG    1        3.624  -0.653  -0.036  0.00  0.00    -0.310 N 
BRANCH  21  22
ATOM     22  C   LIG    1        2.399   0.031  -0.020  0.00  0.00    +0.110 A 
ATOM     23  C   LIG    1        1.207  -0.680  -0.013  0.00  0.00    +0.050 A 
ATOM     24  C   LIG    1        0.002  -0.004   0.002  0.00  0.00    +0.040 A 
ATOM     25  C   LIG    1       -0.017   1.379   0.010  0.00  0.00    +0.040 A 
ATOM     26  C   LIG    1        1.170   2.089   0.002  0.00  0.00    +0.040 A 
ATOM     27  C   LIG    1        2.377   1.419  -0.013  0.00  0.00    +0.020 A 
ENDBRANCH  21  22
ENDBRANCH  16  17
ENDBRANCH  15  16
ENDBRANCH   4  15
TORSDOF 6
