REMARK  Name = ZINCqH0000038yr0.0
REMARK                            x       y       z     vdW  Elec       q    Type
REMARK                         _______ _______ _______ _____ _____    ______ ____
ROOT
ATOM      1  C   LIG    1       -7.427   2.795   0.340  0.00  0.00    -0.200 A 
ATOM      2  C   LIG    1       -7.520   4.144   0.376  0.00  0.00    +0.240 A 
ATOM      3  N   LIG    1       -8.563   4.506  -0.405  0.00  0.00    -0.330 N 
ATOM      4  N   LIG    1       -9.133   3.339  -0.930  0.00  0.00    -0.290 NA
ATOM      5  C   LIG    1       -8.452   2.314  -0.483  0.00  0.00    +0.270 A 
ENDROOT
BRANCH   3   6
ATOM      6  C   LIG    1       -8.999   5.816  -0.643  0.00  0.00    +0.200 A 
ATOM      7  C   LIG    1       -8.343   6.887  -0.051  0.00  0.00    -0.010 A 
ATOM      8  C   LIG    1       -8.771   8.177  -0.293  0.00  0.00    +0.110 A 
ATOM      9  C   LIG    1       -9.861   8.403  -1.114  0.00  0.00    -0.200 A 
ATOM     10  C   LIG    1      -10.521   7.339  -1.700  0.00  0.00    +0.110 A 
ATOM     11  C   LIG    1      -10.093   6.046  -1.467  0.00  0.00    +0.030 A 
BRANCH   9  12
ATOM     12  C   LIG    1      -10.331   9.812  -1.370  0.00  0.00    +0.510 C 
ATOM     13  F   LIG    1      -10.908   9.887  -2.642  0.00  0.00    -0.180 F 
ATOM     14  F   LIG    1       -9.241  10.687  -1.300  0.00  0.00    -0.180 F 
ATOM     15  F   LIG    1      -11.279  10.170  -0.406  0.00  0.00    -0.170 F 
ENDBRANCH   9  12
ENDBRANCH   3   6
BRANCH   1  16
ATOM     16  C   LIG    1       -6.405   1.956   1.065  0.00  0.00    +0.250 C 
BRANCH  16  19
ATOM     17  C   LIG    1       -3.175   1.714   0.373  0.00  0.00    +0.080 C 
ATOM     18  C   LIG    1       -4.229   2.835   0.425  0.00  0.00    +0.180 C 
ATOM     19  N   LIG    1       -5.230   1.765   0.204  0.00  0.00    -0.470 NA
ATOM     20  C   LIG    1       -4.311   0.758   0.778  0.00  0.00    +0.200 C 
BRANCH  17  26
ATOM     21  C   LIG    1       -0.013   1.086   0.008  0.00  0.00    +0.130 C 
ATOM     22  C   LIG    1       -0.718   1.572   1.248  0.00  0.00    -0.200 A 
ATOM     23  C   LIG    1       -0.179   1.851   2.459  0.00  0.00    +0.160 A 
ATOM     24  O   LIG    1       -1.191   2.249   3.242  0.00  0.00    +0.100 OA
ATOM     25  N   LIG    1       -2.244   2.238   2.647  0.00  0.00    -0.360 NA
ATOM     26  C   LIG    1       -2.095   1.848   1.415  0.00  0.00    +0.020 A 
ENDBRANCH  17  26
ENDBRANCH  16  19
ENDBRANCH   1  16
TORSDOF 5
