REMARK  Name = ZINCrg000000oLwY.0
REMARK                            x       y       z     vdW  Elec       q    Type
REMARK                         _______ _______ _______ _____ _____    ______ ____
ROOT
ATOM      1  N   LIG    1        6.296  -0.422   1.414  0.00  0.00    -0.720 N 
ATOM      2  H   LIG    1        7.040  -0.270   0.809  0.00  0.00    +0.400 HD
ATOM      3  C   LIG    1        5.130   0.227   1.225  0.00  0.00    +0.500 C 
ATOM      4  O   LIG    1        4.201   0.037   1.980  0.00  0.00    -0.520 OA
ENDROOT
BRANCH   3   5
ATOM      5  C   LIG    1        4.982   1.189   0.074  0.00  0.00    +0.220 C 
ATOM      6  C   LIG    1        5.980   2.356   0.229  0.00  0.00    +0.050 C 
ATOM      7  C   LIG    1        5.117   3.469   0.879  0.00  0.00    +0.040 C 
ATOM      8  C   LIG    1        3.744   3.233   0.196  0.00  0.00    +0.270 C 
ATOM      9  N   LIG    1        3.630   1.768   0.078  0.00  0.00    -0.600 N 
ATOM     10  C   LIG    1        2.479   1.075  -0.016  0.00  0.00    +0.590 C 
ATOM     11  O   LIG    1        1.416   1.664  -0.056  0.00  0.00    -0.530 OA
BRANCH  10  12
ATOM     12  C   LIG    1        2.507  -0.402  -0.071  0.00  0.00    -0.100 A 
ATOM     13  C   LIG    1        1.609  -1.150   0.693  0.00  0.00    +0.070 A 
ATOM     14  C   LIG    1        1.646  -2.528   0.641  0.00  0.00    +0.010 A 
ATOM     15  C   LIG    1        2.562  -3.169  -0.173  0.00  0.00    +0.030 A 
ATOM     16  C   LIG    1        3.455  -2.434  -0.933  0.00  0.00    +0.010 A 
ATOM     17  C   LIG    1        3.433  -1.056  -0.887  0.00  0.00    +0.010 A 
ENDBRANCH  10  12
ENDBRANCH   3   5
BRANCH   1  18
ATOM     18  C   LIG    1        6.441  -1.358   2.532  0.00  0.00    +0.270 C 
BRANCH  18  22
ATOM     19  C   LIG    1        9.518  -1.238   4.011  0.00  0.00    +0.170 C 
ATOM     20  C   LIG    1        9.409  -2.776   4.164  0.00  0.00    +0.040 C 
ATOM     21  C   LIG    1        7.974  -3.026   3.623  0.00  0.00    +0.030 C 
ATOM     22  C   LIG    1        7.849  -1.954   2.519  0.00  0.00    +0.160 C 
ATOM     23  O   LIG    1        8.813  -0.931   2.798  0.00  0.00    -0.340 OA
BRANCH  19  26
ATOM     24  C   LIG    1       13.192  -0.557   4.840  0.00  0.00    +0.290 C 
ATOM     25  N   LIG    1       11.788  -0.959   4.952  0.00  0.00    -0.620 N 
ATOM     26  C   LIG    1       10.962  -0.825   3.896  0.00  0.00    +0.510 C 
ATOM     27  O   LIG    1       11.382  -0.372   2.852  0.00  0.00    -0.520 OA
ATOM     28  C   LIG    1       11.281  -1.506   6.213  0.00  0.00    +0.280 C 
ENDBRANCH  19  26
ENDBRANCH  18  22
ENDBRANCH   1  18
TORSDOF 5
