REMARK  Name = ZINCrH000004rrfT.0
REMARK                            x       y       z     vdW  Elec       q    Type
REMARK                         _______ _______ _______ _____ _____    ______ ____
ROOT
ATOM      1  C   LIG    1       -1.080   1.569  -0.043  0.00  0.00    -0.650 A 
ATOM      2  C   LIG    1        0.083   0.883  -0.347  0.00  0.00    +0.130 A 
ATOM      3  C   LIG    1        1.291   1.549  -0.382  0.00  0.00    +0.080 A 
ATOM      4  C   LIG    1        1.339   2.917  -0.106  0.00  0.00    -0.080 A 
ATOM      5  C   LIG    1        0.163   3.601   0.205  0.00  0.00    +0.030 A 
ATOM      6  C   LIG    1       -1.038   2.924   0.236  0.00  0.00    +0.130 A 
ENDROOT
BRANCH   4   7
ATOM      7  C   LIG    1        2.629   3.637  -0.142  0.00  0.00    +0.560 C 
ATOM      8  N   LIG    1        2.672   4.957   0.125  0.00  0.00    -0.670 N 
ATOM      9  H   LIG    1        1.849   5.450   0.266  0.00  0.00    +0.420 HD
ATOM     10  O   LIG    1        3.652   3.038  -0.413  0.00  0.00    -0.500 OA
BRANCH   8  11
ATOM     11  C   LIG    1        3.900   5.614   0.199  0.00  0.00    +0.190 A 
ATOM     12  C   LIG    1        5.035   4.957   0.671  0.00  0.00    -0.030 A 
ATOM     13  C   LIG    1        6.232   5.641   0.724  0.00  0.00    +0.280 A 
ATOM     14  N   LIG    1        6.308   6.903   0.344  0.00  0.00    -0.490 NA
ATOM     15  C   LIG    1        5.255   7.560  -0.104  0.00  0.00    +0.280 A 
ATOM     16  C   LIG    1        4.023   6.947  -0.192  0.00  0.00    -0.060 A 
ENDBRANCH   8  11
ENDBRANCH   4   7
BRANCH   1  17
ATOM     17  S   LIG    1       -2.619   0.713  -0.008  0.00  0.00    +2.690 S 
ATOM     18  O   LIG    1       -2.421  -0.499  -0.724  0.00  0.00    -0.940 OA
ATOM     19  O   LIG    1       -3.616   1.665  -0.352  0.00  0.00    -0.940 OA
BRANCH  17  20
ATOM     20  N   LIG    1       -2.905   0.284   1.566  0.00  0.00    -1.050 N 
ATOM     21  H   LIG    1       -3.678   0.639   2.033  0.00  0.00    +0.430 HD
BRANCH  20  26
ATOM     22  C   LIG    1        0.630  -3.261   4.229  0.00  0.00    +0.090 C 
ATOM     23  C   LIG    1       -0.309  -2.319   3.521  0.00  0.00    -0.090 A 
ATOM     24  C   LIG    1       -0.730  -2.601   2.235  0.00  0.00    +0.040 A 
ATOM     25  C   LIG    1       -1.595  -1.743   1.585  0.00  0.00    +0.010 A 
ATOM     26  C   LIG    1       -2.034  -0.589   2.222  0.00  0.00    +0.130 A 
ATOM     27  C   LIG    1       -1.609  -0.308   3.514  0.00  0.00    +0.010 A 
ATOM     28  C   LIG    1       -0.748  -1.173   4.160  0.00  0.00    -0.070 A 
ATOM     29  C   LIG    1       -0.286  -0.869   5.562  0.00  0.00    +0.090 C 
ENDBRANCH  20  26
ENDBRANCH  17  20
ENDBRANCH   1  17
TORSDOF 5
