REMARK  Name = ZINCtV00000L6kHF.1
REMARK                            x       y       z     vdW  Elec       q    Type
REMARK                         _______ _______ _______ _____ _____    ______ ____
ROOT
ATOM      1  C   LIG    1       -3.593   3.396  -0.740  0.00  0.00    -0.220 A 
ATOM      2  C   LIG    1       -4.771   4.138  -0.805  0.00  0.00    +0.110 A 
ATOM      3  C   LIG    1       -4.873   5.293   0.011  0.00  0.00    -0.110 A 
ATOM      4  C   LIG    1       -6.023   6.093  -0.006  0.00  0.00    +0.060 A 
ATOM      5  C   LIG    1       -6.089   7.197   0.790  0.00  0.00    +0.010 A 
ATOM      6  C   LIG    1       -5.027   7.541   1.622  0.00  0.00    +0.060 A 
ATOM      7  C   LIG    1       -3.894   6.786   1.663  0.00  0.00    +0.040 A 
ATOM      8  C   LIG    1       -3.790   5.640   0.855  0.00  0.00    +0.170 A 
ATOM      9  N   LIG    1       -2.687   4.886   0.879  0.00  0.00    -0.470 NA
ATOM     10  C   LIG    1       -2.565   3.807   0.131  0.00  0.00    +0.260 A 
ENDROOT
BRANCH   2  11
ATOM     11  C   LIG    1       -5.877   3.738  -1.704  0.00  0.00    -0.080 A 
ATOM     12  C   LIG    1       -7.103   3.339  -1.170  0.00  0.00    +0.030 A 
ATOM     13  C   LIG    1       -8.132   2.972  -2.013  0.00  0.00    +0.010 A 
ATOM     14  C   LIG    1       -7.947   2.988  -3.384  0.00  0.00    +0.030 A 
ATOM     15  C   LIG    1       -6.731   3.377  -3.919  0.00  0.00    +0.020 A 
ATOM     16  C   LIG    1       -5.696   3.751  -3.087  0.00  0.00    +0.050 A 
ENDBRANCH   2  11
BRANCH  10  17
ATOM     17  C   LIG    1       -1.316   3.013   0.203  0.00  0.00    -0.070 A 
ATOM     18  C   LIG    1       -0.749   2.711   1.441  0.00  0.00    +0.060 A 
ATOM     19  C   LIG    1        0.417   1.976   1.501  0.00  0.00    +0.000 A 
ATOM     20  C   LIG    1        1.017   1.529   0.338  0.00  0.00    +0.030 A 
ATOM     21  C   LIG    1        0.456   1.820  -0.893  0.00  0.00    +0.010 A 
ATOM     22  C   LIG    1       -0.707   2.559  -0.966  0.00  0.00    +0.050 A 
ENDBRANCH  10  17
BRANCH   1  23
ATOM     23  S   LIG    1       -3.395   1.953  -1.732  0.00  0.00    +0.200 S 
BRANCH  23  29
ATOM     24  S   LIG    1       -5.305  -3.055   1.021  0.00  0.00    -0.420 S 
ATOM     25  C   LIG    1       -4.845  -1.497   0.483  0.00  0.00    +0.230 A 
ATOM     26  N   LIG    1       -4.949  -0.332   1.151  0.00  0.00    -0.450 N 
ATOM     27  H   LIG    1       -5.318  -0.290   2.046  0.00  0.00    +0.450 HD
ATOM     28  N   LIG    1       -4.505   0.797   0.500  0.00  0.00    -0.250 NA
ATOM     29  C   LIG    1       -4.022   0.672  -0.698  0.00  0.00    +0.030 A 
ATOM     30  S   LIG    1       -4.131  -1.056  -1.080  0.00  0.00    +0.150 S 
ENDBRANCH  23  29
ENDBRANCH   1  23
TORSDOF 4
