REMARK  Name = ZINCqH0000005eOZ.0
REMARK                            x       y       z     vdW  Elec       q    Type
REMARK                         _______ _______ _______ _____ _____    ______ ____
ROOT
ATOM      1  C   LIG    1       -1.592   9.265  -1.233  0.00  0.00    -0.010 C 
ATOM      2  C   LIG    1       -2.370   9.851  -0.051  0.00  0.00    +0.020 C 
ATOM      3  C   LIG    1       -1.832   9.251   1.251  0.00  0.00    +0.050 C 
ATOM      4  C   LIG    1       -1.955   7.727   1.194  0.00  0.00    +0.190 C 
ATOM      5  N   LIG    1       -1.194   7.216   0.047  0.00  0.00    -0.490 N 
ATOM      6  C   LIG    1       -1.722   7.741  -1.218  0.00  0.00    +0.190 C 
ENDROOT
BRANCH   5   7
ATOM      7  C   LIG    1       -1.176   5.829   0.041  0.00  0.00    +0.280 A 
ATOM      8  N   LIG    1       -0.022   5.189   0.027  0.00  0.00    -0.410 NA
ATOM      9  C   LIG    1       -0.007   3.850   0.021  0.00  0.00    +0.090 A 
ATOM     10  C   LIG    1        1.205   3.140   0.006  0.00  0.00    +0.060 A 
ATOM     11  C   LIG    1        1.190   1.779   0.000  0.00  0.00    +0.050 A 
ATOM     12  C   LIG    1       -0.013   1.076   0.008  0.00  0.00    +0.040 A 
ATOM     13  C   LIG    1       -1.206   1.731   0.017  0.00  0.00    +0.060 A 
ATOM     14  C   LIG    1       -1.231   3.135   0.030  0.00  0.00    +0.070 A 
ATOM     15  N   LIG    1       -2.391   3.804   0.043  0.00  0.00    -0.410 NA
ATOM     16  C   LIG    1       -2.388   5.115   0.049  0.00  0.00    +0.220 A 
ENDBRANCH   5   7
BRANCH   1  17
ATOM     17  C   LIG    1       -2.163   9.814  -2.542  0.00  0.00    +0.320 C 
BRANCH  17  19
ATOM     18  C   LIG    1       -1.671   8.088  -4.336  0.00  0.00    +0.290 C 
ATOM     19  N   LIG    1       -1.345   9.349  -3.665  0.00  0.00    -0.600 N 
ATOM     20  C   LIG    1       -0.291  10.080  -4.080  0.00  0.00    +0.650 C 
ATOM     21  O   LIG    1       -0.021  11.126  -3.523  0.00  0.00    -0.560 OA
BRANCH  20  22
ATOM     22  O   LIG    1        0.461   9.652  -5.112  0.00  0.00    -0.360 OA
BRANCH  22  23
ATOM     23  C   LIG    1        1.579  10.491  -5.504  0.00  0.00    +0.140 C 
ATOM     24  C   LIG    1        1.061  11.871  -5.917  0.00  0.00    +0.040 C 
ATOM     25  C   LIG    1        2.310   9.847  -6.684  0.00  0.00    +0.080 C 
ATOM     26  C   LIG    1        2.543  10.640  -4.326  0.00  0.00    +0.040 C 
ENDBRANCH  22  23
ENDBRANCH  20  22
ENDBRANCH  17  19
ENDBRANCH   1  17
TORSDOF 5
