REMARK  Name = ZINCrD000000CUbZ.0
REMARK                            x       y       z     vdW  Elec       q    Type
REMARK                         _______ _______ _______ _____ _____    ______ ____
ROOT
ATOM      1  N   LIG    1       -4.856   1.419   0.802  0.00  0.00    -0.680 N 
ATOM      2  H   LIG    1       -4.869   0.466   0.982  0.00  0.00    +0.410 HD
ATOM      3  C   LIG    1       -5.989   2.140   0.907  0.00  0.00    +0.720 C 
ATOM      4  N   LIG    1       -7.122   1.556   1.347  0.00  0.00    -0.630 N 
ATOM      5  C   LIG    1       -7.262   0.145   1.737  0.00  0.00    +0.260 C 
ATOM      6  C   LIG    1       -8.721  -0.060   2.197  0.00  0.00    +0.080 C 
ATOM      7  C   LIG    1       -9.175   1.376   2.568  0.00  0.00    +0.170 C 
ATOM      8  C   LIG    1       -8.426   2.223   1.509  0.00  0.00    +0.270 C 
ATOM      9  O   LIG    1       -5.991   3.318   0.606  0.00  0.00    -0.560 OA
ENDROOT
BRANCH   1  19
ATOM     10  O   LIG    1       -3.479   5.439  -2.064  0.00  0.00    -0.530 OA
ATOM     11  C   LIG    1       -2.462   4.825  -1.809  0.00  0.00    +0.560 C 
ATOM     12  N   LIG    1       -1.298   5.154  -2.403  0.00  0.00    -0.730 N 
ATOM     13  H   LIG    1       -1.269   5.912  -3.008  0.00  0.00    +0.410 HD
ATOM     14  C   LIG    1       -0.078   4.391  -2.152  0.00  0.00    +0.270 C 
ATOM     15  C   LIG    1        0.004   3.953  -0.692  0.00  0.00    +0.090 C 
ATOM     16  C   LIG    1       -1.276   3.272  -0.287  0.00  0.00    -0.070 A 
ATOM     17  C   LIG    1       -1.268   2.232   0.616  0.00  0.00    +0.040 A 
ATOM     18  C   LIG    1       -2.455   1.619   0.977  0.00  0.00    +0.010 A 
ATOM     19  C   LIG    1       -3.660   2.045   0.432  0.00  0.00    +0.150 A 
ATOM     20  C   LIG    1       -3.678   3.092  -0.480  0.00  0.00    +0.090 A 
ATOM     21  C   LIG    1       -2.482   3.711  -0.836  0.00  0.00    -0.120 A 
ENDBRANCH   1  19
BRANCH   7  22
ATOM     22  O   LIG    1      -10.591   1.517   2.429  0.00  0.00    -0.290 OA
BRANCH  22  23
ATOM     23  C   LIG    1      -11.171   2.571   3.062  0.00  0.00    +0.130 A 
ATOM     24  C   LIG    1      -10.412   3.390   3.885  0.00  0.00    -0.060 A 
ATOM     25  C   LIG    1      -11.003   4.463   4.525  0.00  0.00    +0.070 A 
ATOM     26  C   LIG    1      -12.352   4.714   4.353  0.00  0.00    -0.070 A 
ATOM     27  C   LIG    1      -13.112   3.895   3.537  0.00  0.00    +0.070 A 
ATOM     28 CL   LIG    1      -13.094   6.059   5.162  0.00  0.00    -0.070 Cl
ATOM     29  C   LIG    1      -12.524   2.824   2.892  0.00  0.00    +0.000 A 
ENDBRANCH  22  23
ENDBRANCH   7  22
TORSDOF 3
