REMARK  Name = ZINCpe000014Ruv9.0
REMARK                            x       y       z     vdW  Elec       q    Type
REMARK                         _______ _______ _______ _____ _____    ______ ____
ROOT
ATOM      1  N   LIG    1        1.104  -2.081  -0.020  0.00  0.00    -0.470 N 
ATOM      2  C   LIG    1        1.844  -2.618  -1.170  0.00  0.00    +0.230 C 
ATOM      3  C   LIG    1        1.852  -4.147  -1.099  0.00  0.00    +0.240 C 
ATOM      4  N   LIG    1        0.469  -4.642  -1.089  0.00  0.00    -0.440 N 
ATOM      5  C   LIG    1       -0.271  -4.104   0.061  0.00  0.00    +0.220 C 
ATOM      6  C   LIG    1       -0.280  -2.575  -0.010  0.00  0.00    +0.240 C 
ENDROOT
BRANCH   1  10
ATOM      7  C   LIG    1        1.100   2.000   0.002  0.00  0.00    -0.000 A 
ATOM      8  C   LIG    1        2.344   1.358  -0.013  0.00  0.00    +0.130 A 
ATOM      9  C   LIG    1        2.360  -0.025  -0.021  0.00  0.00    +0.020 A 
ATOM     10  C   LIG    1        1.137  -0.696  -0.013  0.00  0.00    +0.270 A 
ATOM     11  N   LIG    1        0.002  -0.004   0.002  0.00  0.00    -0.280 NA
ATOM     12  N   LIG    1       -0.015   1.279   0.009  0.00  0.00    -0.180 NA
BRANCH   7  16
ATOM     13  C   LIG    1       -0.241   5.557   0.033  0.00  0.00    +0.280 C 
ATOM     14  N   LIG    1       -0.170   4.093   0.025  0.00  0.00    -0.710 N 
ATOM     15  H   LIG    1       -0.986   3.568   0.030  0.00  0.00    +0.410 HD
ATOM     16  C   LIG    1        1.028   3.477   0.010  0.00  0.00    +0.580 C 
ATOM     17  O   LIG    1        2.050   4.135   0.004  0.00  0.00    -0.530 OA
ENDBRANCH   7  16
ENDBRANCH   1  10
BRANCH   4  18
ATOM     18  C   LIG    1        0.436  -6.030  -1.096  0.00  0.00    +0.350 A 
ATOM     19  N   LIG    1       -0.154  -6.796  -0.218  0.00  0.00    -0.410 NA
ATOM     20  O   LIG    1        0.001  -7.963  -0.511  0.00  0.00    +0.080 OA
ATOM     21  C   LIG    1        0.730  -8.060  -1.627  0.00  0.00    +0.210 A 
ATOM     22  N   LIG    1        1.014  -6.840  -2.010  0.00  0.00    -0.480 NA
BRANCH  21  23
ATOM     23  C   LIG    1        1.148  -9.334  -2.316  0.00  0.00    +0.110 C 
ATOM     24  C   LIG    1        0.072 -10.433  -2.285  0.00  0.00    +0.040 C 
ATOM     25  C   LIG    1        1.212 -11.433  -2.032  0.00  0.00    +0.030 C 
ATOM     26  C   LIG    1        2.005 -10.258  -1.434  0.00  0.00    +0.040 C 
ENDBRANCH  21  23
ENDBRANCH   4  18
TORSDOF 4
