REMARK  Name = ZINCvU0000000Dqd.0
REMARK                            x       y       z     vdW  Elec       q    Type
REMARK                         _______ _______ _______ _____ _____    ______ ____
ROOT
ATOM      1  C   LIG    1        1.067   2.158  -0.238  0.00  0.00    +0.150 A 
ATOM      2  N   LIG    1       -0.168   1.737  -0.084  0.00  0.00    -0.280 NA
ATOM      3  N   LIG    1       -0.229   0.467  -0.269  0.00  0.00    -0.250 NA
ATOM      4  C   LIG    1        0.963  -0.004  -0.552  0.00  0.00    +0.250 A 
ATOM      5  N   LIG    1        1.832   1.065  -0.542  0.00  0.00    -0.420 N 
ENDROOT
BRANCH   5   6
ATOM      6  C   LIG    1        3.212   1.039  -0.789  0.00  0.00    +0.110 A 
ATOM      7  C   LIG    1        3.725   1.644  -1.928  0.00  0.00    +0.070 A 
ATOM      8  C   LIG    1        5.085   1.617  -2.171  0.00  0.00    +0.080 A 
ATOM      9  C   LIG    1        5.936   0.988  -1.280  0.00  0.00    -0.010 A 
ATOM     10  C   LIG    1        5.426   0.383  -0.143  0.00  0.00    -0.020 A 
ATOM     11 CL   LIG    1        6.497  -0.406   0.974  0.00  0.00    -0.020 Cl
ATOM     12 CL   LIG    1        7.644   0.957  -1.587  0.00  0.00    -0.020 Cl
ATOM     13  C   LIG    1        4.067   0.412   0.106  0.00  0.00    +0.070 A 
ENDBRANCH   5   6
BRANCH   4  14
ATOM     14  C   LIG    1        1.308  -1.414  -0.831  0.00  0.00    -0.080 A 
ATOM     15  C   LIG    1        2.515  -1.740  -1.459  0.00  0.00    +0.070 A 
ATOM     16  C   LIG    1        2.790  -3.076  -1.697  0.00  0.00    -0.030 A 
ATOM     17  C   LIG    1        1.873  -4.035  -1.310  0.00  0.00    +0.290 A 
ATOM     18  N   LIG    1        0.742  -3.698  -0.720  0.00  0.00    -0.480 NA
ATOM     19  C   LIG    1        0.437  -2.442  -0.467  0.00  0.00    +0.320 A 
ENDBRANCH   4  14
BRANCH   1  20
ATOM     20  S   LIG    1        1.633   3.820  -0.082  0.00  0.00    +0.110 S 
BRANCH  20  21
ATOM     21  C   LIG    1        0.074   4.646   0.321  0.00  0.00    +0.120 C 
BRANCH  21  23
ATOM     22  O   LIG    1        1.440   6.570   0.375  0.00  0.00    -0.500 OA
ATOM     23  C   LIG    1        0.320   6.121   0.505  0.00  0.00    +0.540 C 
ATOM     24  N   LIG    1       -0.703   6.942   0.812  0.00  0.00    -0.650 N 
ATOM     25  H   LIG    1       -1.583   6.575   0.990  0.00  0.00    +0.420 HD
BRANCH  24  26
ATOM     26  C   LIG    1       -0.497   8.325   0.876  0.00  0.00    +0.120 A 
ATOM     27  C   LIG    1        0.623   8.900   0.282  0.00  0.00    +0.090 A 
ATOM     28  C   LIG    1        0.781  10.275   0.368  0.00  0.00    +0.010 A 
ATOM     29  C   LIG    1       -0.163  11.023   1.044  0.00  0.00    +0.270 A 
ATOM     30  N   LIG    1       -1.211  10.448   1.602  0.00  0.00    -0.450 NA
ATOM     31  C   LIG    1       -1.403   9.145   1.540  0.00  0.00    +0.140 A 
ATOM     32 CL   LIG    1       -2.802   8.445   2.293  0.00  0.00    -0.020 Cl
ENDBRANCH  24  26
ENDBRANCH  21  23
ENDBRANCH  20  21
ENDBRANCH   1  20
TORSDOF 6
