REMARK  Name = ZINCue00000001zW.0
REMARK                            x       y       z     vdW  Elec       q    Type
REMARK                         _______ _______ _______ _____ _____    ______ ____
ROOT
ATOM      1  N   LIG    1        1.956   1.161  -9.287  0.00  0.00    -0.610 N 
ATOM      2  C   LIG    1        1.679   2.292  -8.394  0.00  0.00    +0.330 C 
ATOM      3  C   LIG    1        1.362   1.697  -7.044  0.00  0.00    -0.090 A 
ATOM      4  C   LIG    1        1.029   2.249  -5.831  0.00  0.00    +0.110 A 
ATOM      5  C   LIG    1        0.787   1.420  -4.733  0.00  0.00    -0.090 A 
ATOM      6  C   LIG    1        0.889   0.035  -4.872  0.00  0.00    +0.050 A 
ATOM      7  C   LIG    1        1.219  -0.516  -6.091  0.00  0.00    +0.090 A 
ATOM      8  C   LIG    1        1.461   0.311  -7.189  0.00  0.00    -0.140 A 
ATOM      9  C   LIG    1        1.830   0.018  -8.590  0.00  0.00    +0.570 C 
ATOM     10  O   LIG    1        1.996  -1.096  -9.046  0.00  0.00    -0.510 OA
ENDROOT
BRANCH   1  15
ATOM     11  O   LIG    1        3.375   5.168 -11.022  0.00  0.00    -0.490 OA
ATOM     12  C   LIG    1        3.058   4.002 -10.924  0.00  0.00    +0.520 C 
ATOM     13  C   LIG    1        3.991   3.038 -10.241  0.00  0.00    +0.090 C 
ATOM     14  C   LIG    1        3.791   1.639 -10.836  0.00  0.00    +0.070 C 
ATOM     15  C   LIG    1        2.312   1.260 -10.704  0.00  0.00    +0.300 C 
ATOM     16  C   LIG    1        1.470   2.322 -11.361  0.00  0.00    +0.520 C 
ATOM     17  O   LIG    1        0.400   2.018 -11.842  0.00  0.00    -0.480 OA
ATOM     18  N   LIG    1        1.881   3.597 -11.425  0.00  0.00    -0.670 N 
ATOM     19  H   LIG    1        1.305   4.252 -11.849  0.00  0.00    +0.420 HD
ENDBRANCH   1  15
BRANCH   5  20
ATOM     20  C   LIG    1        0.428   2.009  -3.423  0.00  0.00    +0.550 C 
ATOM     21  N   LIG    1        0.195   1.208  -2.365  0.00  0.00    -0.710 N 
ATOM     22  H   LIG    1        0.262   0.245  -2.462  0.00  0.00    +0.400 HD
ATOM     23  O   LIG    1        0.344   3.215  -3.302  0.00  0.00    -0.530 OA
BRANCH  21  24
ATOM     24  C   LIG    1       -0.160   1.791  -1.069  0.00  0.00    +0.230 C 
ATOM     25  C   LIG    1       -1.668   2.048  -1.021  0.00  0.00    +0.000 C 
ATOM     26  C   LIG    1       -2.038   2.657   0.333  0.00  0.00    +0.010 C 
ATOM     27  C   LIG    1       -1.650   1.688   1.452  0.00  0.00    +0.020 C 
ATOM     28  C   LIG    1       -0.143   1.431   1.404  0.00  0.00    -0.090 C 
ATOM     29  C   LIG    1        0.228   0.822   0.050  0.00  0.00    +0.030 C 
BRANCH  28  30
ATOM     30  C   LIG    1        0.239   0.477   2.506  0.00  0.00    +0.500 C 
ATOM     31  O   LIG    1        0.061  -0.721   2.364  0.00  0.00    -0.700 OA
ATOM     32  O   LIG    1        0.727   0.902   3.539  0.00  0.00    -0.700 OA
ENDBRANCH  28  30
ENDBRANCH  21  24
ENDBRANCH   5  20
TORSDOF 4
