REMARK  Name = ZINCvU00000007wh.0
REMARK                            x       y       z     vdW  Elec       q    Type
REMARK                         _______ _______ _______ _____ _____    ______ ____
ROOT
ATOM      1  O   LIG    1       -3.062   4.092   0.052  0.00  0.00    -0.490 OA
ATOM      2  C   LIG    1       -2.283   5.027   0.049  0.00  0.00    +0.590 C 
ATOM      3  N   LIG    1       -0.955   4.798   0.036  0.00  0.00    -0.610 N 
ATOM      4  H   LIG    1       -0.335   5.543   0.034  0.00  0.00    +0.420 HD
ENDROOT
BRANCH   2   5
ATOM      5  C   LIG    1       -2.792   6.410   0.061  0.00  0.00    -0.220 A 
ATOM      6  C   LIG    1       -4.118   6.795   0.070  0.00  0.00    +0.060 A 
ATOM      7  N   LIG    1       -4.146   8.140   0.083  0.00  0.00    -0.270 N 
ATOM      8  N   LIG    1       -2.828   8.611   0.072  0.00  0.00    -0.240 NA
ATOM      9  C   LIG    1       -2.015   7.590   0.059  0.00  0.00    +0.300 A 
BRANCH   7  10
ATOM     10  C   LIG    1       -5.300   8.936   0.098  0.00  0.00    +0.130 A 
ATOM     11  C   LIG    1       -5.306  10.138   0.793  0.00  0.00    +0.060 A 
ATOM     12  C   LIG    1       -6.444  10.921   0.806  0.00  0.00    +0.060 A 
ATOM     13  C   LIG    1       -7.576  10.509   0.128  0.00  0.00    +0.060 A 
ATOM     14  C   LIG    1       -7.573   9.312  -0.567  0.00  0.00    -0.020 A 
ATOM     15 CL   LIG    1       -8.997   8.799  -1.418  0.00  0.00    -0.040 Cl
ATOM     16  C   LIG    1       -6.436   8.527  -0.587  0.00  0.00    +0.030 A 
ENDBRANCH   7  10
BRANCH   6  17
ATOM     17  C   LIG    1       -5.314   5.878   0.069  0.00  0.00    +0.530 C 
ATOM     18  F   LIG    1       -6.377   6.497   0.737  0.00  0.00    -0.160 F 
ATOM     19  F   LIG    1       -4.986   4.684   0.719  0.00  0.00    -0.130 F 
ATOM     20  F   LIG    1       -5.690   5.603  -1.250  0.00  0.00    -0.160 F 
ENDBRANCH   6  17
ENDBRANCH   2   5
BRANCH   3  21
ATOM     21  C   LIG    1       -0.475   3.494   0.025  0.00  0.00    +0.240 A 
ATOM     22  N   LIG    1        0.778   3.164   0.011  0.00  0.00    -0.490 NA
ATOM     23  C   LIG    1        1.057   1.874   0.002  0.00  0.00    +0.100 A 
ATOM     24  C   LIG    1       -0.013   1.076   0.008  0.00  0.00    -0.140 A 
ATOM     25  S   LIG    1       -1.452   2.091   0.019  0.00  0.00    +0.250 S 
BRANCH  23  26
ATOM     26  C   LIG    1        2.468   1.345  -0.014  0.00  0.00    +0.270 C 
BRANCH  26  27
ATOM     27  N   LIG    1        2.956   1.294  -1.398  0.00  0.00    -0.530 NA
ATOM     28  C   LIG    1        2.200   0.311  -2.186  0.00  0.00    +0.160 C 
ATOM     29  C   LIG    1        2.635   0.388  -3.652  0.00  0.00    +0.020 C 
ATOM     30  C   LIG    1        4.136   0.102  -3.749  0.00  0.00    +0.000 C 
ATOM     31  C   LIG    1        4.897   1.109  -2.881  0.00  0.00    +0.020 C 
ATOM     32  C   LIG    1        4.396   1.012  -1.438  0.00  0.00    +0.170 C 
ENDBRANCH  26  27
ENDBRANCH  23  26
ENDBRANCH   3  21
TORSDOF 6
