REMARK  Name = ZINCqH0000006rNY.0
REMARK                            x       y       z     vdW  Elec       q    Type
REMARK                         _______ _______ _______ _____ _____    ______ ____
ROOT
ATOM      1  C   LIG    1        2.857   3.523  -0.006  0.00  0.00    +0.500 A 
ATOM      2  N   LIG    1        3.386   2.326  -0.018  0.00  0.00    -0.470 NA
ATOM      3  C   LIG    1        2.400   1.392  -0.013  0.00  0.00    +0.060 A 
ATOM      4  C   LIG    1        2.402  -0.005  -0.020  0.00  0.00    +0.060 A 
ATOM      5  C   LIG    1        1.207  -0.690  -0.013  0.00  0.00    +0.010 A 
ATOM      6  C   LIG    1        0.002  -0.004   0.002  0.00  0.00    +0.020 A 
ATOM      7  C   LIG    1       -0.017   1.375   0.010  0.00  0.00    +0.010 A 
ATOM      8  C   LIG    1        1.177   2.082   0.002  0.00  0.00    +0.050 A 
ATOM      9  N   LIG    1        1.495   3.429   0.006  0.00  0.00    -0.500 N 
ENDROOT
BRANCH   9  10
ATOM     10  C   LIG    1        0.547   4.546   0.020  0.00  0.00    +0.240 C 
ATOM     11  C   LIG    1        0.793   5.463  -1.196  0.00  0.00    +0.010 C 
ATOM     12  C   LIG    1        0.544   6.891  -0.650  0.00  0.00    +0.030 C 
ATOM     13  C   LIG    1        1.141   6.821   0.777  0.00  0.00    +0.010 C 
ATOM     14  C   LIG    1        0.768   5.409   1.274  0.00  0.00    +0.020 C 
ENDBRANCH   9  10
BRANCH   1  16
ATOM     15  C   LIG    1        4.919   4.683  -0.019  0.00  0.00    +0.510 C 
ATOM     16  N   LIG    1        3.572   4.709  -0.006  0.00  0.00    -0.650 N 
ATOM     17  H   LIG    1        3.103   5.558   0.003  0.00  0.00    +0.420 HD
ATOM     18  O   LIG    1        5.505   3.622  -0.031  0.00  0.00    -0.460 OA
BRANCH  15  19
ATOM     19  C   LIG    1        5.697   5.974  -0.020  0.00  0.00    +0.070 C 
BRANCH  19  23
ATOM     20  N   LIG    1        9.808   5.991   1.152  0.00  0.00    -0.330 NA
ATOM     21  C   LIG    1        9.484   6.662  -0.113  0.00  0.00    +0.160 C 
ATOM     22  C   LIG    1        7.986   6.971  -0.159  0.00  0.00    +0.050 C 
ATOM     23  C   LIG    1        7.196   5.665  -0.036  0.00  0.00    +0.000 C 
ATOM     24  C   LIG    1        7.587   4.960   1.266  0.00  0.00    +0.060 C 
ATOM     25  C   LIG    1        9.097   4.711   1.271  0.00  0.00    +0.150 C 
BRANCH  20  27
ATOM     26  C   LIG    1       11.652   4.437   1.412  0.00  0.00    +0.180 C 
ATOM     27  O   LIG    1       11.252   5.803   1.291  0.00  0.00    -0.240 OA
ENDBRANCH  20  27
ENDBRANCH  19  23
ENDBRANCH  15  19
ENDBRANCH   1  16
TORSDOF 5
