REMARK  Name = ZINCqH0000007ijR.0
REMARK                            x       y       z     vdW  Elec       q    Type
REMARK                         _______ _______ _______ _____ _____    ______ ____
ROOT
ATOM      1  N   LIG    1       -6.196  -1.009   0.059  0.00  0.00    -0.670 N 
ATOM      2  H   LIG    1       -6.182  -1.975  -0.021  0.00  0.00    +0.410 HD
ATOM      3  C   LIG    1       -5.041  -0.315   0.053  0.00  0.00    +0.520 C 
ATOM      4  O   LIG    1       -5.061   0.898   0.068  0.00  0.00    -0.520 OA
ENDROOT
BRANCH   1   8
ATOM      5  C   LIG    1       -9.833   1.006   0.417  0.00  0.00    +0.090 A 
ATOM      6  C   LIG    1       -8.787   1.582  -0.284  0.00  0.00    -0.010 A 
ATOM      7  C   LIG    1       -7.582   0.915  -0.403  0.00  0.00    +0.030 A 
ATOM      8  C   LIG    1       -7.418  -0.334   0.180  0.00  0.00    +0.140 A 
ATOM      9  C   LIG    1       -8.466  -0.917   0.879  0.00  0.00    -0.060 A 
ATOM     10  C   LIG    1       -9.671  -0.246   1.004  0.00  0.00    +0.120 A 
BRANCH   5  12
ATOM     11  C   LIG    1      -11.114   2.944  -0.093  0.00  0.00    +0.250 C 
ATOM     12  O   LIG    1      -11.018   1.663   0.533  0.00  0.00    -0.310 OA
ENDBRANCH   5  12
BRANCH  10  13
ATOM     13  O   LIG    1      -10.698  -0.813   1.693  0.00  0.00    -0.300 OA
ATOM     14  C   LIG    1      -10.461  -2.100   2.268  0.00  0.00    +0.240 C 
ENDBRANCH  10  13
ENDBRANCH   1   8
BRANCH   3  15
ATOM     15  C   LIG    1       -3.723  -1.046   0.027  0.00  0.00    +0.090 C 
BRANCH  15  16
ATOM     16  C   LIG    1       -2.577  -0.032   0.025  0.00  0.00    +0.070 C 
BRANCH  16  17
ATOM     17  C   LIG    1       -1.260  -0.762  -0.001  0.00  0.00    +0.400 C 
ATOM     18  O   LIG    1       -1.239  -1.975  -0.016  0.00  0.00    -0.450 OA
BRANCH  17  19
ATOM     19  C   LIG    1        0.002  -0.005  -0.007  0.00  0.00    -0.170 A 
ATOM     20  C   LIG    1       -0.017   1.393   0.011  0.00  0.00    +0.070 A 
ATOM     21  C   LIG    1        1.170   2.093   0.005  0.00  0.00    +0.010 A 
ATOM     22  C   LIG    1        2.382   1.421  -0.019  0.00  0.00    -0.060 A 
ATOM     23  C   LIG    1        3.798   1.958  -0.030  0.00  0.00    +0.080 C 
ATOM     24  C   LIG    1        4.675   0.777  -0.497  0.00  0.00    +0.030 C 
ATOM     25  C   LIG    1        3.844  -0.447  -0.061  0.00  0.00    +0.080 C 
ATOM     26  C   LIG    1        2.409   0.036  -0.036  0.00  0.00    -0.110 A 
ATOM     27  C   LIG    1        1.227  -0.678  -0.030  0.00  0.00    +0.080 A 
ENDBRANCH  17  19
ENDBRANCH  16  17
ENDBRANCH  15  16
ENDBRANCH   3  15
TORSDOF 7
