REMARK  Name = ZINCrg000000sQ33.0
REMARK                            x       y       z     vdW  Elec       q    Type
REMARK                         _______ _______ _______ _____ _____    ______ ____
ROOT
ATOM      1  C   LIG    1        1.177   1.780   0.000  0.00  0.00    -0.120 A 
ATOM      2  C   LIG    1       -0.013   1.076   0.006  0.00  0.00    +0.060 A 
ATOM      3  C   LIG    1       -1.222   1.749   0.015  0.00  0.00    +0.000 A 
ATOM      4  C   LIG    1       -1.247   3.128   0.030  0.00  0.00    +0.050 A 
ATOM      5  C   LIG    1       -0.049   3.845   0.024  0.00  0.00    -0.140 A 
ATOM      6  C   LIG    1        1.167   3.160   0.009  0.00  0.00    +0.100 A 
ENDROOT
BRANCH   5   7
ATOM      7  C   LIG    1       -0.068   5.323   0.033  0.00  0.00    +0.560 C 
ATOM      8  N   LIG    1       -1.244   5.982   0.048  0.00  0.00    -0.720 N 
ATOM      9  H   LIG    1       -2.078   5.486   0.051  0.00  0.00    +0.400 HD
ATOM     10  O   LIG    1        0.976   5.945   0.028  0.00  0.00    -0.530 OA
BRANCH   8  11
ATOM     11  C   LIG    1       -1.263   7.447   0.057  0.00  0.00    +0.300 C 
BRANCH  11  12
ATOM     12  C   LIG    1       -2.712   7.938   0.072  0.00  0.00    +0.140 C 
ATOM     13  C   LIG    1       -2.758   9.480  -0.004  0.00  0.00    +0.010 C 
ATOM     14  C   LIG    1       -3.937   9.867   0.916  0.00  0.00    +0.000 C 
ATOM     15  C   LIG    1       -4.464   8.513   1.441  0.00  0.00    +0.190 C 
ATOM     16  O   LIG    1       -3.341   7.610   1.331  0.00  0.00    -0.370 OA
ENDBRANCH  11  12
ENDBRANCH   8  11
ENDBRANCH   5   7
BRANCH   1  17
ATOM     17  C   LIG    1        2.489   1.039  -0.016  0.00  0.00    +0.340 C 
BRANCH  17  24
ATOM     18  C   LIG    1        3.249  -0.888  -4.958  0.00  0.00    +0.290 C 
ATOM     19  C   LIG    1        3.556   0.311  -4.061  0.00  0.00    +0.280 C 
ATOM     20  N   LIG    1        4.384  -0.146  -2.933  0.00  0.00    -0.630 N 
ATOM     21  C   LIG    1        5.580  -0.950  -3.234  0.00  0.00    +0.280 C 
ATOM     22  C   LIG    1        5.171  -2.092  -4.172  0.00  0.00    +0.240 C 
ATOM     23  C   LIG    1        4.054   0.157  -1.662  0.00  0.00    +0.710 C 
ATOM     24  N   LIG    1        2.903   0.807  -1.402  0.00  0.00    -0.740 N 
ATOM     25  H   LIG    1        2.348   1.122  -2.132  0.00  0.00    +0.400 HD
ATOM     26  O   LIG    1        4.795  -0.156  -0.750  0.00  0.00    -0.580 OA
ATOM     27  O   LIG    1        4.470  -1.551  -5.295  0.00  0.00    -0.370 OA
BRANCH  18  29
ATOM     28  N   LIG    1        2.074  -0.070  -7.138  0.00  0.00    -0.390 NA
ATOM     29  C   LIG    1        2.586  -0.427  -6.188  0.00  0.00    +0.210 C 
ENDBRANCH  18  29
ENDBRANCH  17  24
ENDBRANCH   1  17
TORSDOF 6
