REMARK  Name = ZINCpe00000R91X9.0
REMARK                            x       y       z     vdW  Elec       q    Type
REMARK                         _______ _______ _______ _____ _____    ______ ____
ROOT
ATOM      1  C   LIG    1       -4.237   0.356  -0.653  0.00  0.00    +0.240 C 
ATOM      2  C   LIG    1       -3.777  -0.937   0.035  0.00  0.00    +0.260 C 
ATOM      3  N   LIG    1       -2.410  -0.394   0.024  0.00  0.00    -0.620 N 
ATOM      4  C   LIG    1       -1.163  -0.905   0.009  0.00  0.00    +0.650 C 
ATOM      5  O   LIG    1       -0.999  -2.110   0.001  0.00  0.00    -0.560 OA
ATOM      6  C   LIG    1       -3.003   0.952   0.043  0.00  0.00    +0.290 C 
ENDROOT
BRANCH   4   7
ATOM      7  C   LIG    1        0.002  -0.004   0.002  0.00  0.00    -0.210 A 
ATOM      8  C   LIG    1        1.321  -0.366  -0.013  0.00  0.00    +0.100 A 
ATOM      9  N   LIG    1        2.069   0.754  -0.014  0.00  0.00    -0.450 N 
ATOM     10  C   LIG    1        1.268   1.858  -0.000  0.00  0.00    +0.140 A 
ATOM     11  C   LIG    1        3.533   0.783  -0.027  0.00  0.00    +0.310 C 
ATOM     12  C   LIG    1        1.848  -1.778  -0.024  0.00  0.00    +0.150 C 
ATOM     13  C   LIG    1       -0.018   1.463   0.010  0.00  0.00    -0.020 A 
ENDBRANCH   4   7
BRANCH   1  17
ATOM     14  C   LIG    1       -4.837  -0.044  -4.385  0.00  0.00    +0.140 C 
ATOM     15  C   LIG    1       -3.305   0.141  -4.292  0.00  0.00    +0.090 C 
ATOM     16  C   LIG    1       -3.018   0.132  -2.806  0.00  0.00    +0.510 C 
ATOM     17  N   LIG    1       -4.155   0.321  -2.115  0.00  0.00    -0.610 N 
ATOM     18  O   LIG    1       -1.922  -0.024  -2.311  0.00  0.00    -0.480 OA
ATOM     19  C   LIG    1       -5.303   0.493  -3.013  0.00  0.00    +0.300 C 
BRANCH  14  24
ATOM     20  C   LIG    1       -6.755  -4.375  -6.009  0.00  0.00    +0.210 C 
ATOM     21  C   LIG    1       -6.001  -3.336  -5.221  0.00  0.00    +0.170 A 
ATOM     22  N   LIG    1       -5.264  -3.551  -4.172  0.00  0.00    -0.380 NA
ATOM     23  O   LIG    1       -4.789  -2.509  -3.772  0.00  0.00    +0.090 OA
ATOM     24  C   LIG    1       -5.197  -1.499  -4.545  0.00  0.00    +0.180 A 
ATOM     25  N   LIG    1       -5.966  -2.015  -5.473  0.00  0.00    -0.470 NA
ENDBRANCH  14  24
ENDBRANCH   1  17
TORSDOF 3
