REMARK  Name = ZINCpk00000y6w0y.1
REMARK                            x       y       z     vdW  Elec       q    Type
REMARK                         _______ _______ _______ _____ _____    ______ ____
ROOT
ATOM      1  C   LIG    1        4.052   2.702  -0.144  0.00  0.00    +0.300 C 
ATOM      2  N   LIG    1        3.033   3.740   0.032  0.00  0.00    -0.590 N 
ATOM      3  C   LIG    1        1.729   3.405   0.071  0.00  0.00    +0.590 C 
ATOM      4  O   LIG    1        0.881   4.269   0.189  0.00  0.00    -0.540 OA
ENDROOT
BRANCH   3   5
ATOM      5  C   LIG    1        1.329   1.992  -0.030  0.00  0.00    -0.040 A 
ATOM      6  C   LIG    1        2.077   0.952  -0.555  0.00  0.00    -0.030 A 
ATOM      7  C   LIG    1        1.273  -0.183  -0.427  0.00  0.00    +0.180 A 
ATOM      8  N   LIG    1        0.147   0.183   0.131  0.00  0.00    -0.270 NA
ATOM      9  N   LIG    1        0.145   1.444   0.376  0.00  0.00    -0.250 N 
BRANCH   9  10
ATOM     10  C   LIG    1       -0.958   2.181   0.996  0.00  0.00    +0.340 C 
BRANCH  10  11
ATOM     11  C   LIG    1       -0.835   2.098   2.519  0.00  0.00    -0.030 C 
ATOM     12  C   LIG    1       -1.526   0.865   3.126  0.00  0.00    +0.020 C 
ATOM     13  C   LIG    1       -1.994   1.785   4.265  0.00  0.00    +0.010 C 
ATOM     14  C   LIG    1       -1.873   2.950   3.268  0.00  0.00    +0.030 C 
ENDBRANCH  10  11
ENDBRANCH   9  10
ENDBRANCH   3   5
BRANCH   2  15
ATOM     15  C   LIG    1        3.433   5.143   0.165  0.00  0.00    +0.310 C 
BRANCH  15  16
ATOM     16  C   LIG    1        3.656   5.472   1.642  0.00  0.00    +0.160 C 
ATOM     17  O   LIG    1        4.836   4.800   2.134  0.00  0.00    -0.350 OA
ATOM     18  C   LIG    1        5.228   5.535   3.314  0.00  0.00    +0.210 C 
ATOM     19  C   LIG    1        5.014   7.020   2.944  0.00  0.00    +0.020 C 
ATOM     20  C   LIG    1        3.956   6.977   1.818  0.00  0.00    +0.080 C 
BRANCH  20  21
ATOM     21  C   LIG    1        4.513   7.558   0.544  0.00  0.00    +0.230 A 
ATOM     22  N   LIG    1        3.977   8.530  -0.146  0.00  0.00    -0.310 NA
ATOM     23  N   LIG    1        4.816   8.754  -1.250  0.00  0.00    -0.480 N 
ATOM     24  H   LIG    1        4.690   9.412  -1.951  0.00  0.00    +0.440 HD
ATOM     25  C   LIG    1        5.826   7.874  -1.143  0.00  0.00    +0.480 A 
ATOM     26  N   LIG    1        5.635   7.166  -0.059  0.00  0.00    -0.530 NA
ENDBRANCH  20  21
ENDBRANCH  15  16
ENDBRANCH   2  15
TORSDOF 6
