REMARK  Name = ZINCpk00000y6w0y.0
REMARK                            x       y       z     vdW  Elec       q    Type
REMARK                         _______ _______ _______ _____ _____    ______ ____
ROOT
ATOM      1  C   LIG    1       -0.202   0.747  -0.377  0.00  0.00    +0.300 C 
ATOM      2  N   LIG    1       -0.800   1.131   0.905  0.00  0.00    -0.600 N 
ATOM      3  C   LIG    1       -2.083   1.541   0.954  0.00  0.00    +0.590 C 
ATOM      4  O   LIG    1       -2.547   1.962   1.997  0.00  0.00    -0.520 OA
ENDROOT
BRANCH   3   5
ATOM      5  C   LIG    1       -2.922   1.480  -0.253  0.00  0.00    -0.040 A 
ATOM      6  C   LIG    1       -2.581   0.925  -1.474  0.00  0.00    -0.030 A 
ATOM      7  C   LIG    1       -3.699   1.113  -2.291  0.00  0.00    +0.180 A 
ATOM      8  N   LIG    1       -4.612   1.730  -1.586  0.00  0.00    -0.280 NA
ATOM      9  N   LIG    1       -4.195   1.955  -0.392  0.00  0.00    -0.250 N 
BRANCH   9  10
ATOM     10  C   LIG    1       -4.966   2.623   0.660  0.00  0.00    +0.340 C 
BRANCH  10  11
ATOM     11  C   LIG    1       -4.763   4.136   0.559  0.00  0.00    -0.040 C 
ATOM     12  C   LIG    1       -3.554   4.649   1.360  0.00  0.00    +0.030 C 
ATOM     13  C   LIG    1       -4.428   5.851   1.757  0.00  0.00    +0.010 C 
ATOM     14  C   LIG    1       -5.646   4.942   1.526  0.00  0.00    +0.020 C 
ENDBRANCH  10  11
ENDBRANCH   9  10
ENDBRANCH   3   5
BRANCH   2  15
ATOM     15  C   LIG    1       -0.003   1.069   2.132  0.00  0.00    +0.300 C 
BRANCH  15  16
ATOM     16  C   LIG    1        0.702   2.409   2.351  0.00  0.00    +0.150 C 
ATOM     17  O   LIG    1       -0.269   3.434   2.620  0.00  0.00    -0.340 OA
ATOM     18  C   LIG    1        0.337   4.355   3.553  0.00  0.00    +0.220 C 
ATOM     19  C   LIG    1        1.106   3.428   4.528  0.00  0.00    +0.010 C 
ATOM     20  C   LIG    1        1.627   2.320   3.581  0.00  0.00    +0.090 C 
BRANCH  20  21
ATOM     21  C   LIG    1        1.507   0.968   4.234  0.00  0.00    +0.190 A 
ATOM     22  N   LIG    1        2.276  -0.065   4.021  0.00  0.00    -0.290 NA
ATOM     23  N   LIG    1        1.889  -1.051   4.750  0.00  0.00    -0.290 NA
ATOM     24  C   LIG    1        0.850  -0.695   5.455  0.00  0.00    +0.380 A 
ATOM     25  N   LIG    1        0.578   0.596   5.147  0.00  0.00    -0.580 N 
ATOM     26  H   LIG    1       -0.137   1.144   5.508  0.00  0.00    +0.430 HD
ENDBRANCH  20  21
ENDBRANCH  15  16
ENDBRANCH   2  15
TORSDOF 6
