REMARK  Name = ZINCrg00000yRPg2.2
REMARK                            x       y       z     vdW  Elec       q    Type
REMARK                         _______ _______ _______ _____ _____    ______ ____
ROOT
ATOM      1  C   LIG    1        4.960  -6.282   0.830  0.00  0.00    +0.240 C 
ATOM      2  C   LIG    1        4.215  -5.038   1.343  0.00  0.00    +0.020 C 
ATOM      3  C   LIG    1        4.400  -4.444  -0.064  0.00  0.00    -0.020 C 
ATOM      4  C   LIG    1        5.628  -5.359  -0.203  0.00  0.00    +0.030 C 
ENDROOT
BRANCH   1   6
ATOM      5  C   LIG    1        5.605  -8.010   2.422  0.00  0.00    +0.520 C 
ATOM      6  N   LIG    1        5.896  -6.848   1.803  0.00  0.00    -0.720 N 
ATOM      7  H   LIG    1        6.726  -6.388   2.003  0.00  0.00    +0.400 HD
ATOM      8  O   LIG    1        4.567  -8.585   2.173  0.00  0.00    -0.520 OA
BRANCH   5  15
ATOM      9  C   LIG    1        4.683  -8.923   4.906  0.00  0.00    +0.190 C 
ATOM     10  N   LIG    1        5.859  -9.547   4.286  0.00  0.00    -0.520 NA
ATOM     11  C   LIG    1        6.755 -10.108   5.306  0.00  0.00    +0.170 C 
ATOM     12  C   LIG    1        7.891 -10.873   4.623  0.00  0.00    +0.020 C 
ATOM     13  C   LIG    1        8.663  -9.921   3.706  0.00  0.00    +0.010 C 
ATOM     14  C   LIG    1        7.698  -9.313   2.685  0.00  0.00    +0.040 C 
ATOM     15  C   LIG    1        6.568  -8.592   3.424  0.00  0.00    +0.130 C 
ENDBRANCH   5  15
ENDBRANCH   1   6
BRANCH   3  16
ATOM     16  C   LIG    1        4.744  -2.953  -0.059  0.00  0.00    +0.270 C 
BRANCH  16  17
ATOM     17  N   LIG    1        3.508  -2.167  -0.043  0.00  0.00    -0.710 N 
ATOM     18  H   LIG    1        2.648  -2.615  -0.037  0.00  0.00    +0.410 HD
ATOM     19  C   LIG    1        3.566  -0.820  -0.036  0.00  0.00    +0.580 C 
ATOM     20  O   LIG    1        4.643  -0.258  -0.043  0.00  0.00    -0.540 OA
BRANCH  19  21
ATOM     21  C   LIG    1        2.318  -0.027  -0.020  0.00  0.00    +0.070 A 
ATOM     22  N   LIG    1        1.142  -0.653  -0.012  0.00  0.00    -0.460 NA
ATOM     23  C   LIG    1        0.002  -0.004   0.002  0.00  0.00    +0.360 A 
ATOM     24  C   LIG    1       -0.017   1.395   0.010  0.00  0.00    +0.020 A 
ATOM     25  N   LIG    1       -0.997   2.328   0.019  0.00  0.00    -0.480 NA
ATOM     26  C   LIG    1       -0.469   3.519   0.025  0.00  0.00    +0.510 A 
ATOM     27  N   LIG    1        0.888   3.429   0.012  0.00  0.00    -0.590 N 
ATOM     28  H   LIG    1        1.513   4.170   0.010  0.00  0.00    +0.430 HD
ATOM     29  C   LIG    1        1.209   2.092   0.002  0.00  0.00    +0.060 A 
ATOM     30  C   LIG    1        2.390   1.363  -0.013  0.00  0.00    +0.060 A 
ENDBRANCH  19  21
ENDBRANCH  16  17
ENDBRANCH   3  16
TORSDOF 5
