REMARK  Name = ZINCpk00000KfLfl.0
REMARK                            x       y       z     vdW  Elec       q    Type
REMARK                         _______ _______ _______ _____ _____    ______ ____
ROOT
ATOM      1  C   LIG    1        7.023  -1.814   1.458  0.00  0.00    +0.520 C 
ATOM      2  N   LIG    1        5.934  -1.992   0.684  0.00  0.00    -0.620 N 
ATOM      3  C   LIG    1        5.641  -1.076  -0.429  0.00  0.00    +0.300 C 
ATOM      4  C   LIG    1        4.192  -0.596  -0.296  0.00  0.00    +0.190 C 
ATOM      5  N   LIG    1        3.301  -1.760  -0.199  0.00  0.00    -0.490 N 
ATOM      6  C   LIG    1        3.582  -2.546   1.010  0.00  0.00    +0.190 C 
ATOM      7  C   LIG    1        5.006  -3.107   0.931  0.00  0.00    +0.280 C 
ATOM      8  O   LIG    1        7.824  -0.945   1.187  0.00  0.00    -0.510 OA
ENDROOT
BRANCH   5   9
ATOM      9  C   LIG    1        1.961  -1.369  -0.241  0.00  0.00    +0.110 A 
ATOM     10  C   LIG    1        0.955  -2.324  -0.162  0.00  0.00    -0.020 A 
ATOM     11  C   LIG    1       -0.370  -1.934  -0.205  0.00  0.00    +0.030 A 
ATOM     12  C   LIG    1       -0.694  -0.595  -0.325  0.00  0.00    -0.020 A 
ATOM     13  C   LIG    1        0.305   0.358  -0.404  0.00  0.00    +0.030 A 
ATOM     14  C   LIG    1        1.631  -0.025  -0.362  0.00  0.00    -0.040 A 
ENDBRANCH   5   9
BRANCH   1  16
ATOM     15  C   LIG    1        6.406  -2.179   3.832  0.00  0.00    +0.070 C 
ATOM     16  C   LIG    1        7.244  -2.695   2.661  0.00  0.00    +0.100 C 
BRANCH  16  17
ATOM     17  N   LIG    1        8.666  -2.672   3.029  0.00  0.00    -0.440 NA
ATOM     18  C   LIG    1        9.435  -3.642   2.228  0.00  0.00    +0.180 C 
ATOM     19  C   LIG    1       10.201  -4.007   3.508  0.00  0.00    +0.280 C 
ATOM     20  C   LIG    1        8.922  -3.525   4.205  0.00  0.00    +0.180 C 
BRANCH  19  21
ATOM     21  N   LIG    1       10.464  -5.440   3.661  0.00  0.00    -0.360 N 
ATOM     22  C   LIG    1        9.959  -6.427   2.892  0.00  0.00    +0.220 A 
ATOM     23  C   LIG    1       10.442  -7.602   3.358  0.00  0.00    -0.120 A 
ATOM     24  C   LIG    1       11.271  -7.324   4.450  0.00  0.00    +0.240 A 
ATOM     25  N   LIG    1       11.289  -6.028   4.629  0.00  0.00    -0.290 NA
ENDBRANCH  19  21
ENDBRANCH  16  17
ENDBRANCH   1  16
TORSDOF 4
