REMARK  Name = ZINCpk00000KfLJB.0
REMARK                            x       y       z     vdW  Elec       q    Type
REMARK                         _______ _______ _______ _____ _____    ______ ____
ROOT
ATOM      1  C   LIG    1        1.983   2.436   0.371  0.00  0.00    +0.230 C 
ATOM      2  C   LIG    1        0.566   2.591   0.961  0.00  0.00    +0.050 C 
ATOM      3  C   LIG    1        0.154   1.126   1.265  0.00  0.00    +0.040 C 
ATOM      4  C   LIG    1        1.504   0.508   1.705  0.00  0.00    +0.250 C 
ATOM      5  N   LIG    1        2.511   1.145   0.837  0.00  0.00    -0.610 N 
ATOM      6  C   LIG    1        3.717   0.630   0.524  0.00  0.00    +0.590 C 
ATOM      7  O   LIG    1        4.429   1.197  -0.282  0.00  0.00    -0.500 OA
ENDROOT
BRANCH   6   8
ATOM      8  C   LIG    1        4.172  -0.622   1.160  0.00  0.00    -0.170 A 
ATOM      9  C   LIG    1        4.096  -0.785   2.547  0.00  0.00    +0.120 A 
ATOM     10  C   LIG    1        4.531  -1.980   3.093  0.00  0.00    -0.030 A 
ATOM     11  C   LIG    1        5.035  -2.964   2.262  0.00  0.00    +0.330 A 
ATOM     12  N   LIG    1        5.103  -2.787   0.957  0.00  0.00    -0.500 NA
ATOM     13  C   LIG    1        4.695  -1.667   0.384  0.00  0.00    +0.410 A 
BRANCH  13  14
ATOM     14  N   LIG    1        4.787  -1.524  -1.000  0.00  0.00    -0.340 N 
ATOM     15  C   LIG    1        5.654  -2.149  -1.822  0.00  0.00    +0.520 A 
ATOM     16  N   LIG    1        5.416  -1.746  -3.043  0.00  0.00    -0.530 NA
ATOM     17  C   LIG    1        4.411  -0.870  -3.043  0.00  0.00    +0.440 A 
ATOM     18  N   LIG    1        3.989  -0.706  -1.817  0.00  0.00    -0.280 NA
ENDBRANCH  13  14
ENDBRANCH   6   8
BRANCH   1  19
ATOM     19  C   LIG    1        2.880   3.573   0.864  0.00  0.00    +0.310 C 
BRANCH  19  23
ATOM     20  C   LIG    1        1.178   8.277   0.545  0.00  0.00    +0.110 C 
ATOM     21  C   LIG    1        1.653   6.894   0.179  0.00  0.00    -0.240 A 
ATOM     22  C   LIG    1        2.040   5.930   1.046  0.00  0.00    +0.220 A 
ATOM     23  N   LIG    1        2.394   4.846   0.325  0.00  0.00    -0.370 N 
ATOM     24  N   LIG    1        2.209   5.151  -1.030  0.00  0.00    -0.290 NA
ATOM     25  C   LIG    1        1.764   6.378  -1.116  0.00  0.00    +0.230 A 
ENDBRANCH  19  23
ENDBRANCH   1  19
TORSDOF 4
