REMARK  Name = ZINCAx0000000jAt.0
REMARK                            x       y       z     vdW  Elec       q    Type
REMARK                         _______ _______ _______ _____ _____    ______ ____
ROOT
ATOM      1  C   LIG    1        0.998  -5.828   0.124  0.00  0.00    +0.280 C 
ENDROOT
BRANCH   1   2
ATOM      2  N   LIG    1        0.972  -6.117   1.564  0.00  0.00    -0.500 NA
ATOM      3  C   LIG    1        2.115  -5.497   2.247  0.00  0.00    +0.160 C 
ATOM      4  C   LIG    1        1.954  -5.667   3.761  0.00  0.00    +0.290 C 
ATOM      5  N   LIG    1        1.757  -7.095   4.053  0.00  0.00    -0.610 N 
ATOM      6  C   LIG    1        0.718  -7.820   3.306  0.00  0.00    +0.300 C 
ATOM      7  C   LIG    1        2.507  -7.721   4.980  0.00  0.00    +0.560 C 
ATOM      8  O   LIG    1        2.292  -8.887   5.249  0.00  0.00    -0.520 OA
ATOM      9  C   LIG    1        0.927  -7.565   1.810  0.00  0.00    +0.200 C 
BRANCH   7  10
ATOM     10  C   LIG    1        3.592  -6.991   5.670  0.00  0.00    -0.110 A 
ATOM     11  C   LIG    1        4.754  -7.662   6.055  0.00  0.00    +0.070 A 
ATOM     12  C   LIG    1        5.763  -6.976   6.698  0.00  0.00    +0.040 A 
ATOM     13  C   LIG    1        5.627  -5.626   6.963  0.00  0.00    -0.090 A 
ATOM     14  C   LIG    1        4.477  -4.952   6.584  0.00  0.00    +0.090 A 
ATOM     15  F   LIG    1        4.351  -3.633   6.845  0.00  0.00    -0.130 F 
ATOM     16  C   LIG    1        6.735  -4.883   7.665  0.00  0.00    +0.110 C 
ATOM     17  C   LIG    1        3.461  -5.627   5.934  0.00  0.00    +0.020 A 
ENDBRANCH   7  10
ENDBRANCH   1   2
BRANCH   1  18
ATOM     18  C   LIG    1        2.187  -6.510  -0.503  0.00  0.00    +0.220 A 
ATOM     19  N   LIG    1        2.504  -7.774  -0.392  0.00  0.00    -0.320 NA
ATOM     20  N   LIG    1        3.575  -8.032  -1.050  0.00  0.00    -0.030 NA
ATOM     21  N   LIG    1        4.011  -6.964  -1.628  0.00  0.00    -0.070 NA
ATOM     22  N   LIG    1        3.122  -5.930  -1.286  0.00  0.00    -0.320 N 
BRANCH  22  23
ATOM     23  C   LIG    1        3.189  -4.584  -1.679  0.00  0.00    +0.130 A 
ATOM     24  C   LIG    1        2.022  -3.874  -1.924  0.00  0.00    +0.040 A 
ATOM     25  C   LIG    1        2.086  -2.549  -2.309  0.00  0.00    +0.080 A 
ATOM     26  C   LIG    1        3.314  -1.925  -2.454  0.00  0.00    +0.050 A 
ATOM     27  O   LIG    1        3.645  -0.651  -2.818  0.00  0.00    -0.300 OA
ATOM     28  C   LIG    1        5.010  -0.473  -2.398  0.00  0.00    +0.440 C 
ATOM     29  O   LIG    1        5.552  -1.807  -2.420  0.00  0.00    -0.300 OA
ATOM     30  C   LIG    1        4.488  -2.636  -2.209  0.00  0.00    +0.060 A 
ATOM     31  C   LIG    1        4.422  -3.963  -1.822  0.00  0.00    +0.070 A 
ENDBRANCH  22  23
ENDBRANCH   1  18
BRANCH   1  32
ATOM     32  C   LIG    1       -0.287  -6.346  -0.524  0.00  0.00    +0.050 C 
BRANCH  32  33
ATOM     33  C   LIG    1       -1.488  -5.592   0.052  0.00  0.00    +0.050 C 
BRANCH  33  34
ATOM     34  C   LIG    1       -2.781  -6.188  -0.508  0.00  0.00    +0.160 C 
BRANCH  34  36
ATOM     35  C   LIG    1       -5.166  -5.964  -0.432  0.00  0.00    +0.200 C 
ATOM     36  O   LIG    1       -3.902  -5.484   0.030  0.00  0.00    -0.390 OA
ENDBRANCH  34  36
ENDBRANCH  33  34
ENDBRANCH  32  33
ENDBRANCH   1  32
TORSDOF 8
