REMARK  Name = ZINCqH0000004oHb.0
REMARK                            x       y       z     vdW  Elec       q    Type
REMARK                         _______ _______ _______ _____ _____    ______ ____
ROOT
ATOM      1  N   LIG    1       -2.013   0.282  -1.126  0.00  0.00    -0.720 N 
ATOM      2  H   LIG    1       -2.258  -0.593  -1.464  0.00  0.00    +0.400 HD
ATOM      3  C   LIG    1       -2.966   1.120  -0.671  0.00  0.00    +0.520 C 
ATOM      4  O   LIG    1       -2.653   2.178  -0.167  0.00  0.00    -0.520 OA
ENDROOT
BRANCH   1   5
ATOM      5  C   LIG    1       -0.607   0.694  -1.109  0.00  0.00    +0.290 C 
BRANCH   5   6
ATOM      6  C   LIG    1        0.152  -0.068  -2.165  0.00  0.00    -0.130 A 
ATOM      7  C   LIG    1       -0.111  -1.410  -2.370  0.00  0.00    +0.050 A 
ATOM      8  C   LIG    1        0.580  -2.109  -3.341  0.00  0.00    -0.070 A 
ATOM      9  C   LIG    1        1.546  -1.467  -4.102  0.00  0.00    +0.130 A 
ATOM     10  C   LIG    1        1.812  -0.122  -3.890  0.00  0.00    -0.020 A 
ATOM     11  C   LIG    1        1.114   0.574  -2.922  0.00  0.00    +0.060 A 
BRANCH   9  12
ATOM     12  O   LIG    1        2.230  -2.154  -5.054  0.00  0.00    -0.320 OA
ATOM     13  C   LIG    1        1.903  -3.536  -5.218  0.00  0.00    +0.250 C 
ENDBRANCH   9  12
ENDBRANCH   5   6
BRANCH   5  15
ATOM     14  C   LIG    1       -0.693   1.265   1.322  0.00  0.00    +0.020 C 
ATOM     15  C   LIG    1       -0.005   0.398   0.266  0.00  0.00    +0.000 C 
ENDBRANCH   5  15
ENDBRANCH   1   5
BRANCH   3  16
ATOM     16  C   LIG    1       -4.420   0.742  -0.790  0.00  0.00    +0.240 C 
BRANCH  16  17
ATOM     17  N   LIG    1       -5.214   1.566   0.125  0.00  0.00    -0.710 N 
ATOM     18  H   LIG    1       -4.886   2.436   0.403  0.00  0.00    +0.410 HD
ATOM     19  C   LIG    1       -6.401   1.117   0.579  0.00  0.00    +0.600 C 
ATOM     20  O   LIG    1       -6.812   0.026   0.229  0.00  0.00    -0.520 OA
BRANCH  19  21
ATOM     21  C   LIG    1       -7.196   1.941   1.493  0.00  0.00    -0.270 A 
ATOM     22  C   LIG    1       -8.409   1.596   2.020  0.00  0.00    +0.100 A 
ATOM     23  C   LIG    1       -8.934   2.558   2.851  0.00  0.00    +0.000 A 
ATOM     24  C   LIG    1       -8.178   3.652   3.001  0.00  0.00    -0.060 A 
ATOM     25  S   LIG    1       -6.738   3.528   2.095  0.00  0.00    +0.210 S 
ENDBRANCH  19  21
ENDBRANCH  16  17
BRANCH  16  26
ATOM     26  C   LIG    1       -4.891   0.975  -2.226  0.00  0.00    -0.020 C 
ATOM     27  C   LIG    1       -4.776   2.462  -2.567  0.00  0.00    +0.030 C 
ATOM     28  C   LIG    1       -6.350   0.533  -2.362  0.00  0.00    +0.030 C 
ENDBRANCH  16  26
ENDBRANCH   3  16
TORSDOF 8
