REMARK  Name = ZINCpk00001q4XL3.0
REMARK                            x       y       z     vdW  Elec       q    Type
REMARK                         _______ _______ _______ _____ _____    ______ ____
ROOT
ATOM      1  C   LIG    1        1.346   2.010   0.000  0.00  0.00    +0.210 C 
ATOM      2  C   LIG    1        2.099   1.523   1.240  0.00  0.00    +0.070 C 
ENDROOT
BRANCH   1   7
ATOM      3  N   LIG    1        2.332   4.362   0.003  0.00  0.00    -0.290 N 
ATOM      4  N   LIG    1        1.852   5.560   0.013  0.00  0.00    -0.080 NA
ATOM      5  N   LIG    1        0.567   5.491   0.025  0.00  0.00    -0.070 NA
ATOM      6  N   LIG    1        0.204   4.255   0.017  0.00  0.00    -0.280 NA
ATOM      7  C   LIG    1        1.286   3.516   0.009  0.00  0.00    +0.180 A 
BRANCH   3   9
ATOM      8  C   LIG    1        4.413   4.569  -1.264  0.00  0.00    +0.060 C 
ATOM      9  C   LIG    1        3.750   3.993  -0.012  0.00  0.00    +0.250 C 
ATOM     10  C   LIG    1        4.437   4.556   1.234  0.00  0.00    +0.070 C 
ENDBRANCH   3   9
ENDBRANCH   1   7
BRANCH   1  11
ATOM     11  N   LIG    1       -0.018   1.465   0.010  0.00  0.00    -0.630 NA
ATOM     12  H   LIG    1       -0.556   1.823  -0.764  0.00  0.00    +0.360 HD
BRANCH  11  13
ATOM     13  C   LIG    1        0.002  -0.004   0.002  0.00  0.00    +0.250 C 
ATOM     14  C   LIG    1       -0.355  -0.604  -1.361  0.00  0.00    -0.370 C 
ATOM     15  S   LIG    1       -1.112  -2.030  -0.534  0.00  0.00    +2.400 S 
ATOM     16  O   LIG    1       -0.155  -2.988  -0.102  0.00  0.00    -0.910 OA
ATOM     17  O   LIG    1       -2.356  -2.404  -1.110  0.00  0.00    -0.910 OA
ATOM     18  C   LIG    1       -1.257  -0.625   0.600  0.00  0.00    -0.510 C 
ATOM     19  C   LIG    1       -2.536   0.212   0.423  0.00  0.00    +0.100 C 
ATOM     20  C   LIG    1       -3.420  -0.189   1.631  0.00  0.00    +0.020 C 
ATOM     21  C   LIG    1       -2.387  -0.348   2.774  0.00  0.00    +0.020 C 
ATOM     22  C   LIG    1       -1.159  -0.985   2.089  0.00  0.00    +0.060 C 
ENDBRANCH  11  13
ENDBRANCH   1  11
BRANCH   1  23
ATOM     23  C   LIG    1        2.075   1.536  -1.259  0.00  0.00    +0.030 C 
BRANCH  23  24
ATOM     24  C   LIG    1        1.322   2.023  -2.498  0.00  0.00    +0.180 C 
BRANCH  24  25
ATOM     25  C   LIG    1        2.024   1.567  -3.709  0.00  0.00    +0.200 C 
ATOM     26  N   LIG    1        2.565   1.216  -4.644  0.00  0.00    -0.410 NA
ENDBRANCH  24  25
ENDBRANCH  23  24
ENDBRANCH   1  23
TORSDOF 7
