REMARK  Name = ZINCnE000001LrbA.0
REMARK                            x       y       z     vdW  Elec       q    Type
REMARK                         _______ _______ _______ _____ _____    ______ ____
ROOT
ATOM      1  C   LIG    1        5.141   1.300   1.135  0.00  0.00    +0.140 A 
ATOM      2  C   LIG    1        6.029   1.337   0.069  0.00  0.00    -0.060 A 
ATOM      3  C   LIG    1        5.805   2.198  -0.991  0.00  0.00    +0.060 A 
ATOM      4  C   LIG    1        4.695   3.017  -0.986  0.00  0.00    -0.110 A 
ATOM      5  C   LIG    1        4.404   3.907  -2.180  0.00  0.00    +0.070 C 
ATOM      6  C   LIG    1        4.570   5.367  -1.768  0.00  0.00    +0.020 C 
ATOM      7  C   LIG    1        3.293   5.909  -1.140  0.00  0.00    +0.000 C 
ATOM      8  C   LIG    1        2.987   5.317   0.209  0.00  0.00    +0.290 C 
ATOM      9  N   LIG    1        2.723   3.874   0.098  0.00  0.00    -0.570 N 
ATOM     10  C   LIG    1        1.463   3.404   0.006  0.00  0.00    +0.610 C 
ATOM     11  O   LIG    1        0.524   4.178  -0.003  0.00  0.00    -0.530 OA
ATOM     12  C   LIG    1        3.819   3.005   0.086  0.00  0.00    +0.160 A 
ATOM     13  C   LIG    1        4.033   2.135   1.146  0.00  0.00    +0.010 A 
ENDROOT
BRANCH  10  14
ATOM     14  C   LIG    1        1.222   1.954  -0.084  0.00  0.00    -0.320 A 
ATOM     15  C   LIG    1       -0.005   1.355  -0.028  0.00  0.00    +0.100 A 
ATOM     16  C   LIG    1        0.018  -0.008  -0.133  0.00  0.00    -0.020 A 
ATOM     17  C   LIG    1        1.266  -0.550  -0.277  0.00  0.00    -0.200 A 
ATOM     18  S   LIG    1        2.470   0.731  -0.279  0.00  0.00    +0.220 S 
BRANCH  17  19
ATOM     19  C   LIG    1        1.555  -1.982  -0.409  0.00  0.00    +0.540 C 
ATOM     20  O   LIG    1        2.712  -2.364  -0.533  0.00  0.00    -0.680 OA
ATOM     21  O   LIG    1        0.640  -2.795  -0.396  0.00  0.00    -0.670 OA
ENDBRANCH  17  19
ENDBRANCH  10  14
BRANCH   1  23
ATOM     22  C   LIG    1        6.516  -0.387   2.091  0.00  0.00    +0.240 C 
ATOM     23  O   LIG    1        5.356   0.444   2.168  0.00  0.00    -0.310 OA
ENDBRANCH   1  23
TORSDOF 3
