REMARK  Name = ZINCrg00000cfpjL.0
REMARK                            x       y       z     vdW  Elec       q    Type
REMARK                         _______ _______ _______ _____ _____    ______ ____
ROOT
ATOM      1  N   LIG    1       -3.467   2.509   0.032  0.00  0.00    -0.600 N 
ATOM      2  C   LIG    1       -2.649   1.292   0.022  0.00  0.00    +0.360 C 
ATOM      3  C   LIG    1       -1.211   1.748   0.017  0.00  0.00    -0.090 A 
ATOM      4  C   LIG    1       -0.013   1.076   0.008  0.00  0.00    +0.110 A 
ATOM      5  C   LIG    1        1.187   1.792   0.000  0.00  0.00    -0.100 A 
ATOM      6  C   LIG    1        1.163   3.187   0.008  0.00  0.00    +0.050 A 
ATOM      7  C   LIG    1       -0.040   3.860   0.023  0.00  0.00    +0.090 A 
ATOM      8  C   LIG    1       -1.239   3.145   0.031  0.00  0.00    -0.130 A 
ATOM      9  C   LIG    1       -2.652   3.578   0.048  0.00  0.00    +0.560 C 
ATOM     10  O   LIG    1       -3.024   4.735   0.058  0.00  0.00    -0.510 OA
ENDROOT
BRANCH   1  15
ATOM     11  O   LIG    1       -8.330   4.769   0.234  0.00  0.00    -0.500 OA
ATOM     12  C   LIG    1       -7.318   4.105   0.176  0.00  0.00    +0.520 C 
ATOM     13  C   LIG    1       -6.952   3.428  -1.119  0.00  0.00    +0.100 C 
ATOM     14  C   LIG    1       -5.428   3.297  -1.205  0.00  0.00    +0.060 C 
ATOM     15  C   LIG    1       -4.931   2.553   0.040  0.00  0.00    +0.290 C 
ATOM     16  C   LIG    1       -5.407   3.278   1.271  0.00  0.00    +0.510 C 
ATOM     17  O   LIG    1       -4.748   3.219   2.287  0.00  0.00    -0.480 OA
ATOM     18  N   LIG    1       -6.545   3.987   1.266  0.00  0.00    -0.670 N 
ATOM     19  H   LIG    1       -6.821   4.433   2.082  0.00  0.00    +0.420 HD
ENDBRANCH   1  15
BRANCH   5  20
ATOM     20  C   LIG    1        2.480   1.073  -0.015  0.00  0.00    +0.560 C 
ATOM     21  N   LIG    1        3.636   1.765  -0.023  0.00  0.00    -0.720 N 
ATOM     22  H   LIG    1        3.621   2.735  -0.018  0.00  0.00    +0.400 HD
ATOM     23  O   LIG    1        2.500  -0.142  -0.022  0.00  0.00    -0.530 OA
BRANCH  21  24
ATOM     24  C   LIG    1        4.917   1.053  -0.038  0.00  0.00    +0.230 C 
ATOM     25  C   LIG    1        5.301   0.679   1.390  0.00  0.00    +0.030 C 
ATOM     26  C   LIG    1        6.482  -0.295   1.375  0.00  0.00    +0.120 C 
ATOM     27  S   LIG    1        7.920   0.538   0.638  0.00  0.00    -0.260 S 
ATOM     28  C   LIG    1        7.250   1.135  -0.942  0.00  0.00    +0.120 C 
ATOM     29  C   LIG    1        5.981   1.947  -0.666  0.00  0.00    +0.030 C 
ENDBRANCH  21  24
ENDBRANCH   5  20
TORSDOF 3
