REMARK  Name = ZINCqH00000089zI.0
REMARK                            x       y       z     vdW  Elec       q    Type
REMARK                         _______ _______ _______ _____ _____    ______ ____
ROOT
ATOM      1  S   LIG    1       -0.127   1.465   3.268  0.00  0.00    +2.440 S 
ATOM      2  O   LIG    1       -0.358   0.076   3.457  0.00  0.00    -0.900 OA
ATOM      3  O   LIG    1       -0.358   2.360   4.348  0.00  0.00    -0.900 OA
ENDROOT
BRANCH   1   5
ATOM      4  C   LIG    1       -0.756   1.155   0.624  0.00  0.00    +0.120 C 
ATOM      5  C   LIG    1       -1.094   2.023   1.838  0.00  0.00    -0.460 C 
BRANCH   5   6
ATOM      6  C   LIG    1       -2.564   1.902   2.148  0.00  0.00    +0.540 C 
ATOM      7  N   LIG    1       -3.463   2.609   1.435  0.00  0.00    -0.710 N 
ATOM      8  H   LIG    1       -3.164   3.195   0.722  0.00  0.00    +0.400 HD
ATOM      9  O   LIG    1       -2.938   1.169   3.039  0.00  0.00    -0.520 OA
BRANCH   7  10
ATOM     10  C   LIG    1       -4.892   2.492   1.736  0.00  0.00    +0.270 C 
BRANCH  10  11
ATOM     11  C   LIG    1       -5.688   3.391   0.788  0.00  0.00    -0.020 C 
ATOM     12  C   LIG    1       -5.337   4.855   1.058  0.00  0.00    +0.010 C 
ATOM     13  C   LIG    1       -6.133   5.754   0.110  0.00  0.00    +0.000 C 
ATOM     14  C   LIG    1       -7.630   5.538   0.340  0.00  0.00    +0.000 C 
ATOM     15  C   LIG    1       -7.982   4.074   0.070  0.00  0.00    +0.000 C 
ATOM     16  C   LIG    1       -7.186   3.175   1.018  0.00  0.00    +0.030 C 
ENDBRANCH  10  11
ENDBRANCH   7  10
ENDBRANCH   5   6
ENDBRANCH   1   5
BRANCH   1  17
ATOM     17  C   LIG    1        1.574   1.693   2.682  0.00  0.00    -0.300 C 
BRANCH  17  18
ATOM     18  C   LIG    1        2.535   1.407   3.807  0.00  0.00    -0.040 A 
ATOM     19  C   LIG    1        2.886   0.103   4.102  0.00  0.00    +0.040 A 
ATOM     20  C   LIG    1        3.768  -0.159   5.134  0.00  0.00    +0.060 A 
ATOM     21  C   LIG    1        4.300   0.883   5.870  0.00  0.00    +0.030 A 
ATOM     22  C   LIG    1        3.949   2.188   5.575  0.00  0.00    +0.080 A 
ATOM     23  C   LIG    1        3.072   2.450   4.540  0.00  0.00    -0.170 A 
BRANCH  23  24
ATOM     24  C   LIG    1        2.695   3.872   4.214  0.00  0.00    +0.500 C 
ATOM     25  F   LIG    1        1.309   4.026   4.330  0.00  0.00    -0.160 F 
ATOM     26  F   LIG    1        3.089   4.171   2.905  0.00  0.00    -0.180 F 
ATOM     27  F   LIG    1        3.337   4.740   5.104  0.00  0.00    -0.170 F 
ENDBRANCH  23  24
ENDBRANCH  17  18
ENDBRANCH   1  17
TORSDOF 7
