REMARK  Name = ZINCvU0000000863.0
REMARK                            x       y       z     vdW  Elec       q    Type
REMARK                         _______ _______ _______ _____ _____    ______ ____
ROOT
ATOM      1  C   LIG    1        2.477   1.074  -0.015  0.00  0.00    +0.150 C 
ATOM      2  N   LIG    1        3.638   1.632  -0.028  0.00  0.00    -0.230 NA
ATOM      3  N   LIG    1        4.702   0.732  -0.037  0.00  0.00    -0.460 N 
ATOM      4  C   LIG    1        4.166  -0.638  -0.038  0.00  0.00    +0.260 C 
ATOM      5  C   LIG    1        6.008   1.063  -0.048  0.00  0.00    +0.590 C 
ATOM      6  O   LIG    1        6.857   0.190  -0.060  0.00  0.00    -0.520 OA
ATOM      7  C   LIG    1        2.639  -0.429  -0.023  0.00  0.00    +0.090 C 
ENDROOT
BRANCH   4   8
ATOM      8  C   LIG    1        4.588  -1.372  -1.285  0.00  0.00    -0.070 A 
ATOM      9  C   LIG    1        4.714  -0.688  -2.480  0.00  0.00    +0.030 A 
ATOM     10  C   LIG    1        5.106  -1.359  -3.623  0.00  0.00    +0.040 A 
ATOM     11  C   LIG    1        5.363  -2.717  -3.573  0.00  0.00    -0.090 A 
ATOM     12  C   LIG    1        5.232  -3.402  -2.378  0.00  0.00    +0.050 A 
ATOM     13 BR   LIG    1        5.894  -3.638  -5.137  0.00  0.00    -0.050 Br
ATOM     14  C   LIG    1        4.845  -2.729  -1.235  0.00  0.00    +0.040 A 
ENDBRANCH   4   8
BRANCH   1  19
ATOM     15  C   LIG    1       -0.052   3.853   0.022  0.00  0.00    +0.210 A 
ATOM     16  C   LIG    1       -1.241   3.132   0.030  0.00  0.00    -0.050 A 
ATOM     17  C   LIG    1       -1.216   1.749   0.017  0.00  0.00    +0.060 A 
ATOM     18  C   LIG    1       -0.013   1.076   0.008  0.00  0.00    -0.020 A 
ATOM     19  C   LIG    1        1.188   1.791   0.000  0.00  0.00    +0.010 A 
ATOM     20  C   LIG    1        1.163   3.187   0.008  0.00  0.00    -0.030 A 
BRANCH  15  22
ATOM     21  C   LIG    1        1.169   6.010   0.023  0.00  0.00    +0.280 C 
ATOM     22  N   LIG    1       -0.083   5.250   0.030  0.00  0.00    -0.640 N 
ATOM     23  C   LIG    1       -1.368   5.954   0.046  0.00  0.00    +0.280 C 
ENDBRANCH  15  22
ENDBRANCH   1  19
BRANCH   5  24
ATOM     24  C   LIG    1        6.407   2.471  -0.044  0.00  0.00    -0.060 C 
ATOM     25  C   LIG    1        7.714   2.802  -0.055  0.00  0.00    +0.120 C 
BRANCH  25  26
ATOM     26  C   LIG    1        8.114   4.219  -0.052  0.00  0.00    -0.080 A 
ATOM     27  C   LIG    1        7.142   5.224  -0.044  0.00  0.00    +0.030 A 
ATOM     28  C   LIG    1        7.526   6.548  -0.035  0.00  0.00    +0.010 A 
ATOM     29  C   LIG    1        8.868   6.884  -0.047  0.00  0.00    +0.020 A 
ATOM     30  C   LIG    1        9.836   5.895  -0.061  0.00  0.00    +0.010 A 
ATOM     31  C   LIG    1        9.469   4.566  -0.063  0.00  0.00    +0.040 A 
ENDBRANCH  25  26
ENDBRANCH   5  24
TORSDOF 5
