REMARK  Name = ZINCkj00000xVALi.1
REMARK                            x       y       z     vdW  Elec       q    Type
REMARK                         _______ _______ _______ _____ _____    ______ ____
ROOT
ATOM      1  C   LIG    1        3.442   0.312  -0.327  0.00  0.00    +0.160 C 
ATOM      2  C   LIG    1        4.443   1.486  -0.366  0.00  0.00    +0.080 C 
ATOM      3  C   LIG    1        5.775   0.795  -0.760  0.00  0.00    +0.080 C 
ATOM      4  C   LIG    1        5.282  -0.304  -1.734  0.00  0.00    +0.260 C 
ATOM      5  N   LIG    1        3.999  -0.767  -1.163  0.00  0.00    -0.380 N 
ATOM      6  H   LIG    1        3.357  -0.984  -1.910  0.00  0.00    +0.420 HD
ENDROOT
BRANCH   1  13
ATOM      7  C   LIG    1        0.919   3.233   1.851  0.00  0.00    +0.110 C 
ATOM      8  C   LIG    1        1.308   1.940   1.182  0.00  0.00    +0.530 C 
ATOM      9  N   LIG    1        1.597   1.922  -0.135  0.00  0.00    -0.610 N 
ATOM     10  C   LIG    1        1.472   3.065  -1.057  0.00  0.00    +0.260 C 
ATOM     11  C   LIG    1        1.307   2.427  -2.459  0.00  0.00    +0.060 C 
ATOM     12  C   LIG    1        2.254   1.203  -2.357  0.00  0.00    +0.030 C 
ATOM     13  C   LIG    1        2.091   0.760  -0.888  0.00  0.00    +0.220 C 
ATOM     14  O   LIG    1        1.361   0.915   1.828  0.00  0.00    -0.540 OA
ENDBRANCH   1  13
BRANCH   5  15
ATOM     15  C   LIG    1        4.227  -1.963  -0.341  0.00  0.00    +0.260 C 
BRANCH  15  16
ATOM     16  C   LIG    1        4.688  -3.116  -1.235  0.00  0.00    +0.330 C 
BRANCH  16  17
ATOM     17  N   LIG    1        4.915  -4.309  -0.415  0.00  0.00    -0.390 N 
ATOM     18  C   LIG    1        4.348  -5.519  -0.601  0.00  0.00    +0.240 A 
ATOM     19  C   LIG    1        4.819  -6.346   0.361  0.00  0.00    -0.090 A 
ATOM     20  C   LIG    1        5.695  -5.614   1.168  0.00  0.00    +0.260 A 
ATOM     21  N   LIG    1        5.753  -4.392   0.704  0.00  0.00    -0.300 NA
ENDBRANCH  16  17
ENDBRANCH  15  16
ENDBRANCH   5  15
TORSDOF 4
