REMARK  Name = ZINCkj00000xVALi.0
REMARK                            x       y       z     vdW  Elec       q    Type
REMARK                         _______ _______ _______ _____ _____    ______ ____
ROOT
ATOM      1  C   LIG    1        6.057  -0.753   2.306  0.00  0.00    +0.160 C 
ATOM      2  C   LIG    1        6.721   0.243   3.280  0.00  0.00    +0.080 C 
ATOM      3  C   LIG    1        7.044   1.458   2.370  0.00  0.00    +0.080 C 
ATOM      4  C   LIG    1        5.833   1.457   1.405  0.00  0.00    +0.250 C 
ATOM      5  N   LIG    1        5.540   0.028   1.167  0.00  0.00    -0.380 N 
ATOM      6  H   LIG    1        5.993  -0.275   0.317  0.00  0.00    +0.430 HD
ENDROOT
BRANCH   1  13
ATOM      7  C   LIG    1        6.639  -4.324   4.976  0.00  0.00    +0.100 C 
ATOM      8  C   LIG    1        6.259  -3.419   3.832  0.00  0.00    +0.540 C 
ATOM      9  N   LIG    1        5.436  -2.374   4.043  0.00  0.00    -0.610 N 
ATOM     10  C   LIG    1        4.918  -1.940   5.354  0.00  0.00    +0.260 C 
ATOM     11  C   LIG    1        3.611  -1.174   5.029  0.00  0.00    +0.060 C 
ATOM     12  C   LIG    1        3.990  -0.451   3.707  0.00  0.00    +0.040 C 
ATOM     13  C   LIG    1        4.905  -1.477   3.006  0.00  0.00    +0.220 C 
ATOM     14  O   LIG    1        6.696  -3.632   2.720  0.00  0.00    -0.540 OA
ENDBRANCH   1  13
BRANCH   5  15
ATOM     15  C   LIG    1        4.089  -0.168   1.052  0.00  0.00    +0.240 C 
BRANCH  15  16
ATOM     16  C   LIG    1        3.595   0.445  -0.261  0.00  0.00    +0.330 C 
BRANCH  16  17
ATOM     17  N   LIG    1        2.134   0.354  -0.322  0.00  0.00    -0.390 N 
ATOM     18  C   LIG    1        1.281   1.385  -0.499  0.00  0.00    +0.240 A 
ATOM     19  C   LIG    1        0.024   0.885  -0.496  0.00  0.00    -0.090 A 
ATOM     20  C   LIG    1        0.111  -0.498  -0.311  0.00  0.00    +0.260 A 
ATOM     21  N   LIG    1        1.375  -0.818  -0.206  0.00  0.00    -0.300 NA
ENDBRANCH  16  17
ENDBRANCH  15  16
ENDBRANCH   5  15
TORSDOF 4
