REMARK  Name = ZINCpk00000y6uKN.2
REMARK                            x       y       z     vdW  Elec       q    Type
REMARK                         _______ _______ _______ _____ _____    ______ ____
ROOT
ATOM      1  C   LIG    1        0.061  -3.344   1.433  0.00  0.00    +0.120 C 
ATOM      2  C   LIG    1       -0.693  -3.136   2.770  0.00  0.00    +0.000 C 
ATOM      3  C   LIG    1       -0.073  -4.222   3.684  0.00  0.00    +0.180 C 
ATOM      4  C   LIG    1        1.419  -4.239   3.293  0.00  0.00    -0.010 C 
ATOM      5  C   LIG    1        1.505  -3.683   1.858  0.00  0.00    +0.050 C 
ENDROOT
BRANCH   1  10
ATOM      6  C   LIG    1       -0.018   1.503   0.010  0.00  0.00    +0.200 C 
ATOM      7  C   LIG    1        0.002  -0.004   0.002  0.00  0.00    +0.180 A 
ATOM      8  N   LIG    1       -0.003  -0.772  -1.053  0.00  0.00    -0.290 NA
ATOM      9  N   LIG    1        0.023  -2.006  -0.691  0.00  0.00    -0.290 NA
ATOM     10  C   LIG    1        0.036  -2.081   0.612  0.00  0.00    +0.190 A 
ATOM     11  N   LIG    1        0.023  -0.813   1.089  0.00  0.00    -0.580 N 
ATOM     12  H   LIG    1        0.029  -0.540   2.020  0.00  0.00    +0.430 HD
ENDBRANCH   1  10
BRANCH   3  13
ATOM     13  O   LIG    1       -0.672  -5.494   3.429  0.00  0.00    -0.550 OA
ATOM     14  H   LIG    1       -1.623  -5.522   3.602  0.00  0.00    +0.380 HD
ENDBRANCH   3  13
BRANCH   4  15
ATOM     15  C   LIG    1        1.954  -5.672   3.330  0.00  0.00    +0.290 C 
BRANCH  15  16
ATOM     16  N   LIG    1        1.948  -6.160   4.712  0.00  0.00    -0.720 N 
ATOM     17  H   LIG    1        1.634  -5.585   5.427  0.00  0.00    +0.400 HD
ATOM     18  C   LIG    1        2.380  -7.406   4.989  0.00  0.00    +0.520 C 
ATOM     19  O   LIG    1        2.773  -8.124   4.094  0.00  0.00    -0.530 OA
BRANCH  18  20
ATOM     20  C   LIG    1        2.374  -7.907   6.410  0.00  0.00    +0.000 C 
ATOM     21  C   LIG    1        3.342  -7.084   7.286  0.00  0.00    +0.090 C 
ATOM     22  C   LIG    1        3.930  -8.081   8.266  0.00  0.00    -0.100 A 
ATOM     23  C   LIG    1        4.596  -7.875   9.462  0.00  0.00    +0.020 A 
ATOM     24  C   LIG    1        5.046  -8.952  10.201  0.00  0.00    +0.000 A 
ATOM     25  C   LIG    1        4.832 -10.239   9.746  0.00  0.00    +0.010 A 
ATOM     26  C   LIG    1        4.167 -10.447   8.553  0.00  0.00    +0.010 A 
ATOM     27  C   LIG    1        3.715  -9.369   7.811  0.00  0.00    -0.090 A 
ATOM     28  C   LIG    1        2.971  -9.328   6.493  0.00  0.00    +0.110 C 
ENDBRANCH  18  20
ENDBRANCH  15  16
ENDBRANCH   4  15
TORSDOF 5
