REMARK  Name = ZINCpk00000y6uKN.1
REMARK                            x       y       z     vdW  Elec       q    Type
REMARK                         _______ _______ _______ _____ _____    ______ ____
ROOT
ATOM      1  C   LIG    1        4.559   1.162   1.150  0.00  0.00    +0.110 C 
ATOM      2  C   LIG    1        3.985  -0.202   1.605  0.00  0.00    +0.010 C 
ATOM      3  C   LIG    1        2.473  -0.053   1.307  0.00  0.00    +0.180 C 
ATOM      4  C   LIG    1        2.424   0.737  -0.017  0.00  0.00    -0.010 C 
ATOM      5  C   LIG    1        3.751   1.510  -0.117  0.00  0.00    +0.050 C 
ENDROOT
BRANCH   1  11
ATOM      6  C   LIG    1        9.417   2.274   0.653  0.00  0.00    +0.200 C 
ATOM      7  C   LIG    1        8.123   1.503   0.603  0.00  0.00    +0.230 A 
ATOM      8  N   LIG    1        7.983   0.282   0.158  0.00  0.00    -0.320 NA
ATOM      9  N   LIG    1        6.624  -0.045   0.290  0.00  0.00    -0.480 N 
ATOM     10  H   LIG    1        6.201  -0.883   0.046  0.00  0.00    +0.440 HD
ATOM     11  C   LIG    1        6.025   1.035   0.822  0.00  0.00    +0.300 A 
ATOM     12  N   LIG    1        6.935   1.958   0.999  0.00  0.00    -0.540 NA
ENDBRANCH   1  11
BRANCH   3  13
ATOM     13  O   LIG    1        1.825   0.678   2.350  0.00  0.00    -0.550 OA
ATOM     14  H   LIG    1        1.826   0.228   3.205  0.00  0.00    +0.380 HD
ENDBRANCH   3  13
BRANCH   4  15
ATOM     15  C   LIG    1        1.248   1.716  -0.001  0.00  0.00    +0.290 C 
BRANCH  15  16
ATOM     16  N   LIG    1       -0.011   0.966   0.007  0.00  0.00    -0.720 N 
ATOM     17  H   LIG    1        0.002  -0.004   0.002  0.00  0.00    +0.400 HD
ATOM     18  C   LIG    1       -1.187   1.624   0.017  0.00  0.00    +0.520 C 
ATOM     19  O   LIG    1       -1.204   2.837   0.023  0.00  0.00    -0.530 OA
BRANCH  18  20
ATOM     20  C   LIG    1       -2.482   0.853   0.018  0.00  0.00    +0.000 C 
ATOM     21  C   LIG    1       -2.637   0.038  -1.283  0.00  0.00    +0.090 C 
ATOM     22  C   LIG    1       -4.120   0.077  -1.597  0.00  0.00    -0.100 A 
ATOM     23  C   LIG    1       -4.879  -0.716  -2.441  0.00  0.00    +0.020 A 
ATOM     24  C   LIG    1       -6.237  -0.496  -2.569  0.00  0.00    +0.000 A 
ATOM     25  C   LIG    1       -6.841   0.520  -1.853  0.00  0.00    +0.000 A 
ATOM     26  C   LIG    1       -6.086   1.313  -1.010  0.00  0.00    +0.010 A 
ATOM     27  C   LIG    1       -4.725   1.094  -0.881  0.00  0.00    -0.090 A 
ATOM     28  C   LIG    1       -3.691   1.810  -0.039  0.00  0.00    +0.110 C 
ENDBRANCH  18  20
ENDBRANCH  15  16
ENDBRANCH   4  15
TORSDOF 5
