REMARK  Name = ZINCpk00000y6uKN.0
REMARK                            x       y       z     vdW  Elec       q    Type
REMARK                         _______ _______ _______ _____ _____    ______ ____
ROOT
ATOM      1  C   LIG    1        1.473   4.299   0.009  0.00  0.00    +0.120 C 
ATOM      2  C   LIG    1        2.458   4.291  -1.185  0.00  0.00    +0.020 C 
ATOM      3  C   LIG    1        3.578   5.251  -0.711  0.00  0.00    +0.160 C 
ATOM      4  C   LIG    1        3.723   4.948   0.794  0.00  0.00    +0.000 C 
ATOM      5  C   LIG    1        2.385   4.342   1.252  0.00  0.00    +0.050 C 
ENDROOT
BRANCH   1   9
ATOM      6  C   LIG    1       -2.531   1.291   0.020  0.00  0.00    +0.190 C 
ATOM      7  C   LIG    1       -1.098   1.757   0.016  0.00  0.00    +0.280 A 
ATOM      8  N   LIG    1       -0.694   3.001   0.024  0.00  0.00    -0.540 NA
ATOM      9  C   LIG    1        0.637   3.045   0.011  0.00  0.00    +0.240 A 
ATOM     10  N   LIG    1        1.102   1.823   0.001  0.00  0.00    -0.310 NA
ATOM     11  N   LIG    1       -0.011   0.966   0.007  0.00  0.00    -0.480 N 
ATOM     12  H   LIG    1        0.002  -0.004   0.002  0.00  0.00    +0.440 HD
ENDBRANCH   1   9
BRANCH   3  13
ATOM     13  O   LIG    1        3.188   6.612  -0.911  0.00  0.00    -0.550 OA
ATOM     14  H   LIG    1        3.082   6.857  -1.841  0.00  0.00    +0.380 HD
ENDBRANCH   3  13
BRANCH   4  15
ATOM     15  C   LIG    1        4.006   6.239   1.566  0.00  0.00    +0.280 C 
BRANCH  15  16
ATOM     16  N   LIG    1        5.335   6.741   1.208  0.00  0.00    -0.720 N 
ATOM     17  H   LIG    1        5.880   6.257   0.568  0.00  0.00    +0.400 HD
ATOM     18  C   LIG    1        5.800   7.875   1.768  0.00  0.00    +0.520 C 
ATOM     19  O   LIG    1        5.119   8.480   2.568  0.00  0.00    -0.540 OA
BRANCH  18  20
ATOM     20  C   LIG    1        7.167   8.391   1.400  0.00  0.00    +0.000 C 
ATOM     21  C   LIG    1        8.265   7.400   1.841  0.00  0.00    +0.090 C 
ATOM     22  C   LIG    1        9.432   8.271   2.266  0.00  0.00    -0.100 A 
ATOM     23  C   LIG    1       10.767   7.952   2.449  0.00  0.00    +0.020 A 
ATOM     24  C   LIG    1       11.667   8.924   2.841  0.00  0.00    +0.000 A 
ATOM     25  C   LIG    1       11.234  10.220   3.051  0.00  0.00    +0.000 A 
ATOM     26  C   LIG    1        9.902  10.540   2.869  0.00  0.00    +0.010 A 
ATOM     27  C   LIG    1        8.999   9.567   2.476  0.00  0.00    -0.090 A 
ATOM     28  C   LIG    1        7.512   9.658   2.211  0.00  0.00    +0.110 C 
ENDBRANCH  18  20
ENDBRANCH  15  16
ENDBRANCH   4  15
TORSDOF 5
