REMARK  Name = ZINCrH00000tj18Y.0
REMARK                            x       y       z     vdW  Elec       q    Type
REMARK                         _______ _______ _______ _____ _____    ______ ____
ROOT
ATOM      1  N   LIG    1       -4.582   8.095   0.089  0.00  0.00    -0.710 N 
ATOM      2  H   LIG    1       -3.777   8.637   0.085  0.00  0.00    +0.410 HD
ATOM      3  C   LIG    1       -4.489   6.751   0.081  0.00  0.00    +0.600 C 
ATOM      4  O   LIG    1       -5.500   6.071   0.086  0.00  0.00    -0.520 OA
ENDROOT
BRANCH   3   5
ATOM      5  C   LIG    1       -3.216   6.128   0.066  0.00  0.00    -0.260 A 
ATOM      6  C   LIG    1       -3.005   4.783   0.057  0.00  0.00    +0.170 A 
ATOM      7  C   LIG    1       -1.677   4.400   0.042  0.00  0.00    -0.020 A 
ATOM      8  C   LIG    1       -0.790   5.459   0.039  0.00  0.00    +0.010 A 
ATOM      9  N   LIG    1        0.458   4.955   0.024  0.00  0.00    -0.420 NA
ATOM     10  C   LIG    1        0.403   3.642   0.018  0.00  0.00    +0.210 A 
ATOM     11  S   LIG    1        1.385   2.167   0.001  0.00  0.00    +0.190 S 
ATOM     12  C   LIG    1       -0.013   1.076   0.008  0.00  0.00    +0.010 A 
ATOM     13  C   LIG    1       -1.076   1.861   0.017  0.00  0.00    +0.230 A 
ATOM     14  N   LIG    1       -0.889   3.222   0.028  0.00  0.00    -0.410 N 
ATOM     15  S   LIG    1       -1.679   6.978   0.056  0.00  0.00    +0.260 S 
ENDBRANCH   3   5
BRANCH   1  16
ATOM     16  C   LIG    1       -5.898   8.739   0.105  0.00  0.00    +0.360 C 
BRANCH  16  17
ATOM     17  C   LIG    1       -5.778  10.113   0.712  0.00  0.00    +0.130 A 
ATOM     18  N   LIG    1       -4.852  10.998   0.445  0.00  0.00    -0.230 NA
ATOM     19  N   LIG    1       -5.044  12.066   1.137  0.00  0.00    -0.280 NA
ATOM     20  C   LIG    1       -6.119  11.915   1.893  0.00  0.00    +0.200 A 
ATOM     21  C   LIG    1       -6.773  12.746   2.823  0.00  0.00    +0.080 A 
ATOM     22  C   LIG    1       -7.897  12.293   3.442  0.00  0.00    +0.060 A 
ATOM     23  C   LIG    1       -8.379  11.004   3.157  0.00  0.00    +0.030 A 
ATOM     24  C   LIG    1       -7.738  10.218   2.267  0.00  0.00    +0.230 A 
ATOM     25  N   LIG    1       -6.615  10.662   1.633  0.00  0.00    -0.380 N 
ENDBRANCH  16  17
BRANCH  16  27
ATOM     26  C   LIG    1       -5.396   9.593  -2.189  0.00  0.00    +0.040 C 
ATOM     27  C   LIG    1       -6.424   8.858  -1.327  0.00  0.00    -0.020 C 
ATOM     28  C   LIG    1       -6.664   7.460  -1.900  0.00  0.00    +0.040 C 
ENDBRANCH  16  27
ENDBRANCH   1  16
TORSDOF 4
