REMARK  Name = ZINCpk00000KfLn8.0
REMARK                            x       y       z     vdW  Elec       q    Type
REMARK                         _______ _______ _______ _____ _____    ______ ____
ROOT
ATOM      1  C   LIG    1        2.210   4.078   0.848  0.00  0.00    +0.080 C 
ATOM      2  C   LIG    1        3.541   3.489   0.376  0.00  0.00    +0.040 C 
ATOM      3  C   LIG    1        3.458   1.961   0.388  0.00  0.00    +0.030 C 
ATOM      4  C   LIG    1        2.360   1.506  -0.572  0.00  0.00    +0.270 C 
ATOM      5  N   LIG    1        1.104   2.182  -0.218  0.00  0.00    -0.600 N 
ATOM      6  C   LIG    1       -0.018   1.471   0.010  0.00  0.00    +0.560 C 
ATOM      7  O   LIG    1       -1.067   2.045   0.228  0.00  0.00    -0.530 OA
ATOM      8  C   LIG    1        1.097   3.647  -0.112  0.00  0.00    +0.300 C 
ENDROOT
BRANCH   6   9
ATOM      9  C   LIG    1        0.026  -0.003  -0.010  0.00  0.00    -0.120 A 
ATOM     10  C   LIG    1        0.542  -0.676  -1.120  0.00  0.00    +0.060 A 
ATOM     11  C   LIG    1        0.587  -2.055  -1.134  0.00  0.00    +0.030 A 
ATOM     12  C   LIG    1        0.112  -2.784  -0.058  0.00  0.00    +0.060 A 
ATOM     13  C   LIG    1       -0.409  -2.134   1.049  0.00  0.00    +0.090 A 
ATOM     14  N   LIG    1       -0.950  -2.580   2.253  0.00  0.00    -0.640 N 
ATOM     15  H   LIG    1       -1.052  -3.506   2.522  0.00  0.00    +0.440 HD
ATOM     16  C   LIG    1       -1.306  -1.504   2.980  0.00  0.00    +0.690 A 
ATOM     17  O   LIG    1       -1.811  -1.541   4.086  0.00  0.00    -0.550 OA
ATOM     18  N   LIG    1       -1.019  -0.381   2.295  0.00  0.00    -0.630 N 
ATOM     19  H   LIG    1       -1.180   0.526   2.600  0.00  0.00    +0.440 HD
ATOM     20  C   LIG    1       -0.456  -0.739   1.080  0.00  0.00    +0.140 A 
ENDBRANCH   6   9
BRANCH   1  25
ATOM     21  N   LIG    1        2.134   6.384   1.946  0.00  0.00    -0.470 N 
ATOM     22  C   LIG    1        2.310   7.651   1.501  0.00  0.00    +0.370 A 
ATOM     23  N   LIG    1        2.563   7.583   0.223  0.00  0.00    -0.290 NA
ATOM     24  N   LIG    1        2.559   6.354  -0.154  0.00  0.00    -0.280 NA
ATOM     25  C   LIG    1        2.304   5.582   0.867  0.00  0.00    +0.180 A 
BRANCH  21  27
ATOM     26  C   LIG    1        3.122   5.608   4.044  0.00  0.00    +0.040 C 
ATOM     27  C   LIG    1        1.825   5.965   3.315  0.00  0.00    +0.300 C 
ENDBRANCH  21  27
ENDBRANCH   1  25
TORSDOF 3
