REMARK  Name = ZINCtV000002Izrj.0
REMARK                            x       y       z     vdW  Elec       q    Type
REMARK                         _______ _______ _______ _____ _____    ______ ____
ROOT
ATOM      1  C   LIG    1       -2.973   0.217  -1.241  0.00  0.00    +0.240 C 
ENDROOT
BRANCH   1   2
ATOM      2  C   LIG    1       -4.296   0.906  -1.028  0.00  0.00    +0.520 C 
ATOM      3  N   LIG    1       -5.034   1.290  -2.088  0.00  0.00    -0.670 N 
ATOM      4  H   LIG    1       -4.685   1.182  -2.987  0.00  0.00    +0.420 HD
ATOM      5  O   LIG    1       -4.697   1.115   0.097  0.00  0.00    -0.480 OA
BRANCH   3   6
ATOM      6  C   LIG    1       -6.304   1.845  -1.893  0.00  0.00    +0.160 A 
ATOM      7  C   LIG    1       -6.551   2.646  -0.786  0.00  0.00    +0.100 A 
ATOM      8  C   LIG    1       -7.804   3.196  -0.599  0.00  0.00    -0.160 A 
ATOM      9  C   LIG    1       -8.816   2.943  -1.506  0.00  0.00    +0.080 A 
ATOM     10  C   LIG    1       -8.576   2.141  -2.608  0.00  0.00    +0.060 A 
ATOM     11  C   LIG    1       -7.323   1.591  -2.804  0.00  0.00    -0.040 A 
ATOM     12 CL   LIG    1       -7.022   0.585  -4.186  0.00  0.00    -0.050 Cl
BRANCH   8  13
ATOM     13  C   LIG    1       -8.071   4.070   0.600  0.00  0.00    +0.510 C 
ATOM     14  F   LIG    1       -7.220   5.180   0.566  0.00  0.00    -0.170 F 
ATOM     15  F   LIG    1       -7.838   3.340   1.770  0.00  0.00    -0.170 F 
ATOM     16  F   LIG    1       -9.401   4.502   0.576  0.00  0.00    -0.170 F 
ENDBRANCH   8  13
ENDBRANCH   3   6
ENDBRANCH   1   2
BRANCH   1  17
ATOM     17  O   LIG    1       -2.386  -0.089   0.026  0.00  0.00    -0.280 OA
BRANCH  17  22
ATOM     18  C   LIG    1        0.998   3.582   0.014  0.00  0.00    +0.140 C 
ATOM     19  C   LIG    1        1.087   2.077   0.005  0.00  0.00    +0.170 A 
ATOM     20  N   LIG    1       -0.017   1.372   0.011  0.00  0.00    -0.460 NA
ATOM     21  C   LIG    1        0.011   0.036   0.004  0.00  0.00    +0.140 A 
ATOM     22  C   LIG    1       -1.181  -0.717   0.012  0.00  0.00    +0.130 A 
ATOM     23  C   LIG    1       -1.116  -2.092   0.005  0.00  0.00    -0.030 A 
ATOM     24  C   LIG    1        0.113  -2.749  -0.010  0.00  0.00    +0.070 A 
ATOM     25  C   LIG    1        1.281  -2.048  -0.018  0.00  0.00    -0.000 A 
ATOM     26 CL   LIG    1        2.800  -2.889  -0.035  0.00  0.00    -0.040 Cl
ATOM     27 CL   LIG    1       -2.583  -3.019   0.015  0.00  0.00    -0.030 Cl
ATOM     28  C   LIG    1        1.254  -0.643  -0.011  0.00  0.00    -0.100 A 
ATOM     29  C   LIG    1        2.443   0.111  -0.018  0.00  0.00    +0.100 A 
ATOM     30  C   LIG    1        2.342   1.473  -0.011  0.00  0.00    -0.010 A 
ENDBRANCH  17  22
ENDBRANCH   1  17
TORSDOF 5
