REMARK  Name = ZINCpe00000bz8If.0
REMARK                            x       y       z     vdW  Elec       q    Type
REMARK                         _______ _______ _______ _____ _____    ______ ____
ROOT
ATOM      1  C   LIG    1        3.577   4.972  -0.041  0.00  0.00    +0.150 C 
ATOM      2  C   LIG    1        3.200   5.388  -1.475  0.00  0.00    +0.310 C 
ATOM      3  N   LIG    1        4.594   5.056  -1.830  0.00  0.00    -0.640 N 
ATOM      4  C   LIG    1        5.217   4.690  -2.967  0.00  0.00    +0.550 C 
ATOM      5  O   LIG    1        6.410   4.474  -2.963  0.00  0.00    -0.530 OA
ATOM      6  C   LIG    1        5.030   5.286  -0.439  0.00  0.00    +0.310 C 
ENDROOT
BRANCH   4   7
ATOM      7  C   LIG    1        4.431   4.549  -4.245  0.00  0.00    +0.000 C 
ATOM      8  C   LIG    1        5.353   4.121  -5.415  0.00  0.00    +0.070 C 
ATOM      9  C   LIG    1        4.394   3.424  -6.402  0.00  0.00    +0.010 C 
ATOM     10  C   LIG    1        3.198   2.959  -5.598  0.00  0.00    +0.370 C 
ATOM     11  O   LIG    1        2.231   2.376  -6.026  0.00  0.00    -0.440 OA
ATOM     12  C   LIG    1        3.440   3.361  -4.154  0.00  0.00    +0.040 C 
ENDBRANCH   4   7
BRANCH   1  14
ATOM     13  C   LIG    1        4.076   2.921   1.175  0.00  0.00    +0.600 C 
ATOM     14  N   LIG    1        3.336   3.556   0.244  0.00  0.00    -0.690 N 
ATOM     15  H   LIG    1        2.644   3.075  -0.236  0.00  0.00    +0.410 HD
ATOM     16  O   LIG    1        4.881   3.544   1.841  0.00  0.00    -0.540 OA
BRANCH  13  22
ATOM     17  N   LIG    1        4.522   0.723   2.359  0.00  0.00    -0.400 N 
ATOM     18  C   LIG    1        4.117  -0.565   2.227  0.00  0.00    +0.220 A 
ATOM     19  C   LIG    1        3.257  -0.649   1.183  0.00  0.00    -0.120 A 
ATOM     20  C   LIG    1        3.116   0.633   0.640  0.00  0.00    +0.020 A 
ATOM     21 CL   LIG    1        2.470  -2.090   0.620  0.00  0.00    -0.040 Cl
ATOM     22  C   LIG    1        3.911   1.478   1.384  0.00  0.00    -0.040 A 
BRANCH  17  24
ATOM     23  C   LIG    1        4.668   1.876   4.511  0.00  0.00    +0.050 C 
ATOM     24  C   LIG    1        5.454   1.226   3.371  0.00  0.00    +0.300 C 
ENDBRANCH  17  24
ENDBRANCH  13  22
ENDBRANCH   1  14
BRANCH   1  25
ATOM     25  C   LIG    1        3.019   5.902   1.039  0.00  0.00    +0.200 C 
BRANCH  25  26
ATOM     26  O   LIG    1        1.618   5.667   1.192  0.00  0.00    -0.570 OA
ATOM     27  H   LIG    1        1.197   6.223   1.862  0.00  0.00    +0.390 HD
ENDBRANCH  25  26
ENDBRANCH   1  25
TORSDOF 6
