REMARK  Name = ZINCrD0000075RIM.0
REMARK                            x       y       z     vdW  Elec       q    Type
REMARK                         _______ _______ _______ _____ _____    ______ ____
ROOT
ATOM      1  C   LIG    1        0.053   7.784   0.016  0.00  0.00    +0.240 C 
ENDROOT
BRANCH   1   2
ATOM      2  C   LIG    1       -1.189   8.444   0.555  0.00  0.00    +0.530 C 
ATOM      3  N   LIG    1       -1.156   9.739   0.928  0.00  0.00    -0.600 N 
ATOM      4  C   LIG    1        0.058  10.543   0.734  0.00  0.00    +0.260 C 
ATOM      5  C   LIG    1       -0.316  11.811  -0.049  0.00  0.00    +0.020 C 
ATOM      6  C   LIG    1       -1.444  12.542   0.684  0.00  0.00    +0.020 C 
ATOM      7  C   LIG    1       -2.677  11.639   0.756  0.00  0.00    +0.010 C 
ATOM      8  C   LIG    1       -2.331  10.371   1.543  0.00  0.00    +0.280 C 
ATOM      9  O   LIG    1       -2.219   7.811   0.654  0.00  0.00    -0.510 OA
ENDBRANCH   1   2
BRANCH   1  10
ATOM     10  C   LIG    1        0.209   8.122  -1.444  0.00  0.00    -0.120 A 
ATOM     11  C   LIG    1       -0.623   7.539  -2.381  0.00  0.00    +0.040 A 
ATOM     12  C   LIG    1       -0.484   7.853  -3.720  0.00  0.00    +0.010 A 
ATOM     13  C   LIG    1        0.494   8.743  -4.123  0.00  0.00    +0.030 A 
ATOM     14  C   LIG    1        1.330   9.322  -3.187  0.00  0.00    +0.010 A 
ATOM     15  C   LIG    1        1.188   9.011  -1.847  0.00  0.00    +0.030 A 
ENDBRANCH   1  10
BRANCH   1  16
ATOM     16  O   LIG    1       -0.058   6.344   0.170  0.00  0.00    -0.320 OA
BRANCH  16  18
ATOM     17  O   LIG    1        2.151   6.244   0.365  0.00  0.00    -0.500 OA
ATOM     18  C   LIG    1        1.088   5.657   0.343  0.00  0.00    +0.520 C 
BRANCH  18  19
ATOM     19  C   LIG    1        1.051   4.191   0.506  0.00  0.00    -0.120 A 
ATOM     20  C   LIG    1       -0.171   3.514   0.481  0.00  0.00    +0.120 A 
ATOM     21  C   LIG    1       -0.202   2.144   0.628  0.00  0.00    +0.040 A 
ATOM     22  C   LIG    1        0.976   1.434   0.812  0.00  0.00    +0.080 A 
ATOM     23  O   LIG    1        1.208   0.101   0.982  0.00  0.00    -0.300 OA
ATOM     24  C   LIG    1        2.539   0.006   1.521  0.00  0.00    +0.440 C 
ATOM     25  O   LIG    1        3.195   1.188   1.025  0.00  0.00    -0.300 OA
ATOM     26  C   LIG    1        2.200   2.104   0.838  0.00  0.00    +0.020 A 
ATOM     27  C   LIG    1        2.239   3.476   0.686  0.00  0.00    +0.120 A 
ENDBRANCH  18  19
ENDBRANCH  16  18
ENDBRANCH   1  16
TORSDOF 5
