REMARK  Name = ZINCrH000004rnzH.0
REMARK                            x       y       z     vdW  Elec       q    Type
REMARK                         _______ _______ _______ _____ _____    ______ ____
ROOT
ATOM      1  C   LIG    1       -1.420   7.650  -0.373  0.00  0.00    -0.170 A 
ATOM      2  C   LIG    1       -1.476   8.253  -1.589  0.00  0.00    +0.190 A 
ATOM      3  N   LIG    1       -1.479   9.615  -1.657  0.00  0.00    -0.260 N 
ATOM      4  N   LIG    1       -1.532  10.493  -2.747  0.00  0.00    -0.340 NA
ATOM      5  C   LIG    1       -1.503  11.746  -2.304  0.00  0.00    +0.140 A 
ATOM      6  C   LIG    1       -1.532  12.996  -2.955  0.00  0.00    +0.000 A 
ATOM      7  C   LIG    1       -1.488  14.141  -2.222  0.00  0.00    +0.070 A 
ATOM      8  C   LIG    1       -1.415  14.100  -0.830  0.00  0.00    -0.040 A 
ATOM      9  C   LIG    1       -1.385  12.912  -0.166  0.00  0.00    +0.110 A 
ATOM     10  C   LIG    1       -1.429  11.710  -0.886  0.00  0.00    -0.190 A 
ATOM     11  C   LIG    1       -1.415  10.350  -0.508  0.00  0.00    +0.290 A 
ATOM     12  N   LIG    1       -1.355   9.752   0.681  0.00  0.00    -0.460 NA
ATOM     13  C   LIG    1       -1.540   7.427  -2.848  0.00  0.00    +0.170 C 
ATOM     14  C   LIG    1       -1.355   8.440   0.780  0.00  0.00    +0.210 A 
ATOM     15  C   LIG    1       -1.286   7.787   2.136  0.00  0.00    +0.160 C 
ENDROOT
BRANCH   1  16
ATOM     16  C   LIG    1       -1.422   6.147  -0.268  0.00  0.00    +0.150 C 
BRANCH  16  17
ATOM     17  C   LIG    1        0.020   5.640  -0.183  0.00  0.00    +0.060 C 
BRANCH  17  20
ATOM     18  N   LIG    1        1.184   3.466   0.009  0.00  0.00    -0.660 N 
ATOM     19  H   LIG    1        2.020   3.954   0.079  0.00  0.00    +0.420 HD
ATOM     20  C   LIG    1        0.018   4.137  -0.078  0.00  0.00    +0.500 C 
ATOM     21  O   LIG    1       -1.032   3.531  -0.071  0.00  0.00    -0.470 OA
BRANCH  18  26
ATOM     22  C   LIG    1        1.105  -2.155  -0.027  0.00  0.00    +0.100 C 
ATOM     23  C   LIG    1        1.164  -0.650  -0.018  0.00  0.00    -0.170 A 
ATOM     24  C   LIG    1        2.389   0.004  -0.026  0.00  0.00    +0.090 A 
ATOM     25  C   LIG    1        2.398   1.388  -0.017  0.00  0.00    -0.060 A 
ATOM     26  C   LIG    1        1.189   2.072   0.000  0.00  0.00    +0.350 A 
ATOM     27  N   LIG    1        0.041   1.413   0.007  0.00  0.00    -0.470 NA
ATOM     28  C   LIG    1        0.001   0.094  -0.001  0.00  0.00    +0.290 A 
ENDBRANCH  18  26
ENDBRANCH  17  20
ENDBRANCH  16  17
ENDBRANCH   1  16
TORSDOF 4
