REMARK  Name = ZINCrH000004mBxB.0
REMARK                            x       y       z     vdW  Elec       q    Type
REMARK                         _______ _______ _______ _____ _____    ______ ____
ROOT
ATOM      1  N   LIG    1       -1.574   2.170   3.821  0.00  0.00    -0.710 N 
ATOM      2  H   LIG    1       -1.890   2.412   4.705  0.00  0.00    +0.400 HD
ATOM      3  C   LIG    1       -0.481   1.394   3.684  0.00  0.00    +0.580 C 
ATOM      4  O   LIG    1       -0.138   1.015   2.581  0.00  0.00    -0.520 OA
ENDROOT
BRANCH   3   5
ATOM      5  C   LIG    1        0.297   1.005   4.870  0.00  0.00    +0.030 A 
ATOM      6  C   LIG    1       -0.030   1.259   6.187  0.00  0.00    -0.050 A 
ATOM      7  C   LIG    1        0.974   0.718   6.986  0.00  0.00    +0.100 A 
ATOM      8  N   LIG    1        1.878   0.168   6.213  0.00  0.00    -0.250 NA
ATOM      9  N   LIG    1        1.488   0.328   4.878  0.00  0.00    -0.290 N 
BRANCH   9  10
ATOM     10  C   LIG    1        2.189  -0.122   3.752  0.00  0.00    +0.130 A 
ATOM     11  C   LIG    1        2.720  -1.405   3.731  0.00  0.00    +0.030 A 
ATOM     12  C   LIG    1        3.407  -1.848   2.617  0.00  0.00    +0.020 A 
ATOM     13  C   LIG    1        3.575  -1.012   1.529  0.00  0.00    +0.020 A 
ATOM     14  C   LIG    1        3.052   0.268   1.550  0.00  0.00    +0.020 A 
ATOM     15  C   LIG    1        2.360   0.715   2.658  0.00  0.00    +0.060 A 
ENDBRANCH   9  10
BRANCH   7  16
ATOM     16  C   LIG    1        1.016   0.762   8.491  0.00  0.00    +0.030 C 
ATOM     17  C   LIG    1        0.094   1.759   9.195  0.00  0.00    +0.040 C 
ATOM     18  C   LIG    1        1.602   2.015   9.145  0.00  0.00    +0.040 C 
ENDBRANCH   7  16
ENDBRANCH   3   5
BRANCH   1  19
ATOM     19  C   LIG    1       -2.286   2.648   2.632  0.00  0.00    +0.280 C 
BRANCH  19  20
ATOM     20  C   LIG    1       -3.481   3.501   3.062  0.00  0.00    +0.070 C 
BRANCH  20  24
ATOM     21  C   LIG    1       -5.556   4.896  -0.403  0.00  0.00    +0.130 A 
ATOM     22  C   LIG    1       -5.912   3.689   0.181  0.00  0.00    -0.020 A 
ATOM     23  C   LIG    1       -5.239   3.240   1.301  0.00  0.00    +0.060 A 
ATOM     24  C   LIG    1       -4.213   3.993   1.840  0.00  0.00    -0.120 A 
ATOM     25  C   LIG    1       -3.860   5.199   1.263  0.00  0.00    +0.060 A 
ATOM     26  C   LIG    1       -4.526   5.649   0.140  0.00  0.00    -0.080 A 
BRANCH  21  28
ATOM     27  C   LIG    1       -5.797   6.590  -2.053  0.00  0.00    +0.250 C 
ATOM     28  O   LIG    1       -6.217   5.339  -1.504  0.00  0.00    -0.320 OA
ENDBRANCH  21  28
ENDBRANCH  20  24
ENDBRANCH  19  20
ENDBRANCH   1  19
TORSDOF 7
