REMARK  Name = ZINCkj000005lq8Z.0
REMARK                            x       y       z     vdW  Elec       q    Type
REMARK                         _______ _______ _______ _____ _____    ______ ____
ROOT
ATOM      1  S   LIG    1       -0.017   1.417   0.010  0.00  0.00    +2.690 S 
ATOM      2  O   LIG    1        1.145   2.225  -0.114  0.00  0.00    -0.950 OA
ATOM      3  O   LIG    1        0.023  -0.004   0.032  0.00  0.00    -0.930 OA
ENDROOT
BRANCH   1   4
ATOM      4  C   LIG    1       -0.814   1.915   1.500  0.00  0.00    -0.690 A 
ATOM      5  C   LIG    1       -0.281   2.910   2.264  0.00  0.00    +0.180 A 
ATOM      6  C   LIG    1       -0.898   3.317   3.446  0.00  0.00    -0.020 A 
ATOM      7  C   LIG    1       -2.051   2.733   3.874  0.00  0.00    +0.140 A 
ATOM      8  C   LIG    1       -2.630   1.705   3.113  0.00  0.00    -0.140 A 
ATOM      9  C   LIG    1       -3.817   1.066   3.505  0.00  0.00    +0.340 A 
ATOM     10  N   LIG    1       -4.321   0.109   2.761  0.00  0.00    -0.490 NA
ATOM     11  C   LIG    1       -3.754  -0.296   1.633  0.00  0.00    +0.280 A 
ATOM     12  C   LIG    1       -2.601   0.259   1.167  0.00  0.00    -0.060 A 
ATOM     13  C   LIG    1       -2.004   1.296   1.907  0.00  0.00    +0.060 A 
ENDBRANCH   1   4
BRANCH   1  18
ATOM     14  C   LIG    1       -0.782   3.150  -3.287  0.00  0.00    +0.160 C 
ATOM     15  C   LIG    1       -1.826   2.230  -3.924  0.00  0.00    +0.050 C 
ATOM     16  C   LIG    1       -1.676   0.816  -3.359  0.00  0.00    +0.060 C 
ATOM     17  C   LIG    1       -1.913   0.846  -1.850  0.00  0.00    +0.310 C 
ATOM     18  N   LIG    1       -1.015   1.837  -1.243  0.00  0.00    -0.990 NA
ATOM     19  C   LIG    1       -1.014   3.207  -1.774  0.00  0.00    +0.310 C 
BRANCH  14  20
ATOM     20  N   LIG    1       -0.907   4.499  -3.854  0.00  0.00    -0.630 N 
ATOM     21  H   LIG    1       -1.831   4.858  -3.669  0.00  0.00    +0.430 HD
ATOM     22  H   LIG    1       -0.754   4.461  -4.851  0.00  0.00    +0.440 HD
ATOM     23  H   LIG    1       -0.220   5.106  -3.432  0.00  0.00    +0.440 HD
ENDBRANCH  14  20
ENDBRANCH   1  18
TORSDOF 3
