REMARK  Name = ZINCqH00000648eW.0
REMARK                            x       y       z     vdW  Elec       q    Type
REMARK                         _______ _______ _______ _____ _____    ______ ____
ROOT
ATOM      1  C   LIG    1       -0.802   1.593   1.029  0.00  0.00    +0.010 C 
ATOM      2  C   LIG    1        0.025   1.062  -0.143  0.00  0.00    +0.330 C 
ATOM      3  N   LIG    1       -0.524   1.565  -1.404  0.00  0.00    -0.560 N 
ATOM      4  C   LIG    1       -1.913   1.580  -1.569  0.00  0.00    +0.050 A 
ATOM      5  C   LIG    1       -2.548   0.688  -2.415  0.00  0.00    +0.300 A 
ATOM      6  N   LIG    1       -3.864   0.702  -2.534  0.00  0.00    -0.470 NA
ATOM      7  C   LIG    1       -4.621   1.550  -1.865  0.00  0.00    +0.300 A 
ATOM      8  C   LIG    1       -4.063   2.482  -1.008  0.00  0.00    -0.030 A 
ATOM      9  C   LIG    1       -2.683   2.510  -0.863  0.00  0.00    +0.190 A 
ATOM     10  N   LIG    1       -2.048   3.447  -0.051  0.00  0.00    -0.680 N 
ATOM     11  H   LIG    1       -2.282   4.386  -0.122  0.00  0.00    +0.420 HD
ATOM     12  C   LIG    1        0.291   2.004  -2.384  0.00  0.00    +0.570 C 
ATOM     13  O   LIG    1        1.491   2.058  -2.198  0.00  0.00    -0.500 OA
ATOM     14  C   LIG    1       -1.105   3.054   0.837  0.00  0.00    +0.540 C 
ATOM     15  O   LIG    1       -0.500   3.885   1.480  0.00  0.00    -0.510 OA
ENDROOT
BRANCH  12  16
ATOM     16  C   LIG    1       -0.275   2.419  -3.685  0.00  0.00    -0.080 A 
ATOM     17  C   LIG    1        0.426   2.171  -4.866  0.00  0.00    +0.080 A 
ATOM     18  C   LIG    1       -0.108   2.557  -6.078  0.00  0.00    +0.090 A 
ATOM     19  C   LIG    1       -1.332   3.198  -6.125  0.00  0.00    -0.180 A 
ATOM     20  C   LIG    1       -2.033   3.453  -4.957  0.00  0.00    +0.140 A 
ATOM     21  F   LIG    1       -3.228   4.080  -5.010  0.00  0.00    -0.120 F 
ATOM     22  C   LIG    1       -1.510   3.067  -3.737  0.00  0.00    +0.010 A 
BRANCH  19  23
ATOM     23  C   LIG    1       -1.907   3.622  -7.452  0.00  0.00    +0.440 C 
ATOM     24  F   LIG    1       -2.088   5.009  -7.461  0.00  0.00    -0.190 F 
ATOM     25  F   LIG    1       -3.139   2.990  -7.650  0.00  0.00    -0.190 F 
ENDBRANCH  19  23
ENDBRANCH  12  16
BRANCH   1  27
ATOM     26  C   LIG    1       -1.818  -0.637   1.517  0.00  0.00    +0.030 C 
ATOM     27  C   LIG    1       -2.114   0.810   1.118  0.00  0.00    +0.010 C 
ENDBRANCH   1  27
TORSDOF 3
