REMARK  Name = ZINCtV00000L6jN1.0
REMARK                            x       y       z     vdW  Elec       q    Type
REMARK                         _______ _______ _______ _____ _____    ______ ____
ROOT
ATOM      1  C   LIG    1        3.554   2.060  -0.021  0.00  0.00    -0.110 A 
ATOM      2  C   LIG    1        3.354   3.427  -0.012  0.00  0.00    +0.120 A 
ATOM      3  C   LIG    1        4.440   4.285  -0.017  0.00  0.00    -0.120 A 
ATOM      4  C   LIG    1        5.726   3.776  -0.030  0.00  0.00    +0.100 A 
ATOM      5  C   LIG    1        5.930   2.408  -0.038  0.00  0.00    -0.190 A 
ATOM      6  C   LIG    1        7.336   1.864  -0.048  0.00  0.00    +0.300 C 
ATOM      7  O   LIG    1        7.307   0.485  -0.428  0.00  0.00    -0.370 OA
ATOM      8  C   LIG    1        6.334  -0.276   0.297  0.00  0.00    +0.390 C 
ATOM      9  O   LIG    1        5.030   0.200  -0.051  0.00  0.00    -0.320 OA
ATOM     10 BR   LIG    1        4.165   6.156  -0.007  0.00  0.00    -0.040 Br
ATOM     11  C   LIG    1        4.844   1.547  -0.030  0.00  0.00    +0.160 A 
ENDROOT
BRANCH   8  12
ATOM     12  C   LIG    1        6.455  -1.732  -0.070  0.00  0.00    -0.100 A 
ATOM     13  C   LIG    1        5.379  -2.396  -0.629  0.00  0.00    +0.050 A 
ATOM     14  C   LIG    1        5.492  -3.731  -0.971  0.00  0.00    +0.010 A 
ATOM     15  C   LIG    1        6.677  -4.405  -0.742  0.00  0.00    +0.030 A 
ATOM     16  C   LIG    1        7.751  -3.743  -0.178  0.00  0.00    +0.010 A 
ATOM     17  C   LIG    1        7.640  -2.406   0.158  0.00  0.00    +0.040 A 
ENDBRANCH   8  12
BRANCH   1  18
ATOM     18  C   LIG    1        2.372   1.126  -0.015  0.00  0.00    +0.300 C 
BRANCH  18  19
ATOM     19  O   LIG    1        1.143   1.900   0.001  0.00  0.00    -0.340 OA
BRANCH  19  21
ATOM     20  O   LIG    1        0.002  -0.004   0.002  0.00  0.00    -0.470 OA
ATOM     21  C   LIG    1       -0.014   1.211   0.009  0.00  0.00    +0.520 C 
BRANCH  21  22
ATOM     22  C   LIG    1       -1.302   1.931   0.019  0.00  0.00    -0.140 A 
ATOM     23  C   LIG    1       -1.918   2.286  -1.186  0.00  0.00    +0.150 A 
ATOM     24  C   LIG    1       -3.128   2.956  -1.167  0.00  0.00    +0.010 A 
ATOM     25  C   LIG    1       -3.721   3.285   0.038  0.00  0.00    +0.100 A 
ATOM     26  C   LIG    1       -3.114   2.942   1.233  0.00  0.00    +0.030 A 
ATOM     27  F   LIG    1       -1.337   1.970  -2.364  0.00  0.00    -0.120 F 
ATOM     28  C   LIG    1       -1.909   2.268   1.232  0.00  0.00    +0.020 A 
ATOM     29 CL   LIG    1       -1.151   1.838   2.734  0.00  0.00    -0.030 Cl
ENDBRANCH  21  22
ENDBRANCH  19  21
ENDBRANCH  18  19
ENDBRANCH   1  18
TORSDOF 5
