REMARK  Name = ZINCpe00000zaE64.0
REMARK                            x       y       z     vdW  Elec       q    Type
REMARK                         _______ _______ _______ _____ _____    ______ ____
ROOT
ATOM      1  C   LIG    1       -2.796   0.879  -3.573  0.00  0.00    +0.580 C 
ATOM      2  N   LIG    1       -2.897   1.548  -2.408  0.00  0.00    -0.710 N 
ATOM      3  H   LIG    1       -3.438   2.351  -2.354  0.00  0.00    +0.410 HD
ATOM      4  O   LIG    1       -2.117  -0.127  -3.640  0.00  0.00    -0.540 OA
ENDROOT
BRANCH   1   9
ATOM      5  C   LIG    1       -3.566  -0.466  -9.033  0.00  0.00    +0.180 C 
ATOM      6  C   LIG    1       -4.209   0.742  -8.403  0.00  0.00    +0.140 A 
ATOM      7  C   LIG    1       -4.076   1.141  -7.088  0.00  0.00    -0.210 A 
ATOM      8  C   LIG    1       -3.386   0.669  -5.954  0.00  0.00    +0.160 A 
ATOM      9  C   LIG    1       -3.510   1.368  -4.769  0.00  0.00    -0.010 A 
ATOM     10  N   LIG    1       -4.252   2.479  -4.672  0.00  0.00    -0.440 NA
ATOM     11  C   LIG    1       -4.918   2.989  -5.671  0.00  0.00    +0.340 A 
ATOM     12  C   LIG    1       -4.882   2.368  -6.940  0.00  0.00    +0.060 A 
ATOM     13  N   LIG    1       -5.419   2.611  -8.117  0.00  0.00    -0.270 NA
ATOM     14  N   LIG    1       -5.012   1.620  -9.019  0.00  0.00    -0.410 N 
ATOM     15  H   LIG    1       -5.273   1.576  -9.952  0.00  0.00    +0.450 HD
ENDBRANCH   1   9
BRANCH   2  16
ATOM     16  C   LIG    1       -2.188   1.063  -1.221  0.00  0.00    +0.250 C 
ATOM     17  C   LIG    1       -0.753   1.593  -1.232  0.00  0.00    +0.000 C 
ATOM     18  C   LIG    1       -0.013   1.086   0.008  0.00  0.00    +0.020 C 
ATOM     19  C   LIG    1       -0.729   1.579   1.267  0.00  0.00    +0.010 C 
ATOM     20  C   LIG    1       -2.164   1.050   1.278  0.00  0.00    +0.030 C 
ATOM     21  C   LIG    1       -2.904   1.556   0.038  0.00  0.00    +0.240 C 
BRANCH  21  22
ATOM     22  N   LIG    1       -2.924   3.021   0.046  0.00  0.00    -0.720 N 
ATOM     23  H   LIG    1       -2.247   3.518  -0.439  0.00  0.00    +0.400 HD
ATOM     24  C   LIG    1       -3.883   3.679   0.728  0.00  0.00    +0.520 C 
ATOM     25  O   LIG    1       -4.729   3.057   1.336  0.00  0.00    -0.510 OA
BRANCH  24  26
ATOM     26  C   LIG    1       -3.903   5.185   0.737  0.00  0.00    +0.170 C 
ATOM     27  C   LIG    1       -4.174   5.699  -0.679  0.00  0.00    +0.030 C 
BRANCH  26  28
ATOM     28  O   LIG    1       -4.933   5.643   1.615  0.00  0.00    -0.540 OA
ATOM     29  H   LIG    1       -5.005   6.606   1.670  0.00  0.00    +0.390 HD
ENDBRANCH  26  28
ENDBRANCH  24  26
ENDBRANCH  21  22
ENDBRANCH   2  16
TORSDOF 5
