REMARK  Name = ZINCpe000000TUWZ.0
REMARK                            x       y       z     vdW  Elec       q    Type
REMARK                         _______ _______ _______ _____ _____    ______ ____
ROOT
ATOM      1  C   LIG    1       -5.195  -1.472   6.567  0.00  0.00    +0.170 C 
ATOM      2  C   LIG    1       -5.272  -0.260   7.512  0.00  0.00    -0.010 C 
ATOM      3  C   LIG    1       -5.882   0.521   6.335  0.00  0.00    +0.170 C 
ATOM      4  C   LIG    1       -5.157  -0.465   5.411  0.00  0.00    -0.060 C 
ATOM      5  C   LIG    1       -5.989  -0.892   4.203  0.00  0.00    +0.050 C 
ATOM      6  C   LIG    1       -6.062   0.272   3.208  0.00  0.00    +0.270 C 
ATOM      7  N   LIG    1       -4.699   0.735   2.920  0.00  0.00    -0.620 N 
ATOM      8  C   LIG    1       -3.830   1.133   4.036  0.00  0.00    +0.300 C 
ATOM      9  C   LIG    1       -4.249   0.789   1.651  0.00  0.00    +0.710 C 
ATOM     10  N   LIG    1       -5.083   0.518   0.628  0.00  0.00    -0.750 N 
ATOM     11  H   LIG    1       -5.987   0.214   0.807  0.00  0.00    +0.400 HD
ATOM     12  O   LIG    1       -3.090   1.082   1.428  0.00  0.00    -0.590 OA
ATOM     13  C   LIG    1       -3.744  -0.021   5.035  0.00  0.00    +0.060 C 
ENDROOT
BRANCH   3  14
ATOM     14  O   LIG    1       -7.307   0.431   6.263  0.00  0.00    -0.550 OA
ATOM     15  H   LIG    1       -7.769   1.051   6.844  0.00  0.00    +0.380 HD
ENDBRANCH   3  14
BRANCH   1  16
ATOM     16  O   LIG    1       -3.992  -2.231   6.706  0.00  0.00    -0.370 OA
BRANCH  16  18
ATOM     17  C   LIG    1       -2.842  -4.258   7.346  0.00  0.00    +0.040 C 
ATOM     18  C   LIG    1       -4.189  -3.541   7.242  0.00  0.00    +0.160 C 
ENDBRANCH  16  18
ENDBRANCH   1  16
BRANCH  10  19
ATOM     19  C   LIG    1       -4.626   0.682  -0.754  0.00  0.00    +0.420 C 
BRANCH  19  20
ATOM     20  C   LIG    1       -5.741   0.317  -1.699  0.00  0.00    -0.000 A 
ATOM     21  C   LIG    1       -6.672   1.167  -2.184  0.00  0.00    -0.030 A 
ATOM     22  C   LIG    1       -7.512   0.424  -3.028  0.00  0.00    +0.050 A 
ATOM     23  C   LIG    1       -7.049  -0.861  -3.010  0.00  0.00    -0.070 A 
ATOM     24  O   LIG    1       -5.975  -0.905  -2.195  0.00  0.00    -0.160 OA
BRANCH  23  25
ATOM     25  C   LIG    1       -7.619  -1.993  -3.748  0.00  0.00    +0.610 C 
ATOM     26  O   LIG    1       -8.595  -1.829  -4.455  0.00  0.00    -0.520 OA
ATOM     27  N   LIG    1       -7.061  -3.215  -3.642  0.00  0.00    -0.840 N 
ATOM     28  H   LIG    1       -7.438  -3.964  -4.129  0.00  0.00    +0.410 HD
ATOM     29  H   LIG    1       -6.283  -3.346  -3.077  0.00  0.00    +0.410 HD
ENDBRANCH  23  25
ENDBRANCH  19  20
ENDBRANCH  10  19
TORSDOF 6
