REMARK  Name = ZINCpe00000c3nBF.0
REMARK                            x       y       z     vdW  Elec       q    Type
REMARK                         _______ _______ _______ _____ _____    ______ ____
ROOT
ATOM      1  C   LIG    1        5.999   2.568  -2.180  0.00  0.00    +0.530 C 
ATOM      2  N   LIG    1        5.382   1.849  -1.222  0.00  0.00    -0.720 N 
ATOM      3  H   LIG    1        5.906   1.398  -0.541  0.00  0.00    +0.410 HD
ATOM      4  O   LIG    1        5.344   3.132  -3.031  0.00  0.00    -0.530 OA
ENDROOT
BRANCH   1  13
ATOM      5  C   LIG    1        7.576   3.391   2.749  0.00  0.00    +0.180 C 
ATOM      6  C   LIG    1        7.999   3.612   1.320  0.00  0.00    +0.050 A 
ATOM      7  N   LIG    1        7.504   3.001   0.301  0.00  0.00    -0.480 NA
ATOM      8  C   LIG    1        7.982   3.305  -0.897  0.00  0.00    +0.060 A 
ATOM      9  C   LIG    1        8.948   4.242  -0.859  0.00  0.00    -0.210 A 
ATOM     10  C   LIG    1        9.679   4.788  -2.062  0.00  0.00    +0.120 C 
ATOM     11  C   LIG    1        9.444   3.844  -3.246  0.00  0.00    +0.030 C 
ATOM     12  C   LIG    1        7.944   3.555  -3.364  0.00  0.00    +0.060 C 
ATOM     13  C   LIG    1        7.502   2.673  -2.194  0.00  0.00    +0.100 C 
ATOM     14  S   LIG    1        9.207   4.712   0.816  0.00  0.00    +0.140 S 
ENDBRANCH   1  13
BRANCH   2  15
ATOM     15  C   LIG    1        3.921   1.747  -1.208  0.00  0.00    +0.280 C 
BRANCH  15  16
ATOM     16  C   LIG    1        3.481   0.880  -0.027  0.00  0.00    +0.340 C 
BRANCH  16  17
ATOM     17  N   LIG    1        2.020   0.778  -0.013  0.00  0.00    -0.290 N 
ATOM     18  C   LIG    1        1.305  -0.371  -0.012  0.00  0.00    +0.180 A 
ATOM     19  C   LIG    1        0.002  -0.004   0.002  0.00  0.00    -0.030 A 
ATOM     20  N   LIG    1       -0.016   1.333   0.009  0.00  0.00    -0.240 NA
ATOM     21  N   LIG    1        1.195   1.766   0.000  0.00  0.00    -0.070 NA
BRANCH  19  22
ATOM     22  C   LIG    1       -1.193  -0.922   0.009  0.00  0.00    -0.220 C 
BRANCH  22  23
ATOM     23  S   LIG    1       -1.689  -1.282  -1.698  0.00  0.00    +2.420 S 
ATOM     24  O   LIG    1       -0.650  -2.022  -2.325  0.00  0.00    -0.930 OA
ATOM     25  O   LIG    1       -2.144  -0.078  -2.301  0.00  0.00    -0.920 OA
ATOM     26  C   LIG    1       -3.113  -2.379  -1.452  0.00  0.00    -0.270 C 
ENDBRANCH  22  23
ENDBRANCH  19  22
ENDBRANCH  16  17
ENDBRANCH  15  16
ENDBRANCH   2  15
TORSDOF 6
