REMARK  Name = ZINCrg000000ouNa.0
REMARK                            x       y       z     vdW  Elec       q    Type
REMARK                         _______ _______ _______ _____ _____    ______ ____
ROOT
ATOM      1  C   LIG    1        1.246  -1.146   3.658  0.00  0.00    -0.150 A 
ATOM      2  C   LIG    1        0.042  -1.371   4.327  0.00  0.00    +0.110 A 
ATOM      3  C   LIG    1       -1.155  -1.176   3.671  0.00  0.00    +0.000 A 
ATOM      4  C   LIG    1       -1.165  -0.759   2.352  0.00  0.00    +0.160 A 
ATOM      5  C   LIG    1        0.025  -0.535   1.682  0.00  0.00    -0.690 A 
ATOM      6  C   LIG    1        1.230  -0.731   2.325  0.00  0.00    +0.200 A 
ENDROOT
BRANCH   1   9
ATOM      7  N   LIG    1        2.546  -1.758   5.641  0.00  0.00    -0.710 N 
ATOM      8  H   LIG    1        1.710  -1.915   6.108  0.00  0.00    +0.410 HD
ATOM      9  C   LIG    1        2.533  -1.352   4.356  0.00  0.00    +0.570 C 
ATOM     10  O   LIG    1        3.580  -1.156   3.770  0.00  0.00    -0.520 OA
BRANCH   7  11
ATOM     11  C   LIG    1        3.821  -1.962   6.332  0.00  0.00    +0.290 C 
BRANCH  11  12
ATOM     12  C   LIG    1        4.312  -0.630   6.901  0.00  0.00    +0.000 C 
ATOM     13  C   LIG    1        4.505   0.372   5.761  0.00  0.00    +0.040 C 
BRANCH  12  15
ATOM     14  C   LIG    1        3.823   1.182   8.551  0.00  0.00    +0.030 C 
ATOM     15  C   LIG    1        3.278  -0.085   7.889  0.00  0.00    +0.000 C 
ENDBRANCH  12  15
ENDBRANCH  11  12
BRANCH  11  16
ATOM     16  C   LIG    1        3.631  -2.949   7.455  0.00  0.00    +0.460 C 
ATOM     17  O   LIG    1        2.542  -3.432   7.657  0.00  0.00    -0.500 OA
BRANCH  16  18
ATOM     18  O   LIG    1        4.672  -3.291   8.231  0.00  0.00    -0.350 OA
ATOM     19  C   LIG    1        4.416  -4.247   9.293  0.00  0.00    +0.280 C 
ENDBRANCH  16  18
ENDBRANCH  11  16
ENDBRANCH   7  11
ENDBRANCH   1   9
BRANCH   5  20
ATOM     20  S   LIG    1        0.002  -0.004   0.002  0.00  0.00    +2.690 S 
ATOM     21  O   LIG    1        1.252  -0.385  -0.556  0.00  0.00    -0.940 OA
ATOM     22  O   LIG    1       -1.247  -0.419  -0.533  0.00  0.00    -0.950 OA
BRANCH  20  23
ATOM     23  N   LIG    1       -0.020   1.652   0.011  0.00  0.00    -1.000 NA
ATOM     24  C   LIG    1       -1.292   2.392   0.021  0.00  0.00    +0.270 C 
ATOM     25  C   LIG    1       -1.234   3.429   1.155  0.00  0.00    +0.220 C 
ATOM     26  O   LIG    1       -0.046   4.211   1.014  0.00  0.00    -0.370 OA
ATOM     27  C   LIG    1        1.166   3.461   1.132  0.00  0.00    +0.220 C 
ATOM     28  C   LIG    1        1.231   2.426   0.003  0.00  0.00    +0.270 C 
ENDBRANCH  20  23
ENDBRANCH   5  20
TORSDOF 8
