REMARK  Name = ZINCtV00001bB3g4.0
REMARK                            x       y       z     vdW  Elec       q    Type
REMARK                         _______ _______ _______ _____ _____    ______ ____
ROOT
ATOM      1  O   LIG    1        2.099   4.206  -0.887  0.00  0.00    -0.480 OA
ATOM      2  C   LIG    1        1.079   3.577  -0.676  0.00  0.00    +0.570 C 
ATOM      3  C   LIG    1        1.166   2.145  -0.363  0.00  0.00    -0.160 A 
ATOM      4  C   LIG    1        2.395   1.488  -0.302  0.00  0.00    +0.110 A 
ATOM      5  C   LIG    1        2.434   0.142  -0.005  0.00  0.00    -0.010 A 
ATOM      6  C   LIG    1        1.266  -0.566   0.233  0.00  0.00    +0.060 A 
ATOM      7  C   LIG    1        0.040   0.066   0.177  0.00  0.00    -0.010 A 
ATOM      8  C   LIG    1       -0.021   1.422  -0.120  0.00  0.00    +0.040 A 
ATOM      9  C   LIG    1       -1.306   2.147  -0.187  0.00  0.00    -0.290 C 
ATOM     10  C   LIG    1       -1.274   3.578  -0.512  0.00  0.00    +0.580 C 
ATOM     11  O   LIG    1       -2.316   4.204  -0.579  0.00  0.00    -0.520 OA
ATOM     12  C   LIG    1       -2.499   1.499   0.046  0.00  0.00    +0.430 C 
ATOM     13  N   LIG    1       -0.107   4.204  -0.733  0.00  0.00    -0.510 N 
ENDROOT
BRANCH  13  14
ATOM     14  C   LIG    1       -0.128   5.572  -1.036  0.00  0.00    +0.130 A 
ATOM     15  C   LIG    1       -0.214   5.991  -2.357  0.00  0.00    +0.050 A 
ATOM     16  C   LIG    1       -0.239   7.340  -2.652  0.00  0.00    +0.030 A 
ATOM     17  C   LIG    1       -0.168   8.274  -1.634  0.00  0.00    +0.050 A 
ATOM     18  C   LIG    1       -0.077   7.861  -0.318  0.00  0.00    +0.040 A 
ATOM     19  C   LIG    1       -0.057   6.512  -0.015  0.00  0.00    -0.020 A 
ATOM     20 CL   LIG    1        0.057   5.994   1.638  0.00  0.00    -0.060 Cl
ENDBRANCH  13  14
BRANCH  12  21
ATOM     21  N   LIG    1       -3.649   2.215   0.169  0.00  0.00    -0.610 N 
ATOM     22  H   LIG    1       -3.619   3.184   0.174  0.00  0.00    +0.430 HD
BRANCH  21  23
ATOM     23  C   LIG    1       -4.875   1.553   0.288  0.00  0.00    +0.170 A 
ATOM     24  C   LIG    1       -6.050   2.283   0.414  0.00  0.00    +0.020 A 
ATOM     25  C   LIG    1       -7.260   1.627   0.531  0.00  0.00    +0.090 A 
ATOM     26  C   LIG    1       -7.303   0.244   0.523  0.00  0.00    -0.060 A 
ATOM     27  C   LIG    1       -6.133  -0.487   0.398  0.00  0.00    +0.010 A 
ATOM     28 CL   LIG    1       -6.190  -2.222   0.389  0.00  0.00    -0.030 Cl
ATOM     29 CL   LIG    1       -8.825  -0.576   0.672  0.00  0.00    -0.040 Cl
ATOM     30  C   LIG    1       -4.920   0.165   0.275  0.00  0.00    +0.000 A 
ENDBRANCH  21  23
ENDBRANCH  12  21
TORSDOF 3
