REMARK  Name = ZINCvU0000000Jk3.0
REMARK                            x       y       z     vdW  Elec       q    Type
REMARK                         _______ _______ _______ _____ _____    ______ ____
ROOT
ATOM      1  O   LIG    1        5.986   6.185  -0.022  0.00  0.00    -0.490 OA
ATOM      2  C   LIG    1        5.395   5.125  -0.022  0.00  0.00    +0.580 C 
ATOM      3  N   LIG    1        4.047   5.105  -0.009  0.00  0.00    -0.460 N 
ATOM      4  N   LIG    1        3.254   3.959  -0.008  0.00  0.00    -0.230 NA
ATOM      5  C   LIG    1        1.985   4.197   0.006  0.00  0.00    +0.180 C 
ATOM      6  C   LIG    1        1.753   5.691   0.010  0.00  0.00    +0.100 C 
ATOM      7  C   LIG    1        3.174   6.289   0.006  0.00  0.00    +0.310 C 
ENDROOT
BRANCH   5   8
ATOM      8  C   LIG    1        0.932   3.177   0.010  0.00  0.00    -0.160 A 
ATOM      9  C   LIG    1        1.140   1.829   0.001  0.00  0.00    +0.070 A 
ATOM     10  C   LIG    1       -0.013   1.076   0.008  0.00  0.00    +0.010 A 
ATOM     11  C   LIG    1       -1.151   1.777   0.017  0.00  0.00    -0.030 A 
ATOM     12  S   LIG    1       -0.797   3.499   0.029  0.00  0.00    +0.160 S 
ENDBRANCH   5   8
BRANCH   7  13
ATOM     13  C   LIG    1        3.392   7.125  -1.229  0.00  0.00    -0.200 A 
ATOM     14  C   LIG    1        3.393   8.458  -1.265  0.00  0.00    +0.030 A 
ATOM     15  C   LIG    1        3.618   9.008  -2.515  0.00  0.00    +0.000 A 
ATOM     16  C   LIG    1        3.790   8.121  -3.497  0.00  0.00    -0.030 A 
ATOM     17  S   LIG    1        3.675   6.491  -2.845  0.00  0.00    +0.110 S 
ENDBRANCH   7  13
BRANCH   2  18
ATOM     18  C   LIG    1        6.168   3.832  -0.037  0.00  0.00    +0.130 C 
BRANCH  18  19
ATOM     19  S   LIG    1        7.946   4.191  -0.052  0.00  0.00    +0.090 S 
BRANCH  19  20
ATOM     20  C   LIG    1        8.674   2.586  -0.069  0.00  0.00    +0.210 A 
ATOM     21  N   LIG    1        8.024   1.451  -0.070  0.00  0.00    -0.290 NA
ATOM     22  N   LIG    1        8.964   0.413  -0.086  0.00  0.00    -0.260 NA
ATOM     23  C   LIG    1       10.156   0.958  -0.094  0.00  0.00    +0.180 A 
ATOM     24  S   LIG    1       11.887   0.598  -0.113  0.00  0.00    +0.200 S 
ATOM     25  C   LIG    1       12.390   2.293  -0.107  0.00  0.00    -0.140 A 
ATOM     26  C   LIG    1       13.639   2.892  -0.117  0.00  0.00    +0.100 A 
ATOM     27  C   LIG    1       13.742   4.269  -0.109  0.00  0.00    +0.050 A 
ATOM     28  C   LIG    1       12.590   5.038  -0.092  0.00  0.00    +0.070 A 
ATOM     29  C   LIG    1       11.348   4.446  -0.084  0.00  0.00    +0.050 A 
ATOM     30  C   LIG    1       11.222   3.049  -0.091  0.00  0.00    +0.100 A 
ATOM     31  N   LIG    1       10.031   2.312  -0.089  0.00  0.00    -0.440 N 
ENDBRANCH  19  20
ENDBRANCH  18  19
ENDBRANCH   2  18
TORSDOF 5
