REMARK  Name = ZINCrD00000hQ7mY.0
REMARK                            x       y       z     vdW  Elec       q    Type
REMARK                         _______ _______ _______ _____ _____    ______ ____
ROOT
ATOM      1  O   LIG    1        2.199   1.558  -0.011  0.00  0.00    -0.530 OA
ATOM      2  C   LIG    1        1.140   2.151   0.003  0.00  0.00    +0.530 C 
ATOM      3  N   LIG    1       -0.018   1.461   0.010  0.00  0.00    -0.730 N 
ATOM      4  H   LIG    1       -0.864   1.934   0.017  0.00  0.00    +0.400 HD
ENDROOT
BRANCH   3   5
ATOM      5  C   LIG    1        0.002  -0.004   0.002  0.00  0.00    +0.240 C 
ATOM      6  C   LIG    1        0.148  -0.522   1.436  0.00  0.00    -0.000 C 
ATOM      7  C   LIG    1       -1.071  -0.090   2.254  0.00  0.00    +0.210 C 
ATOM      8  O   LIG    1       -2.259  -0.587   1.633  0.00  0.00    -0.370 OA
ATOM      9  C   LIG    1       -2.473  -0.099   0.308  0.00  0.00    +0.210 C 
ATOM     10  C   LIG    1       -1.310  -0.531  -0.588  0.00  0.00    +0.020 C 
BRANCH   9  11
ATOM     11  C   LIG    1       -3.761  -0.663  -0.234  0.00  0.00    -0.100 A 
ATOM     12  C   LIG    1       -4.147  -1.948   0.100  0.00  0.00    +0.080 A 
ATOM     13  C   LIG    1       -5.331  -2.465  -0.392  0.00  0.00    -0.010 A 
ATOM     14  C   LIG    1       -6.125  -1.699  -1.229  0.00  0.00    +0.100 A 
ATOM     15  C   LIG    1       -5.735  -0.414  -1.567  0.00  0.00    -0.010 A 
ATOM     16  F   LIG    1       -7.279  -2.205  -1.715  0.00  0.00    -0.140 F 
ATOM     17  C   LIG    1       -4.554   0.102  -1.069  0.00  0.00    +0.050 A 
ENDBRANCH   9  11
ENDBRANCH   3   5
BRANCH   2  18
ATOM     18  C   LIG    1        1.120   3.657   0.011  0.00  0.00    -0.030 C 
ATOM     19  C   LIG    1        0.472   4.183   1.315  0.00  0.00    +0.030 C 
ATOM     20  C   LIG    1        1.712   4.502   2.188  0.00  0.00    +0.220 C 
ATOM     21  O   LIG    1        2.670   5.017   1.238  0.00  0.00    -0.360 OA
ATOM     22  C   LIG    1        2.555   4.216   0.047  0.00  0.00    +0.240 C 
BRANCH  22  23
ATOM     23  C   LIG    1        2.805   5.067  -1.172  0.00  0.00    -0.150 A 
ATOM     24  C   LIG    1        3.406   4.523  -2.297  0.00  0.00    +0.080 A 
ATOM     25  C   LIG    1        3.615   5.343  -3.395  0.00  0.00    -0.030 A 
ATOM     26  C   LIG    1        3.220   6.666  -3.333  0.00  0.00    +0.260 A 
ATOM     27  N   LIG    1        2.651   7.149  -2.246  0.00  0.00    -0.490 NA
ATOM     28  C   LIG    1        2.432   6.398  -1.185  0.00  0.00    +0.280 A 
ENDBRANCH  22  23
ENDBRANCH   2  18
TORSDOF 4
