REMARK  Name = ZINCqH0000008vVB.0
REMARK                            x       y       z     vdW  Elec       q    Type
REMARK                         _______ _______ _______ _____ _____    ______ ____
ROOT
ATOM      1  C   LIG    1       -2.214   4.921   0.304  0.00  0.00    +0.540 C 
ATOM      2  N   LIG    1       -2.135   6.195  -0.129  0.00  0.00    -0.650 N 
ATOM      3  H   LIG    1       -1.278   6.568  -0.386  0.00  0.00    +0.420 HD
ATOM      4  O   LIG    1       -3.269   4.482   0.710  0.00  0.00    -0.500 OA
ENDROOT
BRANCH   2   5
ATOM      5  C   LIG    1       -3.293   6.981  -0.207  0.00  0.00    +0.090 A 
ATOM      6  C   LIG    1       -4.325   6.809   0.705  0.00  0.00    +0.090 A 
ATOM      7  C   LIG    1       -5.453   7.610   0.588  0.00  0.00    -0.030 A 
ATOM      8  C   LIG    1       -5.515   8.547  -0.424  0.00  0.00    +0.270 A 
ATOM      9  N   LIG    1       -4.519   8.691  -1.279  0.00  0.00    -0.500 NA
ATOM     10  C   LIG    1       -3.424   7.954  -1.202  0.00  0.00    +0.280 A 
BRANCH  10  11
ATOM     11  N   LIG    1       -2.397   8.144  -2.121  0.00  0.00    -0.470 N 
ATOM     12  C   LIG    1       -2.277   6.979  -3.034  0.00  0.00    +0.180 C 
ATOM     13  C   LIG    1       -1.510   7.559  -4.250  0.00  0.00    +0.040 C 
ATOM     14  C   LIG    1       -2.095   8.984  -4.379  0.00  0.00    +0.020 C 
ATOM     15  C   LIG    1       -2.671   9.310  -2.989  0.00  0.00    +0.200 C 
ENDBRANCH  10  11
ENDBRANCH   2   5
BRANCH   1  17
ATOM     16  C   LIG    1       -0.176   4.270   1.559  0.00  0.00    +0.070 C 
ATOM     17  C   LIG    1       -0.990   4.042   0.283  0.00  0.00    +0.000 C 
BRANCH  17  18
ATOM     18  S   LIG    1       -1.497   2.302   0.193  0.00  0.00    -0.050 S 
BRANCH  18  19
ATOM     19  C   LIG    1        0.029   1.457  -0.056  0.00  0.00    -0.090 A 
ATOM     20  C   LIG    1        0.449   1.140  -1.342  0.00  0.00    +0.090 A 
ATOM     21  C   LIG    1        1.643   0.473  -1.532  0.00  0.00    +0.100 A 
ATOM     22  C   LIG    1        2.420   0.120  -0.445  0.00  0.00    -0.020 A 
ATOM     23  C   LIG    1        2.006   0.433   0.837  0.00  0.00    +0.100 A 
ATOM     24  C   LIG    1        0.814   1.101   1.035  0.00  0.00    +0.090 A 
BRANCH  22  25
ATOM     25  N   LIG    1        3.699  -0.596  -0.653  0.00  0.00    +0.020 N 
ATOM     26  O   LIG    1        4.065  -0.873  -1.781  0.00  0.00    -0.150 OA
ATOM     27  O   LIG    1        4.386  -0.907   0.304  0.00  0.00    -0.150 OA
ENDBRANCH  22  25
ENDBRANCH  18  19
ENDBRANCH  17  18
ENDBRANCH   1  17
TORSDOF 6
