REMARK  Name = ZINCqH0000008XaM.0
REMARK                            x       y       z     vdW  Elec       q    Type
REMARK                         _______ _______ _______ _____ _____    ______ ____
ROOT
ATOM      1  C   LIG    1        3.293  -0.917   1.077  0.00  0.00    +0.520 C 
ATOM      2  N   LIG    1        2.252  -0.076   0.920  0.00  0.00    -0.550 N 
ATOM      3  C   LIG    1        0.879  -0.531   1.179  0.00  0.00    +0.270 C 
ATOM      4  C   LIG    1       -0.007  -0.025   0.033  0.00  0.00    +0.030 C 
ATOM      5  C   LIG    1       -0.008   1.503   0.048  0.00  0.00    +0.080 C 
ATOM      6  C   LIG    1        1.401   2.032   0.081  0.00  0.00    -0.150 A 
ATOM      7  C   LIG    1        1.639   3.340  -0.328  0.00  0.00    +0.180 A 
ATOM      8  C   LIG    1        2.928   3.854  -0.305  0.00  0.00    +0.000 A 
ATOM      9  C   LIG    1        3.980   3.068   0.125  0.00  0.00    +0.050 A 
ATOM     10  C   LIG    1        3.749   1.768   0.530  0.00  0.00    +0.010 A 
ATOM     11  C   LIG    1        2.460   1.247   0.507  0.00  0.00    +0.170 A 
ATOM     12  O   LIG    1        4.409  -0.567   0.754  0.00  0.00    -0.510 OA
ENDROOT
BRANCH   7  13
ATOM     13  N   LIG    1        0.577   4.139  -0.765  0.00  0.00    -0.680 N 
ATOM     14  H   LIG    1       -0.298   4.048  -0.355  0.00  0.00    +0.410 HD
ATOM     15  C   LIG    1        0.769   5.035  -1.753  0.00  0.00    +0.710 C 
ATOM     16  O   LIG    1        1.883   5.211  -2.206  0.00  0.00    -0.570 OA
ATOM     17  N   LIG    1       -0.275   5.736  -2.240  0.00  0.00    -0.860 N 
ATOM     18  H   LIG    1       -0.137   6.380  -2.951  0.00  0.00    +0.420 HD
ATOM     19  H   LIG    1       -1.164   5.595  -1.878  0.00  0.00    +0.400 HD
ENDBRANCH   7  13
BRANCH   1  20
ATOM     20  C   LIG    1        3.072  -2.292   1.652  0.00  0.00    +0.070 C 
BRANCH  20  22
ATOM     21  C   LIG    1        5.239  -2.237   2.893  0.00  0.00    +0.040 C 
ATOM     22  C   LIG    1        4.420  -2.989   1.842  0.00  0.00    +0.060 C 
BRANCH  22  23
ATOM     23  C   LIG    1        4.194  -4.406   2.300  0.00  0.00    -0.110 A 
ATOM     24  C   LIG    1        3.527  -4.651   3.486  0.00  0.00    +0.040 A 
ATOM     25  C   LIG    1        3.313  -5.951   3.904  0.00  0.00    +0.000 A 
ATOM     26  C   LIG    1        3.777  -7.008   3.143  0.00  0.00    +0.040 A 
ATOM     27  C   LIG    1        4.448  -6.766   1.960  0.00  0.00    -0.010 A 
ATOM     28  C   LIG    1        4.658  -5.464   1.537  0.00  0.00    +0.100 A 
ATOM     29  F   LIG    1        5.314  -5.226   0.381  0.00  0.00    -0.140 F 
ENDBRANCH  22  23
ENDBRANCH  20  22
ENDBRANCH   1  20
TORSDOF 4
