REMARK  Name = ZINCrH000004o1Et.0
REMARK                            x       y       z     vdW  Elec       q    Type
REMARK                         _______ _______ _______ _____ _____    ______ ____
ROOT
ATOM      1  C   LIG    1       -3.099   3.366   3.035  0.00  0.00    +0.080 A 
ATOM      2  C   LIG    1       -2.330   2.806   4.047  0.00  0.00    +0.040 A 
ATOM      3  C   LIG    1       -2.666   3.023   5.369  0.00  0.00    -0.050 A 
ATOM      4  C   LIG    1       -3.778   3.791   5.686  0.00  0.00    +0.210 A 
ATOM      5  C   LIG    1       -4.550   4.346   4.674  0.00  0.00    -0.060 A 
ATOM      6  C   LIG    1       -4.212   4.134   3.352  0.00  0.00    +0.070 A 
ENDROOT
BRANCH   1   8
ATOM      7  C   LIG    1       -2.955   4.124   0.782  0.00  0.00    +0.500 C 
ATOM      8  N   LIG    1       -2.756   3.151   1.694  0.00  0.00    -0.660 N 
ATOM      9  H   LIG    1       -2.374   2.302   1.421  0.00  0.00    +0.410 HD
ATOM     10  O   LIG    1       -3.509   5.153   1.106  0.00  0.00    -0.500 OA
BRANCH   7  12
ATOM     11  C   LIG    1       -0.976   3.716  -0.655  0.00  0.00    +0.100 C 
ATOM     12  C   LIG    1       -2.491   3.932  -0.638  0.00  0.00    +0.270 C 
BRANCH  12  13
ATOM     13  N   LIG    1       -2.822   5.123  -1.425  0.00  0.00    -0.370 N 
ATOM     14  C   LIG    1       -2.095   6.248  -1.530  0.00  0.00    +0.490 A 
ATOM     15  N   LIG    1       -2.728   7.069  -2.328  0.00  0.00    -0.540 NA
ATOM     16  C   LIG    1       -3.859   6.505  -2.751  0.00  0.00    +0.420 A 
ATOM     17  N   LIG    1       -3.961   5.313  -2.225  0.00  0.00    -0.310 NA
ENDBRANCH  12  13
ENDBRANCH   7  12
ENDBRANCH   1   8
BRANCH   4  18
ATOM     18  N   LIG    1       -4.120   4.007   7.025  0.00  0.00    -0.740 N 
ATOM     19  H   LIG    1       -4.897   4.544   7.247  0.00  0.00    +0.400 HD
BRANCH  18  20
ATOM     20  C   LIG    1       -3.306   3.421   8.093  0.00  0.00    +0.290 C 
ATOM     21  C   LIG    1       -4.150   3.241   9.373  0.00  0.00    +0.050 C 
ATOM     22  C   LIG    1       -3.121   3.514  10.490  0.00  0.00    +0.090 C 
ATOM     23  C   LIG    1       -2.085   4.422   9.861  0.00  0.00    -0.060 A 
ATOM     24  C   LIG    1       -1.126   5.229  10.447  0.00  0.00    -0.020 A 
ATOM     25  C   LIG    1       -0.273   5.982   9.659  0.00  0.00    +0.110 A 
ATOM     26  C   LIG    1       -0.381   5.927   8.280  0.00  0.00    -0.020 A 
ATOM     27  C   LIG    1       -1.338   5.122   7.695  0.00  0.00    +0.070 A 
ATOM     28  F   LIG    1        0.662   6.769  10.234  0.00  0.00    -0.140 F 
ATOM     29  C   LIG    1       -2.192   4.368   8.483  0.00  0.00    -0.130 A 
ENDBRANCH  18  20
ENDBRANCH   4  18
TORSDOF 5
