REMARK  Name = ZINCpe000000WqC2.0
REMARK                            x       y       z     vdW  Elec       q    Type
REMARK                         _______ _______ _______ _____ _____    ______ ____
ROOT
ATOM      1  N   LIG    1       -2.966   1.123  -1.407  0.00  0.00    -0.540 NA
ATOM      2  C   LIG    1       -3.613   2.404  -1.721  0.00  0.00    +0.200 C 
ATOM      3  C   LIG    1       -4.122   2.376  -3.165  0.00  0.00    +0.180 C 
ATOM      4  N   LIG    1       -5.064   1.260  -3.327  0.00  0.00    -0.520 NA
ATOM      5  C   LIG    1       -4.418  -0.022  -3.013  0.00  0.00    +0.190 C 
ATOM      6  C   LIG    1       -3.909   0.007  -1.570  0.00  0.00    +0.190 C 
ENDROOT
BRANCH   1   7
ATOM      7  C   LIG    1       -2.397   1.138  -0.053  0.00  0.00    +0.240 C 
BRANCH   7  14
ATOM      8  C   LIG    1       -1.535   3.484   0.146  0.00  0.00    +0.120 A 
ATOM      9  C   LIG    1       -0.492   4.397   0.193  0.00  0.00    -0.040 A 
ATOM     10  C   LIG    1        0.815   3.957   0.105  0.00  0.00    +0.030 A 
ATOM     11  C   LIG    1        1.083   2.606  -0.030  0.00  0.00    +0.060 A 
ATOM     12  C   LIG    1        0.042   1.693  -0.077  0.00  0.00    +0.040 A 
ATOM     13  F   LIG    1        2.361   2.177  -0.117  0.00  0.00    -0.140 F 
ATOM     14  C   LIG    1       -1.265   2.131   0.005  0.00  0.00    -0.080 A 
BRANCH   8  16
ATOM     15  C   LIG    1       -3.026   5.323   0.370  0.00  0.00    +0.240 C 
ATOM     16  O   LIG    1       -2.822   3.916   0.232  0.00  0.00    -0.310 OA
ENDBRANCH   8  16
ENDBRANCH   7  14
ENDBRANCH   1   7
BRANCH   4  17
ATOM     17  C   LIG    1       -5.633   1.245  -4.681  0.00  0.00    +0.210 C 
BRANCH  17  18
ATOM     18  C   LIG    1       -6.768   0.255  -4.738  0.00  0.00    +0.520 C 
ATOM     19  N   LIG    1       -7.362  -0.022  -5.916  0.00  0.00    -0.620 N 
ATOM     20  C   LIG    1       -6.924   0.634  -7.158  0.00  0.00    +0.240 C 
ATOM     21  C   LIG    1       -6.684  -0.455  -8.216  0.00  0.00    +0.220 C 
ATOM     22  O   LIG    1       -7.846  -1.282  -8.311  0.00  0.00    -0.380 OA
ATOM     23  C   LIG    1       -8.159  -1.991  -7.110  0.00  0.00    +0.220 C 
ATOM     24  C   LIG    1       -8.472  -0.985  -5.996  0.00  0.00    +0.260 C 
ATOM     25  O   LIG    1       -7.146  -0.293  -3.724  0.00  0.00    -0.520 OA
ENDBRANCH  17  18
ENDBRANCH   4  17
TORSDOF 5
