REMARK  Name = ZINCvU0000000EFu.0
REMARK                            x       y       z     vdW  Elec       q    Type
REMARK                         _______ _______ _______ _____ _____    ______ ____
ROOT
ATOM      1  N   LIG    1        0.640  -1.349   0.323  0.00  0.00    -0.360 N 
ATOM      2  N   LIG    1        1.259  -0.109   0.530  0.00  0.00    -0.250 NA
ATOM      3  C   LIG    1        0.327   0.779   0.737  0.00  0.00    +0.320 A 
ATOM      4  N   LIG    1       -0.901   0.148   0.675  0.00  0.00    -0.450 N 
ATOM      5  C   LIG    1       -0.692  -1.158   0.415  0.00  0.00    +0.470 A 
ATOM      6  S   LIG    1       -1.899  -2.360   0.240  0.00  0.00    -0.530 S 
ENDROOT
BRANCH   4   7
ATOM      7  C   LIG    1       -2.149   0.760   0.850  0.00  0.00    +0.120 A 
ATOM      8  C   LIG    1       -2.824   1.288  -0.243  0.00  0.00    +0.060 A 
ATOM      9  C   LIG    1       -4.054   1.891  -0.068  0.00  0.00    +0.050 A 
ATOM     10  C   LIG    1       -4.614   1.972   1.194  0.00  0.00    +0.070 A 
ATOM     11  C   LIG    1       -3.943   1.447   2.286  0.00  0.00    -0.030 A 
ATOM     12 CL   LIG    1       -4.650   1.550   3.868  0.00  0.00    -0.050 Cl
ATOM     13  C   LIG    1       -2.715   0.837   2.116  0.00  0.00    -0.040 A 
ATOM     14  C   LIG    1       -1.989   0.260   3.303  0.00  0.00    +0.120 C 
ENDBRANCH   4   7
BRANCH   3  15
ATOM     15  C   LIG    1        0.547   2.218   0.999  0.00  0.00    +0.010 A 
ATOM     16  C   LIG    1       -0.532   3.086   1.202  0.00  0.00    +0.000 A 
ATOM     17  C   LIG    1       -0.281   4.419   1.450  0.00  0.00    +0.280 A 
ATOM     18  N   LIG    1        0.955   4.881   1.484  0.00  0.00    -0.460 NA
ATOM     19  C   LIG    1        2.000   4.099   1.292  0.00  0.00    +0.280 A 
ATOM     20  C   LIG    1        1.841   2.751   1.044  0.00  0.00    +0.030 A 
ENDBRANCH   3  15
BRANCH   1  21
ATOM     21  C   LIG    1        1.316  -2.621   0.056  0.00  0.00    +0.520 C 
BRANCH  21  22
ATOM     22  N   LIG    1        1.915  -3.127   1.298  0.00  0.00    -0.540 NA
BRANCH  22  24
ATOM     23  C   LIG    1        3.604  -2.718   3.023  0.00  0.00    +0.030 C 
ATOM     24  C   LIG    1        3.201  -2.471   1.568  0.00  0.00    +0.160 C 
ENDBRANCH  22  24
BRANCH  22  25
ATOM     25  C   LIG    1        2.069  -4.587   1.250  0.00  0.00    +0.240 C 
BRANCH  25  26
ATOM     26  C   LIG    1        0.728  -5.241   1.460  0.00  0.00    -0.090 A 
ATOM     27  C   LIG    1        0.258  -5.458   2.742  0.00  0.00    +0.030 A 
ATOM     28  C   LIG    1       -0.975  -6.054   2.935  0.00  0.00    +0.000 A 
ATOM     29  C   LIG    1       -1.733  -6.441   1.846  0.00  0.00    +0.010 A 
ATOM     30  C   LIG    1       -1.261  -6.229   0.564  0.00  0.00    +0.010 A 
ATOM     31  C   LIG    1       -0.031  -5.628   0.371  0.00  0.00    +0.010 A 
ENDBRANCH  25  26
ENDBRANCH  22  25
ENDBRANCH  21  22
ENDBRANCH   1  21
TORSDOF 7
