REMARK  Name = ZINCtV000002D9VL.0
REMARK                            x       y       z     vdW  Elec       q    Type
REMARK                         _______ _______ _______ _____ _____    ______ ____
ROOT
ATOM      1  C   LIG    1        5.973   2.200  -0.042  0.00  0.00    -0.130 A 
ATOM      2  C   LIG    1        5.792   3.567  -0.039  0.00  0.00    +0.100 A 
ATOM      3  C   LIG    1        6.899   4.414  -0.039  0.00  0.00    -0.060 A 
ATOM      4  C   LIG    1        8.184   3.875  -0.054  0.00  0.00    +0.080 A 
ATOM      5  C   LIG    1        8.355   2.506  -0.063  0.00  0.00    +0.000 A 
ATOM      6  C   LIG    1        7.252   1.667  -0.057  0.00  0.00    +0.120 A 
ATOM      7  F   LIG    1        7.424   0.328  -0.065  0.00  0.00    -0.130 F 
ENDROOT
BRANCH   3   8
ATOM      8  C   LIG    1        6.710   5.886  -0.030  0.00  0.00    -0.050 A 
ATOM      9  C   LIG    1        5.848   6.486  -0.946  0.00  0.00    +0.060 A 
ATOM     10  C   LIG    1        5.671   7.854  -0.931  0.00  0.00    +0.060 A 
ATOM     11  C   LIG    1        6.355   8.634  -0.017  0.00  0.00    +0.030 A 
ATOM     12  C   LIG    1        7.218   8.047   0.894  0.00  0.00    +0.070 A 
ATOM     13  F   LIG    1        7.883   8.814   1.785  0.00  0.00    -0.130 F 
ATOM     14  C   LIG    1        7.399   6.674   0.892  0.00  0.00    +0.080 A 
ATOM     15  F   LIG    1        8.240   6.100   1.779  0.00  0.00    -0.120 F 
ENDBRANCH   3   8
BRANCH   1  16
ATOM     16  C   LIG    1        4.777   1.283  -0.036  0.00  0.00    +0.280 C 
BRANCH  16  17
ATOM     17  O   LIG    1        3.579   2.062  -0.021  0.00  0.00    -0.290 OA
BRANCH  17  23
ATOM     18  C   LIG    1       -2.036   2.146  -1.232  0.00  0.00    +0.050 C 
ATOM     19  C   LIG    1       -1.178   2.342   0.020  0.00  0.00    +0.060 C 
ATOM     20  C   LIG    1       -0.566   3.750   0.027  0.00  0.00    +0.050 C 
ATOM     21  C   LIG    1        0.928   3.536   0.012  0.00  0.00    +0.410 C 
ATOM     22  C   LIG    1        1.184   2.090   0.002  0.00  0.00    -0.210 A 
ATOM     23  C   LIG    1        2.404   1.385  -0.013  0.00  0.00    +0.210 A 
ATOM     24  C   LIG    1        2.401   0.000  -0.021  0.00  0.00    -0.070 A 
ATOM     25  C   LIG    1        1.206  -0.691  -0.014  0.00  0.00    +0.120 A 
ATOM     26  C   LIG    1        0.002  -0.004   0.002  0.00  0.00    -0.070 A 
ATOM     27 CL   LIG    1       -1.493  -0.886   0.012  0.00  0.00    -0.060 Cl
ATOM     28  O   LIG    1        1.772   4.408   0.009  0.00  0.00    -0.430 OA
ATOM     29  C   LIG    1       -0.017   1.377   0.010  0.00  0.00    +0.010 A 
ENDBRANCH  17  23
ENDBRANCH  16  17
ENDBRANCH   1  16
TORSDOF 4
