REMARK  Name = ZINCvU00000006Lq.0
REMARK                            x       y       z     vdW  Elec       q    Type
REMARK                         _______ _______ _______ _____ _____    ______ ____
ROOT
ATOM      1  N   LIG    1       -7.162   0.179   0.071  0.00  0.00    -0.630 N 
ATOM      2  H   LIG    1       -7.577   1.056   0.079  0.00  0.00    +0.420 HD
ATOM      3  C   LIG    1       -5.819   0.069   0.057  0.00  0.00    +0.530 C 
ATOM      4  O   LIG    1       -5.300  -1.027   0.046  0.00  0.00    -0.480 OA
ENDROOT
BRANCH   1   6
ATOM      5  C   LIG    1       -9.316  -0.961   0.090  0.00  0.00    -0.190 A 
ATOM      6  C   LIG    1       -7.950  -0.961   0.072  0.00  0.00    +0.040 A 
ATOM      7  S   LIG    1       -7.350  -2.553   0.058  0.00  0.00    +0.310 S 
ATOM      8  C   LIG    1       -8.963  -3.253   0.071  0.00  0.00    -0.240 A 
ATOM      9  C   LIG    1       -9.243  -4.742   0.079  0.00  0.00    +0.120 C 
ATOM     10  C   LIG    1      -10.305  -5.080  -0.966  0.00  0.00    +0.020 C 
ATOM     11  C   LIG    1      -11.687  -4.992  -0.324  0.00  0.00    +0.010 C 
ATOM     12  C   LIG    1      -11.696  -3.894   0.737  0.00  0.00    +0.030 C 
ATOM     13  C   LIG    1      -11.393  -2.550   0.083  0.00  0.00    +0.090 C 
ATOM     14  C   LIG    1       -9.895  -2.296   0.081  0.00  0.00    -0.040 A 
BRANCH   5  15
ATOM     15  C   LIG    1      -10.120   0.263   0.115  0.00  0.00    +0.530 C 
ATOM     16  O   LIG    1      -10.468   0.783  -0.929  0.00  0.00    -0.490 OA
BRANCH  15  18
ATOM     17  C   LIG    1      -11.270   2.028   1.241  0.00  0.00    +0.270 C 
ATOM     18  O   LIG    1      -10.474   0.815   1.293  0.00  0.00    -0.350 OA
ENDBRANCH  15  18
ENDBRANCH   5  15
ENDBRANCH   1   6
BRANCH   3  19
ATOM     19  C   LIG    1       -4.961   1.309   0.056  0.00  0.00    +0.120 C 
BRANCH  19  20
ATOM     20  S   LIG    1       -3.215   0.834   0.036  0.00  0.00    +0.080 S 
BRANCH  20  21
ATOM     21  C   LIG    1       -2.465   2.429   0.038  0.00  0.00    +0.190 A 
ATOM     22  C   LIG    1       -1.052   2.563   0.031  0.00  0.00    -0.140 A 
ATOM     23  C   LIG    1       -0.521   3.849   0.028  0.00  0.00    +0.100 A 
ATOM     24  S   LIG    1        1.230   3.762   0.010  0.00  0.00    +0.210 S 
ATOM     25  C   LIG    1        1.219   1.999   0.001  0.00  0.00    -0.190 A 
ATOM     26  C   LIG    1        2.230   0.856  -0.014  0.00  0.00    +0.120 C 
ATOM     27  C   LIG    1        1.431  -0.384   0.436  0.00  0.00    +0.050 C 
ATOM     28  C   LIG    1        0.002  -0.004   0.002  0.00  0.00    +0.110 C 
ATOM     29  N   LIG    1       -1.355   4.899   0.041  0.00  0.00    -0.490 NA
ATOM     30  C   LIG    1       -2.657   4.726   0.052  0.00  0.00    +0.540 A 
ATOM     31  C   LIG    1       -0.019   1.524   0.010  0.00  0.00    -0.090 A 
ATOM     32  N   LIG    1       -3.209   3.526   0.051  0.00  0.00    -0.540 NA
ENDBRANCH  20  21
ENDBRANCH  19  20
ENDBRANCH   3  19
TORSDOF 6
