REMARK  Name = ZINCpk00000KfLdE.0
REMARK                            x       y       z     vdW  Elec       q    Type
REMARK                         _______ _______ _______ _____ _____    ______ ____
ROOT
ATOM      1  S   LIG    1        3.773   2.385  -0.024  0.00  0.00    +0.090 S 
ENDROOT
BRANCH   1   7
ATOM      2  C   LIG    1       -0.017   1.361  -0.021  0.00  0.00    +0.200 A 
ATOM      3  C   LIG    1        0.001  -0.004  -0.029  0.00  0.00    -0.110 A 
ATOM      4  C   LIG    1        1.241  -0.667  -0.035  0.00  0.00    +0.530 A 
ATOM      5  N   LIG    1        2.372   0.071  -0.033  0.00  0.00    -0.610 N 
ATOM      6  H   LIG    1        3.238  -0.366  -0.037  0.00  0.00    +0.420 HD
ATOM      7  C   LIG    1        2.292   1.430  -0.025  0.00  0.00    +0.360 A 
ATOM      8  O   LIG    1        1.294  -1.886  -0.043  0.00  0.00    -0.530 OA
ATOM      9  N   LIG    1        1.125   2.045  -0.020  0.00  0.00    -0.540 NA
BRANCH   2  10
ATOM     10  C   LIG    1       -1.333   2.096  -0.021  0.00  0.00    +0.190 C 
BRANCH  10  11
ATOM     11  C   LIG    1       -1.715   2.441   1.396  0.00  0.00    +0.470 C 
ATOM     12  O   LIG    1       -0.993   2.123   2.311  0.00  0.00    -0.500 OA
BRANCH  11  14
ATOM     13  C   LIG    1       -3.162   3.400   3.029  0.00  0.00    +0.280 C 
ATOM     14  O   LIG    1       -2.858   3.101   1.641  0.00  0.00    -0.360 OA
ENDBRANCH  11  14
ENDBRANCH  10  11
ENDBRANCH   2  10
ENDBRANCH   1   7
BRANCH   1  15
ATOM     15  C   LIG    1        3.072   4.053  -0.013  0.00  0.00    +0.130 C 
BRANCH  15  16
ATOM     16  C   LIG    1        4.187   5.067  -0.010  0.00  0.00    +0.540 C 
ATOM     17  N   LIG    1        3.900   6.384  -0.002  0.00  0.00    -0.660 N 
ATOM     18  H   LIG    1        2.979   6.680  -0.066  0.00  0.00    +0.420 HD
ATOM     19  O   LIG    1        5.342   4.698  -0.015  0.00  0.00    -0.500 OA
BRANCH  17  20
ATOM     20  C   LIG    1        4.933   7.324   0.099  0.00  0.00    +0.160 A 
ATOM     21  C   LIG    1        6.158   7.079  -0.506  0.00  0.00    +0.060 A 
ATOM     22  C   LIG    1        7.176   8.007  -0.407  0.00  0.00    +0.050 A 
ATOM     23  C   LIG    1        6.976   9.183   0.296  0.00  0.00    +0.060 A 
ATOM     24  C   LIG    1        5.754   9.431   0.902  0.00  0.00    +0.090 A 
ATOM     25  F   LIG    1        5.560  10.579   1.587  0.00  0.00    -0.120 F 
ATOM     26  F   LIG    1        7.974  10.089   0.392  0.00  0.00    -0.130 F 
ATOM     27  C   LIG    1        4.731   8.507   0.799  0.00  0.00    +0.000 A 
ENDBRANCH  17  20
ENDBRANCH  15  16
ENDBRANCH   1  15
TORSDOF 7
