REMARK  Name = ZINCtV000002KmQ5.0
REMARK                            x       y       z     vdW  Elec       q    Type
REMARK                         _______ _______ _______ _____ _____    ______ ____
ROOT
ATOM      1  C   LIG    1        1.101   2.027   0.002  0.00  0.00    +0.160 A 
ATOM      2  N   LIG    1       -0.016   1.314   0.009  0.00  0.00    -0.490 NA
ATOM      3  C   LIG    1        0.002  -0.004   0.002  0.00  0.00    +0.330 A 
ATOM      4  C   LIG    1        1.195  -0.705  -0.013  0.00  0.00    -0.040 A 
ATOM      5  C   LIG    1        2.393  -0.013  -0.021  0.00  0.00    +0.120 A 
ATOM      6  C   LIG    1        2.353   1.386  -0.013  0.00  0.00    -0.190 A 
ENDROOT
BRANCH   6   7
ATOM      7  C   LIG    1        3.599   2.172  -0.021  0.00  0.00    +0.560 C 
ATOM      8  N   LIG    1        4.791   1.545  -0.036  0.00  0.00    -0.620 N 
ATOM      9  H   LIG    1        4.830   0.576  -0.042  0.00  0.00    +0.420 HD
ATOM     10  O   LIG    1        3.551   3.388  -0.014  0.00  0.00    -0.470 OA
BRANCH   8  11
ATOM     11  C   LIG    1        5.965   2.286  -0.044  0.00  0.00    +0.280 A 
ATOM     12  N   LIG    1        7.163   1.790  -0.059  0.00  0.00    -0.490 NA
ATOM     13  C   LIG    1        8.174   2.657  -0.065  0.00  0.00    +0.160 A 
ATOM     14  C   LIG    1        7.817   3.956  -0.055  0.00  0.00    -0.110 A 
ATOM     15  S   LIG    1        6.057   4.044  -0.043  0.00  0.00    +0.230 S 
BRANCH  13  16
ATOM     16  C   LIG    1        9.588   2.225  -0.082  0.00  0.00    -0.120 A 
ATOM     17  C   LIG    1       10.011   0.946  -0.087  0.00  0.00    +0.060 A 
ATOM     18  C   LIG    1       11.383   0.791  -0.106  0.00  0.00    +0.030 A 
ATOM     19  C   LIG    1       12.081   1.931  -0.108  0.00  0.00    -0.150 A 
ATOM     20 CL   LIG    1       13.813   2.042  -0.124  0.00  0.00    -0.010 Cl
ATOM     21  S   LIG    1       10.979   3.302  -0.091  0.00  0.00    +0.190 S 
ENDBRANCH  13  16
ENDBRANCH   8  11
ENDBRANCH   6   7
BRANCH   1  22
ATOM     22  S   LIG    1        1.018   3.787   0.013  0.00  0.00    +0.060 S 
BRANCH  22  23
ATOM     23  C   LIG    1       -0.778   4.017   0.031  0.00  0.00    +0.160 C 
BRANCH  23  30
ATOM     24  C   LIG    1       -1.219   5.969  -2.523  0.00  0.00    +0.160 C 
ATOM     25  C   LIG    1       -1.290   6.347  -1.066  0.00  0.00    +0.040 A 
ATOM     26  N   LIG    1       -1.542   7.527  -0.577  0.00  0.00    -0.360 NA
ATOM     27  O   LIG    1       -1.530   7.520   0.632  0.00  0.00    +0.100 OA
ATOM     28  C   LIG    1       -1.267   6.298   1.115  0.00  0.00    -0.010 A 
ATOM     29  C   LIG    1       -1.178   5.902   2.567  0.00  0.00    +0.190 C 
ATOM     30  C   LIG    1       -1.096   5.490   0.042  0.00  0.00    -0.200 A 
ENDBRANCH  23  30
ENDBRANCH  22  23
ENDBRANCH   1  22
TORSDOF 6
