REMARK  Name = ZINCkj000005ldPN.0
REMARK                            x       y       z     vdW  Elec       q    Type
REMARK                         _______ _______ _______ _____ _____    ______ ____
ROOT
ATOM      1  N   LIG    1        0.011   0.000   0.118  0.00  0.00    -0.690 NA
ATOM      2  H   LIG    1       -0.817  -0.496   0.214  0.00  0.00    +0.440 HD
ENDROOT
BRANCH   1   3
ATOM      3  C   LIG    1       -0.017   1.371   0.010  0.00  0.00    +0.740 C 
BRANCH   3   4
ATOM      4  N   LIG    1       -1.219   2.037   0.031  0.00  0.00    -0.600 NA
ATOM      5  C   LIG    1       -2.363   1.424  -0.605  0.00  0.00    +0.300 C 
ATOM      6  C   LIG    1       -2.425   1.840  -2.090  0.00  0.00    +0.020 C 
ATOM      7  C   LIG    1       -2.810   3.255  -2.208  0.00  0.00    +0.010 C 
ATOM      8  C   LIG    1       -1.819   4.231  -1.581  0.00  0.00    +0.020 C 
ATOM      9  C   LIG    1       -2.117   4.369  -0.108  0.00  0.00    +0.040 C 
ATOM     10  C   LIG    1       -1.286   3.353   0.697  0.00  0.00    +0.300 C 
ENDBRANCH   3   4
BRANCH   3  11
ATOM     11  N   LIG    1        1.096   2.037  -0.119  0.00  0.00    -0.770 NA
ATOM     12  H   LIG    1        1.947   1.576  -0.058  0.00  0.00    +0.440 HD
ATOM     13  H   LIG    1        1.073   2.994  -0.276  0.00  0.00    +0.440 HD
ENDBRANCH   3  11
ENDBRANCH   1   3
BRANCH   1  14
ATOM     14  C   LIG    1        1.292  -0.711   0.090  0.00  0.00    +0.330 C 
BRANCH  14  15
ATOM     15  C   LIG    1        1.044  -2.214   0.228  0.00  0.00    -0.350 C 
BRANCH  15  16
ATOM     16  S   LIG    1        2.630  -3.094   0.193  0.00  0.00    +2.420 S 
ATOM     17  O   LIG    1        3.376  -2.729   1.345  0.00  0.00    -0.920 OA
ATOM     18  O   LIG    1        3.212  -2.927  -1.093  0.00  0.00    -0.920 OA
BRANCH  16  19
ATOM     19  C   LIG    1        2.103  -4.822   0.368  0.00  0.00    -0.310 C 
BRANCH  19  20
ATOM     20  C   LIG    1        3.332  -5.733   0.358  0.00  0.00    +0.000 C 
ATOM     21  C   LIG    1        3.793  -6.131  -1.053  0.00  0.00    +0.030 C 
ATOM     22  C   LIG    1        4.058  -7.536  -0.483  0.00  0.00    +0.030 C 
ATOM     23  C   LIG    1        3.001  -7.217   0.587  0.00  0.00    +0.040 C 
ENDBRANCH  19  20
ENDBRANCH  16  19
ENDBRANCH  15  16
ENDBRANCH  14  15
ENDBRANCH   1  14
TORSDOF 8
