REMARK  Name = ZINCrD00000hQ5K8.0
REMARK                            x       y       z     vdW  Elec       q    Type
REMARK                         _______ _______ _______ _____ _____    ______ ____
ROOT
ATOM      1  C   LIG    1       -4.933   0.932   0.031  0.00  0.00    +0.550 C 
ATOM      2  N   LIG    1       -6.107   1.594   0.040  0.00  0.00    -0.630 N 
ATOM      3  H   LIG    1       -6.117   2.564   0.045  0.00  0.00    +0.420 HD
ATOM      4  O   LIG    1       -4.921  -0.285   0.025  0.00  0.00    -0.510 OA
ENDROOT
BRANCH   2   5
ATOM      5  C   LIG    1       -7.299   0.889   0.043  0.00  0.00    +0.040 A 
ATOM      6  C   LIG    1       -8.541   1.461   0.052  0.00  0.00    -0.210 A 
ATOM      7  C   LIG    1       -9.622   0.492   0.051  0.00  0.00    -0.050 A 
ATOM      8  C   LIG    1       -9.175  -0.769   0.042  0.00  0.00    -0.250 A 
ATOM      9  C   LIG    1      -10.071  -1.993   0.040  0.00  0.00    +0.120 C 
ATOM     10  C   LIG    1      -11.481  -1.572   0.464  0.00  0.00    +0.020 C 
ATOM     11  C   LIG    1      -11.912  -0.361  -0.369  0.00  0.00    +0.020 C 
ATOM     12  C   LIG    1      -11.097   0.861   0.060  0.00  0.00    +0.100 C 
ATOM     13  S   LIG    1       -7.420  -0.809   0.027  0.00  0.00    +0.300 S 
BRANCH   6  14
ATOM     14  C   LIG    1       -8.759   2.911   0.060  0.00  0.00    +0.590 C 
ATOM     15  O   LIG    1       -8.855   3.518  -0.990  0.00  0.00    -0.530 OA
ATOM     16  N   LIG    1       -8.854   3.571   1.231  0.00  0.00    -0.850 N 
ATOM     17  H   LIG    1       -8.999   4.530   1.237  0.00  0.00    +0.400 HD
ATOM     18  H   LIG    1       -8.779   3.087   2.068  0.00  0.00    +0.400 HD
ENDBRANCH   6  14
ENDBRANCH   2   5
BRANCH   1  20
ATOM     19  C   LIG    1       -2.499   1.013   0.020  0.00  0.00    +0.150 C 
ATOM     20  C   LIG    1       -3.675   1.676   0.029  0.00  0.00    -0.090 C 
BRANCH  19  24
ATOM     21  C   LIG    1        1.152   3.179   0.008  0.00  0.00    +0.120 A 
ATOM     22  C   LIG    1       -0.058   3.859   0.023  0.00  0.00    -0.040 A 
ATOM     23  C   LIG    1       -1.246   3.160   0.030  0.00  0.00    +0.040 A 
ATOM     24  C   LIG    1       -1.233   1.761   0.017  0.00  0.00    -0.090 A 
ATOM     25  C   LIG    1       -0.013   1.076   0.008  0.00  0.00    +0.000 A 
ATOM     26  C   LIG    1        1.172   1.784   0.000  0.00  0.00    +0.100 A 
BRANCH  21  28
ATOM     27  C   LIG    1        2.226   5.299   0.010  0.00  0.00    +0.240 C 
ATOM     28  O   LIG    1        2.319   3.873   0.002  0.00  0.00    -0.300 OA
ENDBRANCH  21  28
BRANCH  26  29
ATOM     29  O   LIG    1        2.360   1.122  -0.014  0.00  0.00    -0.300 OA
ATOM     30  C   LIG    1        2.307  -0.306  -0.021  0.00  0.00    +0.240 C 
ENDBRANCH  26  29
ENDBRANCH  19  24
ENDBRANCH   1  20
TORSDOF 6
