REMARK  Name = ZINCrD000000Ao5a.1
REMARK                            x       y       z     vdW  Elec       q    Type
REMARK                         _______ _______ _______ _____ _____    ______ ____
ROOT
ATOM      1  O   LIG    1        5.386   4.214   0.354  0.00  0.00    -0.540 OA
ATOM      2  C   LIG    1        4.959   3.737   1.384  0.00  0.00    +0.510 C 
ATOM      3  N   LIG    1        4.377   2.522   1.374  0.00  0.00    -0.710 N 
ATOM      4  H   LIG    1        4.035   2.141   2.198  0.00  0.00    +0.410 HD
ENDROOT
BRANCH   3   5
ATOM      5  C   LIG    1        4.260   1.776   0.118  0.00  0.00    +0.290 C 
BRANCH   5   6
ATOM      6  C   LIG    1        3.462   0.493   0.360  0.00  0.00    +0.190 C 
BRANCH   6   7
ATOM      7  C   LIG    1        4.237  -0.415   1.279  0.00  0.00    -0.080 A 
ATOM      8  C   LIG    1        3.923  -0.469   2.624  0.00  0.00    +0.060 A 
ATOM      9  C   LIG    1        4.631  -1.306   3.466  0.00  0.00    +0.010 A 
ATOM     10  C   LIG    1        5.660  -2.080   2.967  0.00  0.00    +0.020 A 
ATOM     11  C   LIG    1        5.979  -2.024   1.623  0.00  0.00    +0.020 A 
ATOM     12  C   LIG    1        5.268  -1.191   0.778  0.00  0.00    -0.030 A 
ATOM     13 CL   LIG    1        5.667  -1.119  -0.910  0.00  0.00    -0.070 Cl
ENDBRANCH   6   7
BRANCH   6  14
ATOM     14  N   LIG    1        2.171   0.828   0.976  0.00  0.00    -0.520 NA
ATOM     15  C   LIG    1        1.457   1.854   0.186  0.00  0.00    +0.170 C 
ATOM     16  C   LIG    1       -0.043   1.503   0.346  0.00  0.00    +0.020 C 
ATOM     17  C   LIG    1       -0.005  -0.048   0.341  0.00  0.00    +0.010 C 
ATOM     18  C   LIG    1        1.311  -0.365   1.082  0.00  0.00    +0.180 C 
ENDBRANCH   6  14
ENDBRANCH   5   6
ENDBRANCH   3   5
BRANCH   2  19
ATOM     19  C   LIG    1        5.079   4.505   2.676  0.00  0.00    +0.320 C 
BRANCH  19  20
ATOM     20  N   LIG    1        5.743   5.786   2.423  0.00  0.00    -0.710 N 
ATOM     21  H   LIG    1        6.027   6.016   1.524  0.00  0.00    +0.420 HD
ATOM     22  C   LIG    1        5.960   6.644   3.439  0.00  0.00    +0.610 C 
ATOM     23  O   LIG    1        5.605   6.355   4.566  0.00  0.00    -0.510 OA
BRANCH  22  24
ATOM     24  C   LIG    1        6.625   7.926   3.186  0.00  0.00    -0.060 A 
ATOM     25  C   LIG    1        6.905   8.882   4.120  0.00  0.00    +0.060 A 
ATOM     26  C   LIG    1        7.540   9.934   3.443  0.00  0.00    +0.010 A 
ATOM     27  C   LIG    1        7.620   9.578   2.140  0.00  0.00    -0.000 A 
ATOM     28 BR   LIG    1        8.385  10.618   0.758  0.00  0.00    +0.070 Br
ATOM     29  O   LIG    1        7.072   8.365   1.991  0.00  0.00    -0.150 OA
ENDBRANCH  22  24
ENDBRANCH  19  20
ENDBRANCH   2  19
TORSDOF 7
