REMARK  Name = ZINCpe00000FUqRd.0
REMARK                            x       y       z     vdW  Elec       q    Type
REMARK                         _______ _______ _______ _____ _____    ______ ____
ROOT
ATOM      1  C   LIG    1        7.230  -1.680   1.546  0.00  0.00    +0.520 C 
ATOM      2  N   LIG    1        6.131  -1.539   0.778  0.00  0.00    -0.610 N 
ATOM      3  C   LIG    1        6.054  -0.483  -0.242  0.00  0.00    +0.300 C 
ATOM      4  C   LIG    1        4.747   0.292  -0.042  0.00  0.00    +0.190 C 
ATOM      5  N   LIG    1        3.620  -0.649  -0.037  0.00  0.00    -0.490 N 
ATOM      6  C   LIG    1        3.714  -1.587   1.090  0.00  0.00    +0.190 C 
ATOM      7  C   LIG    1        4.979  -2.439   0.937  0.00  0.00    +0.280 C 
ATOM      8  O   LIG    1        8.171  -0.930   1.402  0.00  0.00    -0.510 OA
ENDROOT
BRANCH   5   9
ATOM      9  C   LIG    1        2.400   0.031  -0.021  0.00  0.00    +0.110 A 
ATOM     10  C   LIG    1        1.206  -0.680  -0.013  0.00  0.00    -0.010 A 
ATOM     11  C   LIG    1        0.002  -0.004   0.002  0.00  0.00    +0.040 A 
ATOM     12  C   LIG    1       -0.017   1.379   0.010  0.00  0.00    -0.020 A 
ATOM     13  C   LIG    1        1.169   2.089   0.002  0.00  0.00    +0.030 A 
ATOM     14  C   LIG    1        2.377   1.420  -0.013  0.00  0.00    -0.040 A 
ENDBRANCH   5   9
BRANCH   1  15
ATOM     15  C   LIG    1        7.287  -2.770   2.586  0.00  0.00    +0.270 C 
BRANCH  15  16
ATOM     16  O   LIG    1        8.564  -2.713   3.276  0.00  0.00    -0.320 OA
BRANCH  16  18
ATOM     17  O   LIG    1        7.920  -4.448   4.502  0.00  0.00    -0.480 OA
ATOM     18  C   LIG    1        8.777  -3.627   4.243  0.00  0.00    +0.520 C 
BRANCH  18  19
ATOM     19  C   LIG    1       10.053  -3.630   4.987  0.00  0.00    -0.130 C 
ATOM     20  C   LIG    1       11.051  -2.692   4.694  0.00  0.00    +0.150 C 
ATOM     21  C   LIG    1       12.226  -2.735   5.423  0.00  0.00    +0.050 C 
ATOM     22  C   LIG    1       12.381  -3.698   6.403  0.00  0.00    +0.300 C 
ATOM     23  N   LIG    1       11.425  -4.574   6.656  0.00  0.00    -0.130 NA
ATOM     24  O   LIG    1       11.629  -5.543   7.668  0.00  0.00    -0.540 OA
ATOM     25  C   LIG    1       10.286  -4.571   5.992  0.00  0.00    +0.340 C 
ENDBRANCH  18  19
ENDBRANCH  16  18
ENDBRANCH  15  16
ENDBRANCH   1  15
TORSDOF 5
