REMARK  Name = ZINCqH0000034xDp.0
REMARK                            x       y       z     vdW  Elec       q    Type
REMARK                         _______ _______ _______ _____ _____    ______ ____
ROOT
ATOM      1  N   LIG    1        1.895  -0.216   5.816  0.00  0.00    -0.670 N 
ATOM      2  H   LIG    1        1.403  -0.709   6.491  0.00  0.00    +0.420 HD
ATOM      3  C   LIG    1        3.205   0.044   5.993  0.00  0.00    +0.510 C 
ATOM      4  O   LIG    1        3.798   0.741   5.196  0.00  0.00    -0.510 OA
ENDROOT
BRANCH   1   8
ATOM      5  C   LIG    1       -0.047   1.096   2.365  0.00  0.00    +0.080 A 
ATOM      6  C   LIG    1       -0.733   1.043   3.570  0.00  0.00    +0.010 A 
ATOM      7  C   LIG    1       -0.092   0.603   4.711  0.00  0.00    +0.000 A 
ATOM      8  C   LIG    1        1.243   0.225   4.656  0.00  0.00    +0.150 A 
ATOM      9  C   LIG    1        1.932   0.283   3.452  0.00  0.00    +0.040 A 
ATOM     10  C   LIG    1        1.290   0.718   2.309  0.00  0.00    +0.010 A 
ATOM     11 CL   LIG    1        2.151   0.792   0.803  0.00  0.00    -0.040 Cl
BRANCH   5  13
ATOM     12  C   LIG    1       -1.194   2.909   1.371  0.00  0.00    +0.210 C 
ATOM     13  N   LIG    1       -0.698   1.536   1.207  0.00  0.00    -0.500 N 
ATOM     14  C   LIG    1       -1.788   0.624   0.837  0.00  0.00    +0.210 C 
ENDBRANCH   5  13
ENDBRANCH   1   8
BRANCH   3  15
ATOM     15  C   LIG    1        3.934  -0.530   7.180  0.00  0.00    +0.320 C 
BRANCH  15  16
ATOM     16  N   LIG    1        5.335  -0.104   7.146  0.00  0.00    -0.720 N 
ATOM     17  H   LIG    1        5.652   0.463   6.426  0.00  0.00    +0.410 HD
ATOM     18  C   LIG    1        6.184  -0.501   8.115  0.00  0.00    +0.600 C 
ATOM     19  O   LIG    1        5.786  -1.212   9.018  0.00  0.00    -0.530 OA
BRANCH  18  20
ATOM     20  C   LIG    1        7.586  -0.074   8.081  0.00  0.00    -0.280 A 
ATOM     21  C   LIG    1        8.535  -0.407   8.998  0.00  0.00    +0.110 A 
ATOM     22  C   LIG    1        9.784   0.124   8.736  0.00  0.00    -0.120 A 
ATOM     23  C   LIG    1        9.835   0.879   7.615  0.00  0.00    -0.190 A 
ATOM     24  C   LIG    1       11.085   1.574   7.107  0.00  0.00    +0.110 C 
ATOM     25  C   LIG    1       12.112   1.630   8.241  0.00  0.00    +0.020 C 
ATOM     26  C   LIG    1       12.262   0.231   8.847  0.00  0.00    +0.020 C 
ATOM     27  C   LIG    1       10.994  -0.117   9.629  0.00  0.00    +0.100 C 
ATOM     28  S   LIG    1        8.312   0.941   6.846  0.00  0.00    +0.200 S 
ENDBRANCH  18  20
ENDBRANCH  15  16
ENDBRANCH   3  15
TORSDOF 5
