REMARK  Name = ZINCkj00000y7L6B.1
REMARK                            x       y       z     vdW  Elec       q    Type
REMARK                         _______ _______ _______ _____ _____    ______ ____
ROOT
ATOM      1  N   LIG    1        1.227   7.101  -2.509  0.00  0.00    -0.580 N 
ATOM      2  C   LIG    1        0.235   6.191  -2.392  0.00  0.00    +0.530 C 
ATOM      3  C   LIG    1        0.456   5.518  -1.057  0.00  0.00    +0.240 C 
ATOM      4  C   LIG    1        0.634   4.006  -1.226  0.00  0.00    +0.250 C 
ATOM      5  N   LIG    1        1.217   3.461   0.009  0.00  0.00    -0.480 NA
ATOM      6  C   LIG    1        2.574   3.962   0.258  0.00  0.00    +0.220 C 
ATOM      7  C   LIG    1        2.535   5.483   0.479  0.00  0.00    +0.380 C 
ATOM      8  N   LIG    1        1.766   6.056  -0.629  0.00  0.00    -0.630 N 
ATOM      9  O   LIG    1       -0.647   5.963  -3.192  0.00  0.00    -0.450 OA
ATOM     10  C   LIG    1        2.072   7.047  -1.468  0.00  0.00    +0.710 C 
ATOM     11  O   LIG    1        3.005   7.810  -1.308  0.00  0.00    -0.520 OA
ENDROOT
BRANCH   5  12
ATOM     12  C   LIG    1        1.192   2.069   0.002  0.00  0.00    +0.260 C 
ATOM     13  C   LIG    1        2.375   1.333  -0.058  0.00  0.00    +0.010 C 
ATOM     14  C   LIG    1        2.308  -0.044  -0.064  0.00  0.00    +0.390 C 
ATOM     15  N   LIG    1        1.144  -0.665  -0.014  0.00  0.00    -0.460 NA
ATOM     16  C   LIG    1        0.003  -0.005   0.043  0.00  0.00    +0.400 C 
ATOM     17  H   LIG    1        1.127  -1.635  -0.020  0.00  0.00    +0.460 HD
ATOM     18  C   LIG    1       -0.017   1.374   0.054  0.00  0.00    -0.150 C 
ATOM     19 BR   LIG    1       -1.658   2.310   0.137  0.00  0.00    +0.070 Br
ENDBRANCH   5  12
BRANCH   1  21
ATOM     20  C   LIG    1        0.605   9.322  -3.321  0.00  0.00    +0.040 C 
ATOM     21  C   LIG    1        1.363   8.030  -3.633  0.00  0.00    +0.310 C 
ENDBRANCH   1  21
TORSDOF 2
