REMARK  Name = ZINCrH00000No4OV.0
REMARK                            x       y       z     vdW  Elec       q    Type
REMARK                         _______ _______ _______ _____ _____    ______ ____
ROOT
ATOM      1  N   LIG    1        2.280   4.309   0.003  0.00  0.00    -0.720 N 
ATOM      2  H   LIG    1        3.126   3.835  -0.007  0.00  0.00    +0.400 HD
ATOM      3  C   LIG    1        1.122   3.619   0.011  0.00  0.00    +0.540 C 
ATOM      4  O   LIG    1        0.060   4.213   0.024  0.00  0.00    -0.490 OA
ENDROOT
BRANCH   1   5
ATOM      5  C   LIG    1        2.260   5.774   0.011  0.00  0.00    +0.280 C 
ATOM      6  C   LIG    1        1.520   6.280  -1.228  0.00  0.00    +0.040 C 
ATOM      7  C   LIG    1        2.236   5.787  -2.487  0.00  0.00    +0.030 C 
ATOM      8  C   LIG    1        3.672   6.316  -2.498  0.00  0.00    +0.010 C 
ATOM      9  C   LIG    1        4.412   5.810  -1.258  0.00  0.00    +0.010 C 
ATOM     10  C   LIG    1        3.695   6.303   0.001  0.00  0.00    +0.040 C 
BRANCH   5  14
ATOM     11  C   LIG    1       -1.135   6.531   3.613  0.00  0.00    +0.230 C 
ATOM     12  C   LIG    1        0.111   6.571   2.767  0.00  0.00    +0.160 A 
ATOM     13  N   LIG    1        0.313   5.924   1.644  0.00  0.00    -0.430 NA
ATOM     14  C   LIG    1        1.555   6.260   1.251  0.00  0.00    +0.160 A 
ATOM     15  N   LIG    1        2.032   7.084   2.135  0.00  0.00    -0.380 NA
ATOM     16  O   LIG    1        1.218   7.276   3.013  0.00  0.00    +0.070 OA
ENDBRANCH   5  14
ENDBRANCH   1   5
BRANCH   3  17
ATOM     17  C   LIG    1        1.142   2.156   0.003  0.00  0.00    -0.070 C 
ATOM     18  C   LIG    1       -0.018   1.466   0.010  0.00  0.00    +0.130 C 
BRANCH  18  19
ATOM     19  C   LIG    1        0.002  -0.004   0.002  0.00  0.00    -0.050 A 
ATOM     20  C   LIG    1        1.222  -0.689  -0.013  0.00  0.00    +0.060 A 
ATOM     21  C   LIG    1        1.237  -2.068  -0.020  0.00  0.00    -0.020 A 
ATOM     22  C   LIG    1        0.044  -2.781  -0.013  0.00  0.00    +0.050 A 
ATOM     23  O   LIG    1       -0.203  -4.122  -0.018  0.00  0.00    -0.290 OA
ATOM     24  C   LIG    1       -1.572  -4.263   0.408  0.00  0.00    +0.440 C 
ATOM     25  O   LIG    1       -2.184  -3.023   0.007  0.00  0.00    -0.300 OA
ATOM     26  C   LIG    1       -1.176  -2.103   0.003  0.00  0.00    +0.050 A 
ATOM     27 CL   LIG    1        2.752  -2.916  -0.039  0.00  0.00    -0.040 Cl
ATOM     28  C   LIG    1       -1.199  -0.723   0.015  0.00  0.00    +0.080 A 
ENDBRANCH  18  19
ENDBRANCH   3  17
TORSDOF 4
