REMARK  Name = ZINCrH000004tpO4.0
REMARK                            x       y       z     vdW  Elec       q    Type
REMARK                         _______ _______ _______ _____ _____    ______ ____
ROOT
ATOM      1  N   LIG    1        1.009  -2.059   3.553  0.00  0.00    -0.430 N 
ATOM      2  C   LIG    1       -0.248  -2.419   2.882  0.00  0.00    +0.220 C 
ATOM      3  C   LIG    1       -0.196  -1.954   1.425  0.00  0.00    +0.210 C 
ATOM      4  N   LIG    1        0.022  -0.501   1.384  0.00  0.00    -0.540 NA
ATOM      5  C   LIG    1        1.279  -0.141   2.055  0.00  0.00    +0.200 C 
ATOM      6  C   LIG    1        1.227  -0.606   3.513  0.00  0.00    +0.210 C 
ENDROOT
BRANCH   1   8
ATOM      7  C   LIG    1        2.050  -2.371   5.772  0.00  0.00    +0.020 A 
ATOM      8  C   LIG    1        1.028  -2.526   4.851  0.00  0.00    +0.230 A 
ATOM      9  O   LIG    1        0.054  -3.216   5.472  0.00  0.00    -0.200 OA
ATOM     10  C   LIG    1        0.460  -3.486   6.723  0.00  0.00    +0.240 A 
ATOM     11  N   LIG    1        1.643  -2.987   6.918  0.00  0.00    -0.430 NA
BRANCH  10  12
ATOM     12  C   LIG    1       -0.339  -4.247   7.749  0.00  0.00    +0.060 C 
ATOM     13  C   LIG    1        0.195  -4.274   9.183  0.00  0.00    +0.080 C 
ATOM     14  C   LIG    1        0.274  -5.531   8.312  0.00  0.00    +0.060 C 
ENDBRANCH  10  12
BRANCH   7  16
ATOM     15  N   LIG    1        4.282  -1.158   5.394  0.00  0.00    -0.390 NA
ATOM     16  C   LIG    1        3.295  -1.695   5.561  0.00  0.00    +0.300 C 
ENDBRANCH   7  16
ENDBRANCH   1   8
BRANCH   4  17
ATOM     17  C   LIG    1        0.002  -0.004   0.002  0.00  0.00    +0.230 C 
BRANCH  17  18
ATOM     18  C   LIG    1       -0.018   1.503   0.010  0.00  0.00    -0.080 A 
ATOM     19  C   LIG    1        1.169   2.210   0.003  0.00  0.00    +0.050 A 
ATOM     20  C   LIG    1        1.150   3.592   0.010  0.00  0.00    +0.020 A 
ATOM     21  C   LIG    1       -0.056   4.267   0.025  0.00  0.00    +0.070 A 
ATOM     22  C   LIG    1       -1.244   3.560   0.031  0.00  0.00    -0.180 A 
ATOM     23  C   LIG    1       -1.225   2.178   0.020  0.00  0.00    +0.090 A 
BRANCH  22  24
ATOM     24  C   LIG    1       -2.559   4.295   0.046  0.00  0.00    +0.510 C 
ATOM     25  F   LIG    1       -3.278   3.942   1.193  0.00  0.00    -0.180 F 
ATOM     26  F   LIG    1       -3.298   3.953  -1.091  0.00  0.00    -0.180 F 
ATOM     27  F   LIG    1       -2.322   5.674   0.051  0.00  0.00    -0.180 F 
ENDBRANCH  22  24
ENDBRANCH  17  18
ENDBRANCH   4  17
TORSDOF 6
