REMARK  Name = ZINCpk00000y6v30.0
REMARK                            x       y       z     vdW  Elec       q    Type
REMARK                         _______ _______ _______ _____ _____    ______ ____
ROOT
ATOM      1  N   LIG    1        1.119   5.980   0.087  0.00  0.00    -0.720 N 
ATOM      2  H   LIG    1        1.967   5.510   0.074  0.00  0.00    +0.400 HD
ATOM      3  C   LIG    1       -0.036   5.287   0.130  0.00  0.00    +0.560 C 
ATOM      4  O   LIG    1       -1.099   5.876   0.145  0.00  0.00    -0.530 OA
ENDROOT
BRANCH   1   9
ATOM      5  C   LIG    1        0.642   6.332  -3.736  0.00  0.00    +0.110 C 
ATOM      6  C   LIG    1        1.992   6.841  -3.301  0.00  0.00    +0.510 C 
ATOM      7  N   LIG    1        2.112   7.542  -2.157  0.00  0.00    -0.610 N 
ATOM      8  C   LIG    1        0.921   7.925  -1.386  0.00  0.00    +0.290 C 
ATOM      9  C   LIG    1        1.093   7.445   0.059  0.00  0.00    +0.240 C 
ATOM     10  C   LIG    1        2.408   7.990   0.620  0.00  0.00    +0.060 C 
ATOM     11  C   LIG    1        3.579   7.457  -0.209  0.00  0.00    +0.040 C 
ATOM     12  C   LIG    1        3.435   7.938  -1.656  0.00  0.00    +0.220 C 
ATOM     13  O   LIG    1        2.971   6.619  -3.982  0.00  0.00    -0.520 OA
BRANCH  12  14
ATOM     14  C   LIG    1        4.523   7.299  -2.522  0.00  0.00    +0.470 C 
ATOM     15  F   LIG    1        4.305   5.920  -2.603  0.00  0.00    -0.170 F 
ATOM     16  F   LIG    1        5.776   7.540  -1.949  0.00  0.00    -0.190 F 
ATOM     17  F   LIG    1        4.482   7.854  -3.806  0.00  0.00    -0.160 F 
ENDBRANCH  12  14
ENDBRANCH   1   9
BRANCH   3  18
ATOM     18  C   LIG    1       -0.010   3.808   0.158  0.00  0.00    -0.150 A 
ATOM     19  C   LIG    1        1.211   3.130   0.140  0.00  0.00    +0.070 A 
ATOM     20  C   LIG    1        1.237   1.749   0.167  0.00  0.00    +0.010 A 
ATOM     21  C   LIG    1        0.059   1.031   0.212  0.00  0.00    +0.070 A 
ATOM     22  C   LIG    1       -1.169   1.697   0.225  0.00  0.00    -0.150 A 
ATOM     23  C   LIG    1       -1.202   3.090   0.203  0.00  0.00    +0.150 A 
BRANCH  22  24
ATOM     24  C   LIG    1       -2.430   0.926   0.266  0.00  0.00    +0.560 C 
ATOM     25  O   LIG    1       -3.497   1.507   0.277  0.00  0.00    -0.530 OA
ATOM     26  N   LIG    1       -2.396  -0.421   0.291  0.00  0.00    -0.850 N 
ATOM     27  H   LIG    1       -3.223  -0.927   0.318  0.00  0.00    +0.410 HD
ATOM     28  H   LIG    1       -1.544  -0.885   0.282  0.00  0.00    +0.400 HD
ENDBRANCH  22  24
ENDBRANCH   3  18
TORSDOF 4
