REMARK  Name = ZINCqH0000050jRf.0
REMARK                            x       y       z     vdW  Elec       q    Type
REMARK                         _______ _______ _______ _____ _____    ______ ____
ROOT
ATOM      1  O   LIG    1       -2.488  -0.339   0.012  0.00  0.00    -0.330 OA
ENDROOT
BRANCH   1   2
ATOM      2  C   LIG    1       -3.776  -1.011   0.014  0.00  0.00    +0.170 C 
ATOM      3  C   LIG    1       -4.234  -1.239  -1.427  0.00  0.00    +0.080 C 
BRANCH   2   4
ATOM      4  C   LIG    1       -3.648  -2.338   0.717  0.00  0.00    +0.400 C 
ATOM      5  O   LIG    1       -2.551  -2.809   0.929  0.00  0.00    -0.430 OA
BRANCH   4  10
ATOM      6  C   LIG    1       -8.363  -5.167   2.395  0.00  0.00    +0.100 C 
ATOM      7  C   LIG    1       -7.127  -4.426   1.955  0.00  0.00    -0.050 A 
ATOM      8  C   LIG    1       -7.248  -3.207   1.310  0.00  0.00    +0.000 A 
ATOM      9  C   LIG    1       -6.122  -2.520   0.909  0.00  0.00    +0.050 A 
ATOM     10  C   LIG    1       -4.855  -3.063   1.146  0.00  0.00    -0.170 A 
ATOM     11  C   LIG    1       -4.741  -4.295   1.798  0.00  0.00    +0.090 A 
ATOM     12  C   LIG    1       -5.876  -4.967   2.198  0.00  0.00    -0.100 A 
ATOM     13  C   LIG    1       -5.755  -6.295   2.901  0.00  0.00    +0.090 C 
ENDBRANCH   4  10
ENDBRANCH   2   4
ENDBRANCH   1   2
BRANCH   1  14
ATOM     14  C   LIG    1       -2.502   1.008   0.019  0.00  0.00    +0.510 C 
ATOM     15  O   LIG    1       -3.560   1.605   0.028  0.00  0.00    -0.490 OA
BRANCH  14  16
ATOM     16  C   LIG    1       -1.230   1.759   0.017  0.00  0.00    -0.140 A 
ATOM     17  C   LIG    1       -0.013   1.076   0.008  0.00  0.00    +0.160 A 
ATOM     18  C   LIG    1        1.171   1.783   0.001  0.00  0.00    +0.020 A 
ATOM     19  C   LIG    1        1.154   3.168   0.008  0.00  0.00    +0.080 A 
ATOM     20  C   LIG    1       -0.051   3.851   0.023  0.00  0.00    -0.670 A 
ATOM     21 CL   LIG    1        2.649   4.051  -0.001  0.00  0.00    -0.030 Cl
ATOM     22  C   LIG    1       -1.241   3.156   0.030  0.00  0.00    +0.220 A 
BRANCH  20  23
ATOM     23  S   LIG    1       -0.062   5.613   0.031  0.00  0.00    +2.490 S 
ATOM     24  O   LIG    1       -1.441   5.955   0.020  0.00  0.00    -0.930 OA
ATOM     25  O   LIG    1        0.791   5.974  -1.046  0.00  0.00    -0.910 OA
ATOM     26  C   LIG    1        0.693   6.063   1.618  0.00  0.00    -0.240 C 
ENDBRANCH  20  23
ENDBRANCH  14  16
ENDBRANCH   1  14
TORSDOF 6
