REMARK  Name = ZINCvU0000000Dod.0
REMARK                            x       y       z     vdW  Elec       q    Type
REMARK                         _______ _______ _______ _____ _____    ______ ____
ROOT
ATOM      1  O   LIG    1       -0.788  -5.568   0.099  0.00  0.00    -0.490 OA
ATOM      2  C   LIG    1       -0.300  -4.466   0.239  0.00  0.00    +0.520 C 
ATOM      3  C   LIG    1        1.141  -4.350   0.654  0.00  0.00    +0.110 C 
ATOM      4  C   LIG    1        1.825  -3.180  -0.060  0.00  0.00    +0.320 C 
ATOM      5  N   LIG    1        0.930  -2.022  -0.022  0.00  0.00    -0.500 N 
ATOM      6  C   LIG    1        1.236  -0.681  -0.015  0.00  0.00    +0.070 A 
ATOM      7  C   LIG    1        2.419   0.044  -0.021  0.00  0.00    +0.010 A 
ATOM      8  C   LIG    1        2.382   1.423  -0.013  0.00  0.00    +0.030 A 
ATOM      9  C   LIG    1        1.168   2.094   0.002  0.00  0.00    +0.010 A 
ATOM     10  C   LIG    1       -0.017   1.392   0.010  0.00  0.00    +0.070 A 
ATOM     11  C   LIG    1        0.002  -0.004   0.002  0.00  0.00    +0.060 A 
ATOM     12  N   LIG    1       -0.977  -0.950   0.006  0.00  0.00    -0.490 NA
ATOM     13  C   LIG    1       -0.439  -2.134   0.009  0.00  0.00    +0.510 A 
ATOM     14  N   LIG    1       -1.064  -3.375   0.019  0.00  0.00    -0.520 N 
ENDROOT
BRANCH   4  15
ATOM     15  C   LIG    1        2.104  -3.556  -1.492  0.00  0.00    -0.120 A 
ATOM     16  C   LIG    1        1.062  -3.895  -2.334  0.00  0.00    +0.060 A 
ATOM     17  C   LIG    1        1.318  -4.239  -3.648  0.00  0.00    +0.030 A 
ATOM     18  C   LIG    1        2.617  -4.245  -4.120  0.00  0.00    +0.080 A 
ATOM     19  C   LIG    1        3.660  -3.906  -3.278  0.00  0.00    -0.180 A 
ATOM     20  C   LIG    1        3.403  -3.557  -1.966  0.00  0.00    +0.090 A 
BRANCH  19  21
ATOM     21  C   LIG    1        5.076  -3.912  -3.793  0.00  0.00    +0.510 C 
ATOM     22  F   LIG    1        5.839  -4.821  -3.051  0.00  0.00    -0.170 F 
ATOM     23  F   LIG    1        5.624  -2.631  -3.666  0.00  0.00    -0.170 F 
ATOM     24  F   LIG    1        5.082  -4.290  -5.140  0.00  0.00    -0.170 F 
ENDBRANCH  19  21
ENDBRANCH   4  15
BRANCH  14  25
ATOM     25  C   LIG    1       -2.507  -3.496  -0.203  0.00  0.00    +0.380 C 
BRANCH  25  26
ATOM     26  C   LIG    1       -2.777  -3.662  -1.676  0.00  0.00    -0.120 A 
ATOM     27  C   LIG    1       -2.987  -2.550  -2.470  0.00  0.00    +0.040 A 
ATOM     28  C   LIG    1       -3.230  -2.702  -3.822  0.00  0.00    -0.010 A 
ATOM     29  C   LIG    1       -3.272  -3.967  -4.379  0.00  0.00    +0.010 A 
ATOM     30  C   LIG    1       -3.067  -5.079  -3.584  0.00  0.00    -0.010 A 
ATOM     31  C   LIG    1       -2.819  -4.927  -2.233  0.00  0.00    +0.040 A 
ENDBRANCH  25  26
ENDBRANCH  14  25
TORSDOF 4
