REMARK  Name = ZINCrH000004t6sw.0
REMARK                            x       y       z     vdW  Elec       q    Type
REMARK                         _______ _______ _______ _____ _____    ______ ____
ROOT
ATOM      1  C   LIG    1       -3.599  -0.323  -0.093  0.00  0.00    +0.550 C 
ATOM      2  N   LIG    1       -2.404   0.161  -0.487  0.00  0.00    -0.710 N 
ATOM      3  H   LIG    1       -1.781  -0.411  -0.961  0.00  0.00    +0.400 HD
ATOM      4  O   LIG    1       -4.414   0.416   0.422  0.00  0.00    -0.480 OA
ENDROOT
BRANCH   1  10
ATOM      5  C   LIG    1       -7.398  -5.155   0.401  0.00  0.00    +0.340 C 
ATOM      6  N   LIG    1       -6.683  -3.877   0.393  0.00  0.00    -0.480 N 
ATOM      7  C   LIG    1       -7.150  -2.690   0.865  0.00  0.00    +0.510 A 
ATOM      8  N   LIG    1       -6.253  -1.759   0.700  0.00  0.00    -0.460 NA
ATOM      9  C   LIG    1       -5.159  -2.283   0.115  0.00  0.00    +0.060 A 
ATOM     10  C   LIG    1       -3.917  -1.753  -0.288  0.00  0.00    -0.040 A 
ATOM     11  C   LIG    1       -2.999  -2.621  -0.882  0.00  0.00    +0.000 A 
ATOM     12  C   LIG    1       -3.332  -3.954  -1.043  0.00  0.00    +0.300 A 
ATOM     13  N   LIG    1       -4.500  -4.424  -0.658  0.00  0.00    -0.460 NA
ATOM     14  C   LIG    1       -5.412  -3.653  -0.094  0.00  0.00    +0.230 A 
ENDBRANCH   1  10
BRANCH   2  15
ATOM     15  C   LIG    1       -2.047   1.552  -0.199  0.00  0.00    +0.190 C 
ATOM     16  C   LIG    1       -0.601   1.909  -0.581  0.00  0.00    +0.050 C 
ATOM     17  C   LIG    1       -0.199   1.459   0.833  0.00  0.00    +0.020 C 
ATOM     18  C   LIG    1       -1.635   1.795   1.266  0.00  0.00    +0.040 C 
BRANCH  15  19
ATOM     19  C   LIG    1       -3.067   2.537  -0.710  0.00  0.00    -0.060 A 
ATOM     20  C   LIG    1       -3.192   3.776  -0.112  0.00  0.00    +0.050 A 
ATOM     21  C   LIG    1       -4.127   4.679  -0.582  0.00  0.00    +0.020 A 
ATOM     22  C   LIG    1       -4.938   4.342  -1.649  0.00  0.00    +0.070 A 
ATOM     23  C   LIG    1       -4.812   3.103  -2.248  0.00  0.00    -0.180 A 
ATOM     24  C   LIG    1       -3.874   2.202  -1.782  0.00  0.00    +0.070 A 
BRANCH  23  25
ATOM     25  C   LIG    1       -5.696   2.735  -3.413  0.00  0.00    +0.510 C 
ATOM     26  F   LIG    1       -6.452   1.604  -3.086  0.00  0.00    -0.170 F 
ATOM     27  F   LIG    1       -4.902   2.459  -4.531  0.00  0.00    -0.180 F 
ATOM     28  F   LIG    1       -6.554   3.802  -3.702  0.00  0.00    -0.180 F 
ENDBRANCH  23  25
ENDBRANCH  15  19
ENDBRANCH   2  15
TORSDOF 4
