REMARK  Name = ZINCrD00000F5Llp.0
REMARK                            x       y       z     vdW  Elec       q    Type
REMARK                         _______ _______ _______ _____ _____    ______ ____
ROOT
ATOM      1  C   LIG    1        1.202   2.072   0.011  0.00  0.00    +0.510 C 
ATOM      2  O   LIG    1        2.264   1.478   0.007  0.00  0.00    -0.510 OA
ENDROOT
BRANCH   1   4
ATOM      3  C   LIG    1        0.003  -0.004   0.015  0.00  0.00    +0.170 C 
ATOM      4  C   LIG    1       -0.016   1.347   0.016  0.00  0.00    -0.060 C 
BRANCH   3   9
ATOM      5  C   LIG    1       -2.446  -2.859   0.023  0.00  0.00    +0.110 A 
ATOM      6  C   LIG    1       -3.649  -2.172   0.028  0.00  0.00    -0.040 A 
ATOM      7  C   LIG    1       -3.664  -0.786   0.029  0.00  0.00    +0.050 A 
ATOM      8  C   LIG    1       -2.484  -0.077   0.025  0.00  0.00    +0.020 A 
ATOM      9  C   LIG    1       -1.259  -0.756   0.020  0.00  0.00    -0.070 A 
ATOM     10  C   LIG    1       -1.245  -2.159   0.013  0.00  0.00    +0.100 A 
BRANCH   5  12
ATOM     11  C   LIG    1       -3.711  -4.873   0.027  0.00  0.00    +0.240 C 
ATOM     12  O   LIG    1       -2.441  -4.219   0.022  0.00  0.00    -0.310 OA
ENDBRANCH   5  12
BRANCH  10  13
ATOM     13  O   LIG    1       -0.064  -2.829   0.003  0.00  0.00    -0.320 OA
ATOM     14  C   LIG    1        0.508  -3.155   1.271  0.00  0.00    +0.230 C 
ENDBRANCH  10  13
ENDBRANCH   3   9
ENDBRANCH   1   4
BRANCH   1  15
ATOM     15  O   LIG    1        1.184   3.421   0.012  0.00  0.00    -0.330 OA
BRANCH  15  16
ATOM     16  C   LIG    1        2.448   4.087   0.007  0.00  0.00    +0.270 C 
BRANCH  16  17
ATOM     17  C   LIG    1        2.230   5.579   0.009  0.00  0.00    +0.520 C 
ATOM     18  N   LIG    1        3.288   6.414   0.005  0.00  0.00    -0.670 N 
ATOM     19  H   LIG    1        4.187   6.058   0.069  0.00  0.00    +0.420 HD
ATOM     20  O   LIG    1        1.103   6.027   0.013  0.00  0.00    -0.490 OA
BRANCH  18  21
ATOM     21  C   LIG    1        3.087   7.796  -0.091  0.00  0.00    +0.170 A 
ATOM     22  C   LIG    1        3.995   8.583  -0.787  0.00  0.00    -0.010 A 
ATOM     23  C   LIG    1        3.793   9.946  -0.886  0.00  0.00    +0.070 A 
ATOM     24  C   LIG    1        2.694  10.529  -0.283  0.00  0.00    -0.130 A 
ATOM     25  C   LIG    1        1.789   9.748   0.417  0.00  0.00    +0.120 A 
ATOM     26  F   LIG    1        0.716  10.321   1.005  0.00  0.00    -0.130 F 
ATOM     27  C   LIG    1        2.480  12.017  -0.388  0.00  0.00    +0.110 C 
ATOM     28  C   LIG    1        1.984   8.382   0.514  0.00  0.00    +0.000 A 
ENDBRANCH  18  21
ENDBRANCH  16  17
ENDBRANCH  15  16
ENDBRANCH   1  15
TORSDOF 8
