REMARK  Name = ZINCrH000004rZmV.0
REMARK                            x       y       z     vdW  Elec       q    Type
REMARK                         _______ _______ _______ _____ _____    ______ ____
ROOT
ATOM      1  C   LIG    1        1.472   1.582   2.441  0.00  0.00    +0.150 A 
ATOM      2  N   LIG    1        2.206   1.161   1.433  0.00  0.00    -0.290 NA
ATOM      3  N   LIG    1        3.537   1.078   1.863  0.00  0.00    -0.400 N 
ATOM      4  C   LIG    1        3.584   1.462   3.165  0.00  0.00    +0.370 A 
ATOM      5  C   LIG    1        2.319   1.785   3.546  0.00  0.00    -0.180 A 
ENDROOT
BRANCH   1  12
ATOM      6  C   LIG    1       -0.013   1.086   0.008  0.00  0.00    +0.100 C 
ATOM      7  C   LIG    1       -0.718   1.572   1.248  0.00  0.00    -0.060 A 
ATOM      8  C   LIG    1       -2.081   1.789   1.228  0.00  0.00    -0.010 A 
ATOM      9  C   LIG    1       -2.730   2.231   2.367  0.00  0.00    +0.010 A 
ATOM     10  C   LIG    1       -2.017   2.467   3.528  0.00  0.00    +0.000 A 
ATOM     11  C   LIG    1       -0.653   2.257   3.558  0.00  0.00    +0.040 A 
ATOM     12  C   LIG    1        0.005   1.808   2.415  0.00  0.00    -0.020 A 
ENDBRANCH   1  12
BRANCH   4  13
ATOM     13  N   LIG    1        4.723   1.520   3.963  0.00  0.00    -0.730 N 
ATOM     14  H   LIG    1        5.585   1.272   3.596  0.00  0.00    +0.400 HD
BRANCH  13  15
ATOM     15  C   LIG    1        4.618   1.956   5.358  0.00  0.00    +0.350 C 
BRANCH  15  16
ATOM     16  C   LIG    1        5.983   1.931   5.997  0.00  0.00    -0.200 C 
ATOM     17  C   LIG    1        6.717   3.038   6.037  0.00  0.00    +0.090 C 
ATOM     18  C   LIG    1        8.064   2.966   6.641  0.00  0.00    -0.140 A 
ATOM     19  C   LIG    1        8.780   4.113   6.962  0.00  0.00    +0.060 A 
ATOM     20  C   LIG    1       10.033   3.997   7.533  0.00  0.00    -0.020 A 
ATOM     21  C   LIG    1       10.577   2.748   7.777  0.00  0.00    +0.050 A 
ATOM     22  C   LIG    1        9.879   1.601   7.442  0.00  0.00    -0.010 A 
ATOM     23  C   LIG    1        8.627   1.701   6.865  0.00  0.00    +0.130 A 
ATOM     24  O   LIG    1        7.934   0.597   6.487  0.00  0.00    -0.310 OA
ATOM     25  C   LIG    1        6.509   0.651   6.592  0.00  0.00    +0.290 C 
ENDBRANCH  15  16
ENDBRANCH  13  15
ENDBRANCH   4  13
BRANCH   3  26
ATOM     26  C   LIG    1        4.678   0.651   1.050  0.00  0.00    +0.340 C 
BRANCH  26  27
ATOM     27  C   LIG    1        5.294   1.867   0.356  0.00  0.00    +0.170 C 
BRANCH  27  28
ATOM     28  O   LIG    1        6.407   1.451  -0.437  0.00  0.00    -0.570 OA
ATOM     29  H   LIG    1        6.848   2.172  -0.907  0.00  0.00    +0.390 HD
ENDBRANCH  27  28
ENDBRANCH  26  27
ENDBRANCH   3  26
TORSDOF 7
