REMARK  Name = ZINCrD00000F5LCu.0
REMARK                            x       y       z     vdW  Elec       q    Type
REMARK                         _______ _______ _______ _____ _____    ______ ____
ROOT
ATOM      1  C   LIG    1        4.987  -2.764  -0.062  0.00  0.00    +0.260 C 
ATOM      2  C   LIG    1        5.458  -2.975  -1.518  0.00  0.00    -0.020 C 
ATOM      3  C   LIG    1        6.104  -4.384  -1.509  0.00  0.00    +0.020 C 
ATOM      4  C   LIG    1        5.182  -5.180  -0.550  0.00  0.00    +0.040 C 
ATOM      5  C   LIG    1        4.812  -4.162   0.539  0.00  0.00    -0.090 C 
ATOM      6  C   LIG    1        3.472  -4.414   1.235  0.00  0.00    +0.020 C 
ATOM      7  C   LIG    1        4.262  -5.227   2.276  0.00  0.00    +0.010 C 
ATOM      8  C   LIG    1        5.491  -4.383   1.892  0.00  0.00    +0.020 C 
ENDROOT
BRANCH   1  10
ATOM      9  C   LIG    1        3.695  -0.698  -0.038  0.00  0.00    +0.560 C 
ATOM     10  N   LIG    1        3.710  -2.046  -0.046  0.00  0.00    -0.720 N 
ATOM     11  H   LIG    1        2.875  -2.540  -0.041  0.00  0.00    +0.400 HD
ATOM     12  O   LIG    1        4.741  -0.079  -0.044  0.00  0.00    -0.520 OA
BRANCH   9  17
ATOM     13  C   LIG    1        1.175   2.094   0.002  0.00  0.00    -0.100 A 
ATOM     14  C   LIG    1       -0.017   1.378   0.010  0.00  0.00    +0.020 A 
ATOM     15  C   LIG    1        0.002  -0.004   0.002  0.00  0.00    +0.040 A 
ATOM     16  C   LIG    1        1.204  -0.683  -0.014  0.00  0.00    +0.040 A 
ATOM     17  C   LIG    1        2.406   0.027  -0.021  0.00  0.00    -0.110 A 
ATOM     18  C   LIG    1        2.388   1.421  -0.013  0.00  0.00    +0.100 A 
BRANCH  13  19
ATOM     19  S   LIG    1        1.145   3.856   0.011  0.00  0.00    -0.080 S 
BRANCH  19  20
ATOM     20  C   LIG    1       -0.629   4.233   0.030  0.00  0.00    +0.220 C 
BRANCH  20  22
ATOM     21  C   LIG    1       -0.972   6.857   0.046  0.00  0.00    +0.080 C 
ATOM     22  C   LIG    1       -0.820   5.693   0.039  0.00  0.00    -0.200 C 
ENDBRANCH  20  22
ENDBRANCH  19  20
ENDBRANCH  13  19
ENDBRANCH   9  17
ENDBRANCH   1  10
BRANCH   2  23
ATOM     23  C   LIG    1        6.491  -1.915  -1.905  0.00  0.00    +0.270 C 
BRANCH  23  24
ATOM     24  N   LIG    1        6.834  -2.061  -3.322  0.00  0.00    -0.730 N 
ATOM     25  H   LIG    1        6.415  -2.757  -3.853  0.00  0.00    +0.400 HD
ATOM     26  C   LIG    1        7.731  -1.229  -3.888  0.00  0.00    +0.540 C 
ATOM     27  O   LIG    1        8.256  -0.357  -3.222  0.00  0.00    -0.540 OA
BRANCH  26  28
ATOM     28  C   LIG    1        8.075  -1.376  -5.310  0.00  0.00    -0.090 C 
ATOM     29  C   LIG    1        8.960  -0.555  -5.868  0.00  0.00    +0.140 C 
ENDBRANCH  26  28
ENDBRANCH  23  24
ENDBRANCH   2  23
TORSDOF 8
