REMARK  Name = ZINCrD000000AUJV.0
REMARK                            x       y       z     vdW  Elec       q    Type
REMARK                         _______ _______ _______ _____ _____    ______ ____
ROOT
ATOM      1  O   LIG    1       -5.890  -6.540   0.025  0.00  0.00    -0.530 OA
ATOM      2  C   LIG    1       -4.799  -7.076   0.012  0.00  0.00    +0.560 C 
ATOM      3  N   LIG    1       -3.679  -6.325   0.005  0.00  0.00    -0.730 N 
ATOM      4  H   LIG    1       -2.809  -6.753  -0.006  0.00  0.00    +0.400 HD
ENDROOT
BRANCH   2   5
ATOM      5  C   LIG    1       -4.700  -8.551   0.003  0.00  0.00    -0.130 A 
ATOM      6  C   LIG    1       -3.449  -9.169  -0.019  0.00  0.00    +0.040 A 
ATOM      7  C   LIG    1       -3.364 -10.546  -0.022  0.00  0.00    +0.030 A 
ATOM      8  C   LIG    1       -4.515 -11.314  -0.014  0.00  0.00    -0.080 A 
ATOM      9  C   LIG    1       -5.758 -10.707   0.001  0.00  0.00    +0.020 A 
ATOM     10  C   LIG    1       -5.857  -9.331   0.010  0.00  0.00    +0.080 A 
BRANCH   8  11
ATOM     11  C   LIG    1       -4.414 -12.818  -0.023  0.00  0.00    +0.340 C 
BRANCH  11  12
ATOM     12  N   LIG    1       -4.396 -13.298  -1.407  0.00  0.00    -0.620 N 
ATOM     13  C   LIG    1       -5.593 -13.656  -2.175  0.00  0.00    +0.260 C 
ATOM     14  C   LIG    1       -5.143 -13.670  -3.655  0.00  0.00    +0.040 C 
ATOM     15  C   LIG    1       -3.632 -13.969  -3.519  0.00  0.00    +0.050 C 
ATOM     16  C   LIG    1       -3.279 -13.473  -2.134  0.00  0.00    +0.520 C 
ATOM     17  O   LIG    1       -2.152 -13.264  -1.737  0.00  0.00    -0.530 OA
ENDBRANCH  11  12
ENDBRANCH   8  11
ENDBRANCH   2   5
BRANCH   3  18
ATOM     18  C   LIG    1       -3.777  -4.864   0.013  0.00  0.00    +0.260 C 
BRANCH  18  19
ATOM     19  C   LIG    1       -2.372  -4.258   0.003  0.00  0.00    +0.010 C 
BRANCH  19  20
ATOM     20  C   LIG    1       -2.474  -2.732   0.012  0.00  0.00    +0.040 C 
BRANCH  20  21
ATOM     21  C   LIG    1       -1.069  -2.126   0.001  0.00  0.00    +0.180 C 
BRANCH  21  22
ATOM     22  O   LIG    1       -1.165  -0.701   0.010  0.00  0.00    -0.320 OA
BRANCH  22  23
ATOM     23  C   LIG    1        0.002  -0.004   0.002  0.00  0.00    +0.130 A 
ATOM     24  C   LIG    1       -0.017   1.383   0.010  0.00  0.00    -0.020 A 
ATOM     25  C   LIG    1        1.171   2.089   0.002  0.00  0.00    +0.050 A 
ATOM     26  C   LIG    1        2.377   1.414  -0.013  0.00  0.00    -0.040 A 
ATOM     27  C   LIG    1        2.399   0.031  -0.021  0.00  0.00    +0.040 A 
ATOM     28  C   LIG    1        1.214  -0.679  -0.013  0.00  0.00    -0.080 A 
ENDBRANCH  22  23
ENDBRANCH  21  22
ENDBRANCH  20  21
ENDBRANCH  19  20
ENDBRANCH  18  19
ENDBRANCH   3  18
TORSDOF 9
