REMARK  Name = ZINCrD000000C3xg.0
REMARK                            x       y       z     vdW  Elec       q    Type
REMARK                         _______ _______ _______ _____ _____    ______ ____
ROOT
ATOM      1  C   LIG    1        0.012  -0.132   0.135  0.00  0.00    +0.240 C 
ATOM      2  C   LIG    1        0.232  -0.691  -1.274  0.00  0.00    +0.040 C 
ATOM      3  C   LIG    1       -0.026  -2.199  -1.267  0.00  0.00    +0.020 C 
ATOM      4  C   LIG    1       -1.477  -2.469  -0.861  0.00  0.00    +0.010 C 
ATOM      5  C   LIG    1       -1.716  -1.930   0.553  0.00  0.00    +0.290 C 
ATOM      6  N   LIG    1       -1.331  -0.513   0.594  0.00  0.00    -0.990 NA
ENDROOT
BRANCH   1   8
ATOM      7  O   LIG    1       -0.531   2.016  -0.678  0.00  0.00    -0.520 OA
ATOM      8  C   LIG    1        0.130   1.370   0.107  0.00  0.00    +0.520 C 
ATOM      9  N   LIG    1        0.974   1.996   0.952  0.00  0.00    -0.650 N 
ATOM     10  H   LIG    1        1.561   1.477   1.524  0.00  0.00    +0.410 HD
BRANCH   9  11
ATOM     11  C   LIG    1        1.003   3.393   1.003  0.00  0.00    +0.170 A 
ATOM     12  C   LIG    1        0.851   4.137  -0.160  0.00  0.00    +0.020 A 
ATOM     13  C   LIG    1        0.878   5.515  -0.102  0.00  0.00    +0.030 A 
ATOM     14  C   LIG    1        1.064   6.161   1.109  0.00  0.00    -0.110 A 
ATOM     15  C   LIG    1        1.134   7.639   1.430  0.00  0.00    +0.070 C 
ATOM     16  C   LIG    1        0.913   7.733   2.954  0.00  0.00    +0.030 C 
ATOM     17  C   LIG    1        1.408   6.356   3.446  0.00  0.00    +0.070 C 
ATOM     18  C   LIG    1        1.221   5.424   2.268  0.00  0.00    -0.080 A 
ATOM     19  C   LIG    1        1.191   4.042   2.216  0.00  0.00    -0.010 A 
ENDBRANCH   9  11
ENDBRANCH   1   8
BRANCH   6  20
ATOM     20  S   LIG    1       -2.392   0.635   1.142  0.00  0.00    +2.680 S 
ATOM     21  O   LIG    1       -1.613   1.776   1.472  0.00  0.00    -0.940 OA
ATOM     22  O   LIG    1       -3.245  -0.019   2.071  0.00  0.00    -0.950 OA
BRANCH  20  23
ATOM     23  C   LIG    1       -3.406   1.101  -0.222  0.00  0.00    -0.670 A 
ATOM     24  C   LIG    1       -3.140   2.268  -0.913  0.00  0.00    +0.170 A 
ATOM     25  C   LIG    1       -3.932   2.632  -1.986  0.00  0.00    -0.020 A 
ATOM     26  C   LIG    1       -4.997   1.833  -2.361  0.00  0.00    +0.070 A 
ATOM     27  C   LIG    1       -5.266   0.669  -1.666  0.00  0.00    -0.020 A 
ATOM     28  C   LIG    1       -4.471   0.303  -0.596  0.00  0.00    +0.110 A 
ENDBRANCH  20  23
ENDBRANCH   6  20
TORSDOF 4
