REMARK  Name = ZINCvU0000000AMC.0
REMARK                            x       y       z     vdW  Elec       q    Type
REMARK                         _______ _______ _______ _____ _____    ______ ____
ROOT
ATOM      1  C   LIG    1        6.603   1.090   3.036  0.00  0.00    -0.160 A 
ATOM      2  C   LIG    1        5.509   0.771   3.851  0.00  0.00    +0.200 A 
ATOM      3  C   LIG    1        4.269   0.639   3.286  0.00  0.00    -0.710 A 
ATOM      4  C   LIG    1        4.076   0.830   1.923  0.00  0.00    +0.240 A 
ATOM      5  N   LIG    1        2.780   0.762   1.374  0.00  0.00    -0.570 N 
ATOM      6  C   LIG    1        2.573   1.695   0.281  0.00  0.00    +0.300 C 
ATOM      7  C   LIG    1        1.253   2.263   0.002  0.00  0.00    +0.020 C 
ATOM      8  C   LIG    1       -0.018   1.497   0.010  0.00  0.00    +0.020 C 
ATOM      9  C   LIG    1        0.002  -0.004   0.002  0.00  0.00    +0.060 C 
ATOM     10  C   LIG    1        0.803  -0.667   1.033  0.00  0.00    +0.120 C 
ATOM     11  C   LIG    1        1.838  -0.062   1.874  0.00  0.00    +0.560 C 
ATOM     12  N   LIG    1        1.745  -0.338   3.152  0.00  0.00    -0.940 NA
ATOM     13  C   LIG    1        5.160   1.133   1.106  0.00  0.00    +0.010 A 
ATOM     14  S   LIG    1        2.851   0.218   4.249  0.00  0.00    +2.630 S 
ATOM     15  O   LIG    1        3.219  -0.890   5.058  0.00  0.00    -0.940 OA
ATOM     16  O   LIG    1        2.334   1.435   4.771  0.00  0.00    -0.950 OA
ATOM     17  C   LIG    1        6.416   1.264   1.660  0.00  0.00    +0.080 A 
ATOM     18 CL   LIG    1        7.772   1.646   0.645  0.00  0.00    +0.000 Cl
ENDROOT
BRANCH   1  21
ATOM     19  N   LIG    1        8.123   1.073   4.950  0.00  0.00    -0.720 N 
ATOM     20  H   LIG    1        7.367   0.852   5.517  0.00  0.00    +0.400 HD
ATOM     21  C   LIG    1        7.946   1.242   3.625  0.00  0.00    +0.560 C 
ATOM     22  O   LIG    1        8.894   1.519   2.915  0.00  0.00    -0.500 OA
BRANCH  19  23
ATOM     23  C   LIG    1        9.458   1.224   5.536  0.00  0.00    +0.290 C 
BRANCH  23  24
ATOM     24  C   LIG    1        9.329   1.598   6.990  0.00  0.00    -0.100 A 
ATOM     25  C   LIG    1        8.353   1.009   7.771  0.00  0.00    +0.000 A 
ATOM     26  C   LIG    1        8.237   1.349   9.106  0.00  0.00    +0.020 A 
ATOM     27  C   LIG    1        9.093   2.284   9.658  0.00  0.00    +0.000 A 
ATOM     28  C   LIG    1       10.066   2.877   8.875  0.00  0.00    +0.020 A 
ATOM     29  C   LIG    1       10.184   2.534   7.541  0.00  0.00    +0.020 A 
ENDBRANCH  23  24
BRANCH  23  30
ATOM     30  C   LIG    1       10.220  -0.097   5.415  0.00  0.00    +0.020 C 
BRANCH  30  32
ATOM     31  C   LIG    1       11.222  -1.735   3.816  0.00  0.00    +0.000 C 
ATOM     32  C   LIG    1       10.460  -0.414   3.937  0.00  0.00    +0.010 C 
ENDBRANCH  30  32
ENDBRANCH  23  30
ENDBRANCH  19  23
ENDBRANCH   1  21
TORSDOF 5
