REMARK  Name = ZINCvU0000000Amc.1
REMARK                            x       y       z     vdW  Elec       q    Type
REMARK                         _______ _______ _______ _____ _____    ______ ____
ROOT
ATOM      1  N   LIG    1        6.389  -0.230   3.157  0.00  0.00    -0.520 NA
ATOM      2  C   LIG    1        6.075  -1.613   2.770  0.00  0.00    +0.200 C 
ATOM      3  C   LIG    1        5.508  -1.625   1.348  0.00  0.00    +0.190 C 
ATOM      4  N   LIG    1        4.307  -0.780   1.294  0.00  0.00    -0.530 NA
ATOM      5  C   LIG    1        4.622   0.602   1.681  0.00  0.00    +0.190 C 
ATOM      6  C   LIG    1        5.188   0.615   3.103  0.00  0.00    +0.180 C 
ENDROOT
BRANCH   1   7
ATOM      7  C   LIG    1        7.006  -0.183   4.489  0.00  0.00    +0.250 C 
ATOM      8  C   LIG    1        8.302  -0.997   4.479  0.00  0.00    +0.080 C 
BRANCH   7  12
ATOM      9  C   LIG    1        7.499   3.109   5.919  0.00  0.00    +0.210 A 
ATOM     10  N   LIG    1        7.980   3.250   4.706  0.00  0.00    -0.280 NA
ATOM     11  N   LIG    1        7.872   2.134   4.074  0.00  0.00    -0.250 NA
ATOM     12  C   LIG    1        7.314   1.247   4.850  0.00  0.00    +0.160 A 
ATOM     13  O   LIG    1        7.068   1.837   6.032  0.00  0.00    -0.220 OA
BRANCH   9  19
ATOM     14  C   LIG    1        8.395   7.787   7.407  0.00  0.00    +0.100 C 
ATOM     15  C   LIG    1        7.869   6.402   7.686  0.00  0.00    -0.090 A 
ATOM     16  C   LIG    1        7.329   6.106   8.924  0.00  0.00    +0.040 A 
ATOM     17  C   LIG    1        6.845   4.837   9.188  0.00  0.00    +0.010 A 
ATOM     18  C   LIG    1        6.893   3.861   8.215  0.00  0.00    +0.040 A 
ATOM     19  C   LIG    1        7.441   4.152   6.965  0.00  0.00    -0.020 A 
ATOM     20  C   LIG    1        7.928   5.434   6.705  0.00  0.00    +0.070 A 
ENDBRANCH   9  19
ENDBRANCH   7  12
ENDBRANCH   1   7
BRANCH   4  21
ATOM     21  C   LIG    1        3.690  -0.827  -0.038  0.00  0.00    +0.230 C 
BRANCH  21  22
ATOM     22  C   LIG    1        2.286  -0.285   0.039  0.00  0.00    -0.060 A 
ATOM     23  C   LIG    1        2.004   0.955  -0.447  0.00  0.00    +0.010 A 
ATOM     24  C   LIG    1        0.712   1.473  -0.384  0.00  0.00    +0.000 A 
ATOM     25  C   LIG    1       -0.305   0.755   0.166  0.00  0.00    +0.020 A 
ATOM     26  C   LIG    1       -0.052  -0.529   0.679  0.00  0.00    -0.050 A 
ATOM     27  C   LIG    1       -1.077  -1.300   1.253  0.00  0.00    +0.010 A 
ATOM     28  C   LIG    1       -0.795  -2.541   1.738  0.00  0.00    +0.010 A 
ATOM     29  C   LIG    1        0.497  -3.059   1.675  0.00  0.00    +0.000 A 
ATOM     30  C   LIG    1        1.515  -2.340   1.126  0.00  0.00    +0.040 A 
ATOM     31  C   LIG    1        1.262  -1.056   0.614  0.00  0.00    -0.030 A 
ENDBRANCH  21  22
ENDBRANCH   4  21
TORSDOF 5
