REMARK  Name = ZINCqH0000038FXi.0
REMARK                            x       y       z     vdW  Elec       q    Type
REMARK                         _______ _______ _______ _____ _____    ______ ____
ROOT
ATOM      1  N   LIG    1        1.142   3.496   0.009  0.00  0.00    -0.670 N 
ATOM      2  H   LIG    1        1.969   4.000   0.072  0.00  0.00    +0.420 HD
ATOM      3  C   LIG    1       -0.036   4.143  -0.078  0.00  0.00    +0.520 C 
ATOM      4  O   LIG    1       -1.075   3.516  -0.071  0.00  0.00    -0.510 OA
ENDROOT
BRANCH   1  10
ATOM      5  C   LIG    1       -0.741  -3.457   1.236  0.00  0.00    +0.230 C 
ATOM      6  C   LIG    1       -0.123  -2.139   0.848  0.00  0.00    +0.250 A 
ATOM      7  N   LIG    1       -0.624  -0.973   1.129  0.00  0.00    -0.480 NA
ATOM      8  C   LIG    1        0.196  -0.011   0.626  0.00  0.00    +0.040 A 
ATOM      9  C   LIG    1        0.160   1.384   0.627  0.00  0.00    +0.090 A 
ATOM     10  C   LIG    1        1.174   2.095   0.011  0.00  0.00    +0.140 A 
ATOM     11  C   LIG    1        2.226   1.425  -0.608  0.00  0.00    +0.040 A 
ATOM     12  C   LIG    1        2.269   0.047  -0.614  0.00  0.00    +0.070 A 
ATOM     13  C   LIG    1        1.260  -0.679  -0.000  0.00  0.00    -0.010 A 
ATOM     14  O   LIG    1        1.022  -2.000   0.161  0.00  0.00    -0.210 OA
ENDBRANCH   1  10
BRANCH   3  15
ATOM     15  C   LIG    1       -0.065   5.646  -0.183  0.00  0.00    +0.080 C 
BRANCH  15  16
ATOM     16  C   LIG    1       -1.516   6.125  -0.269  0.00  0.00    +0.220 C 
BRANCH  16  17
ATOM     17  C   LIG    1       -1.544   7.628  -0.375  0.00  0.00    +0.160 A 
ATOM     18  N   LIG    1       -1.521   8.322  -1.478  0.00  0.00    -0.270 NA
ATOM     19  N   LIG    1       -1.558   9.577  -1.196  0.00  0.00    -0.270 NA
ATOM     20  C   LIG    1       -1.605   9.727   0.106  0.00  0.00    +0.210 A 
ATOM     21  O   LIG    1       -1.603   8.494   0.651  0.00  0.00    -0.220 OA
BRANCH  20  22
ATOM     22  C   LIG    1       -1.658  11.010   0.840  0.00  0.00    -0.030 A 
ATOM     23  C   LIG    1       -1.712  11.018   2.235  0.00  0.00    +0.050 A 
ATOM     24  C   LIG    1       -1.756  12.218   2.913  0.00  0.00    +0.010 A 
ATOM     25  C   LIG    1       -1.757  13.412   2.214  0.00  0.00    +0.040 A 
ATOM     26  C   LIG    1       -1.709  13.411   0.832  0.00  0.00    +0.020 A 
ATOM     27  C   LIG    1       -1.660  12.218   0.141  0.00  0.00    +0.070 A 
ENDBRANCH  20  22
ENDBRANCH  16  17
ENDBRANCH  15  16
ENDBRANCH   3  15
TORSDOF 5
