REMARK  Name = ZINCpe000000Z2KG.0
REMARK                            x       y       z     vdW  Elec       q    Type
REMARK                         _______ _______ _______ _____ _____    ______ ____
ROOT
ATOM      1  C   LIG    1       -0.054   4.165   0.025  0.00  0.00    -0.120 A 
ATOM      2  C   LIG    1       -1.254   3.448   0.033  0.00  0.00    +0.130 A 
ATOM      3  C   LIG    1       -1.231   2.071   0.019  0.00  0.00    +0.060 A 
ATOM      4  C   LIG    1       -0.017   1.394   0.010  0.00  0.00    +0.210 A 
ATOM      5  C   LIG    1        1.179   2.104   0.002  0.00  0.00    -0.040 A 
ATOM      6  C   LIG    1        1.164   3.481   0.010  0.00  0.00    +0.190 A 
ENDROOT
BRANCH   4   7
ATOM      7  N   LIG    1        0.002  -0.004   0.002  0.00  0.00    -0.540 N 
ATOM      8  C   LIG    1        0.028  -0.734   1.124  0.00  0.00    +0.540 C 
ATOM      9  C   LIG    1        0.039  -2.203   0.761  0.00  0.00    +0.110 C 
ATOM     10  C   LIG    1        0.025  -2.195  -0.781  0.00  0.00    +0.110 C 
ATOM     11  O   LIG    1        0.039  -0.289   2.251  0.00  0.00    -0.470 OA
ATOM     12  C   LIG    1        0.001  -0.722  -1.128  0.00  0.00    +0.540 C 
ATOM     13  O   LIG    1       -0.015  -0.265  -2.250  0.00  0.00    -0.470 OA
ENDBRANCH   4   7
BRANCH   1  15
ATOM     14  O   LIG    1        0.970   6.263   0.027  0.00  0.00    -0.510 OA
ATOM     15  C   LIG    1       -0.074   5.641   0.034  0.00  0.00    +0.560 C 
ATOM     16  N   LIG    1       -1.251   6.299   0.048  0.00  0.00    -0.720 N 
ATOM     17  H   LIG    1       -2.084   5.802   0.053  0.00  0.00    +0.400 HD
BRANCH  16  18
ATOM     18  C   LIG    1       -1.270   7.763   0.057  0.00  0.00    +0.270 C 
BRANCH  18  19
ATOM     19  C   LIG    1       -2.720   8.254   0.073  0.00  0.00    +0.090 C 
ATOM     20  C   LIG    1       -3.414   8.170  -1.296  0.00  0.00    -0.010 C 
ATOM     21  C   LIG    1       -4.055   9.528  -0.966  0.00  0.00    +0.030 C 
ATOM     22  C   LIG    1       -2.854   9.782  -0.040  0.00  0.00    +0.060 C 
BRANCH  19  23
ATOM     23  O   LIG    1       -3.485   7.689   1.140  0.00  0.00    -0.530 OA
ATOM     24  H   LIG    1       -3.422   6.726   1.202  0.00  0.00    +0.370 HD
ENDBRANCH  19  23
ENDBRANCH  18  19
ENDBRANCH  16  18
ENDBRANCH   1  15
BRANCH   5  25
ATOM     25  N   LIG    1        2.469   1.379  -0.015  0.00  0.00    +0.030 N 
ATOM     26  O   LIG    1        2.483   0.161  -0.022  0.00  0.00    -0.160 OA
ATOM     27  O   LIG    1        3.517   2.000  -0.021  0.00  0.00    -0.130 OA
ENDBRANCH   5  25
TORSDOF 6
