REMARK  Name = ZINCtV00001bB38c.0
REMARK                            x       y       z     vdW  Elec       q    Type
REMARK                         _______ _______ _______ _____ _____    ______ ____
ROOT
ATOM      1  C   LIG    1        7.400   5.305   0.370  0.00  0.00    +0.110 A 
ATOM      2  C   LIG    1        6.241   6.068   0.390  0.00  0.00    +0.020 A 
ATOM      3  C   LIG    1        5.008   5.450   0.443  0.00  0.00    +0.040 A 
ATOM      4  C   LIG    1        4.927   4.064   0.477  0.00  0.00    +0.120 A 
ATOM      5  C   LIG    1        6.087   3.301   0.462  0.00  0.00    +0.070 A 
ATOM      6  C   LIG    1        7.320   3.920   0.404  0.00  0.00    -0.040 A 
ENDROOT
BRANCH   4   7
ATOM      7  N   LIG    1        3.677   3.437   0.532  0.00  0.00    -0.630 N 
ATOM      8  H   LIG    1        2.944   3.857   1.009  0.00  0.00    +0.420 HD
BRANCH   7   9
ATOM      9  C   LIG    1        3.487   2.222  -0.092  0.00  0.00    +0.470 A 
ATOM     10  N   LIG    1        4.445   1.679  -0.832  0.00  0.00    -0.580 NA
ATOM     11  C   LIG    1        4.275   0.513  -1.436  0.00  0.00    +0.550 A 
ATOM     12  N   LIG    1        3.165  -0.180  -1.350  0.00  0.00    -0.550 NA
ATOM     13  C   LIG    1        2.131   0.277  -0.627  0.00  0.00    +0.200 A 
ATOM     14  C   LIG    1        0.931  -0.438  -0.514  0.00  0.00    +0.050 A 
ATOM     15  C   LIG    1       -0.089   0.073   0.233  0.00  0.00    +0.100 A 
ATOM     16  C   LIG    1        0.043   1.295   0.887  0.00  0.00    -0.100 A 
ATOM     17  C   LIG    1        1.199   2.016   0.798  0.00  0.00    +0.100 A 
ATOM     18 BR   LIG    1       -1.400   1.968   1.907  0.00  0.00    -0.040 Br
ATOM     19  C   LIG    1        2.264   1.520   0.039  0.00  0.00    -0.190 A 
ENDBRANCH   7   9
ENDBRANCH   4   7
BRANCH   1  20
ATOM     20  O   LIG    1        8.614   5.914   0.317  0.00  0.00    -0.260 OA
BRANCH  20  24
ATOM     21  C   LIG    1       11.961   3.535  -0.076  0.00  0.00    -0.190 A 
ATOM     22  C   LIG    1       11.096   3.691  -1.143  0.00  0.00    +0.100 A 
ATOM     23  C   LIG    1        9.975   4.487  -1.014  0.00  0.00    +0.000 A 
ATOM     24  C   LIG    1        9.716   5.130   0.188  0.00  0.00    +0.120 A 
ATOM     25  C   LIG    1       10.588   4.975   1.256  0.00  0.00    +0.030 A 
ATOM     26  C   LIG    1       11.706   4.174   1.123  0.00  0.00    +0.100 A 
BRANCH  21  28
ATOM     27  F   LIG    1       14.256   3.440  -0.673  0.00  0.00    -0.170 F 
ATOM     28  C   LIG    1       13.184   2.665  -0.219  0.00  0.00    +0.510 C 
ATOM     29  F   LIG    1       12.924   1.644  -1.139  0.00  0.00    -0.170 F 
ATOM     30  F   LIG    1       13.505   2.105   1.022  0.00  0.00    -0.180 F 
ENDBRANCH  21  28
ENDBRANCH  20  24
ENDBRANCH   1  20
TORSDOF 5
