REMARK  Name = ZINCpk00000e9SCi.0
REMARK                            x       y       z     vdW  Elec       q    Type
REMARK                         _______ _______ _______ _____ _____    ______ ____
ROOT
ATOM      1  N   LIG    1       -2.430   0.977   0.019  0.00  0.00    -0.360 N 
ATOM      2  N   LIG    1       -3.042   0.430   1.153  0.00  0.00    -0.280 NA
ATOM      3  C   LIG    1       -3.981  -0.391   0.763  0.00  0.00    +0.100 A 
ATOM      4  C   LIG    1       -4.001  -0.396  -0.645  0.00  0.00    -0.210 A 
ATOM      5  C   LIG    1       -4.885  -1.194   1.663  0.00  0.00    +0.160 C 
ATOM      6  C   LIG    1       -3.033   0.465  -1.073  0.00  0.00    +0.120 A 
ATOM      7  C   LIG    1       -2.696   0.784  -2.507  0.00  0.00    +0.140 C 
ENDROOT
BRANCH   4   8
ATOM      8  C   LIG    1       -4.913  -1.189  -1.507  0.00  0.00    -0.010 A 
ATOM      9  C   LIG    1       -5.845  -0.536  -2.321  0.00  0.00    +0.070 A 
ATOM     10  C   LIG    1       -6.693  -1.245  -3.121  0.00  0.00    +0.030 A 
ATOM     11  C   LIG    1       -6.636  -2.641  -3.134  0.00  0.00    +0.150 A 
ATOM     12  N   LIG    1       -7.464  -3.377  -3.917  0.00  0.00    -0.520 NA
ATOM     13  C   LIG    1       -7.414  -4.674  -3.931  0.00  0.00    +0.390 A 
ATOM     14  N   LIG    1       -6.545  -5.397  -3.177  0.00  0.00    -0.550 N 
ATOM     15  C   LIG    1       -5.667  -4.778  -2.354  0.00  0.00    +0.550 A 
ATOM     16  O   LIG    1       -4.883  -5.413  -1.673  0.00  0.00    -0.510 OA
ATOM     17  C   LIG    1       -6.558  -6.860  -3.256  0.00  0.00    +0.320 C 
ATOM     18  C   LIG    1       -8.369  -5.417  -4.830  0.00  0.00    +0.170 C 
ATOM     19  C   LIG    1       -5.697  -3.308  -2.315  0.00  0.00    -0.190 A 
ATOM     20  C   LIG    1       -4.833  -2.576  -1.506  0.00  0.00    +0.110 A 
ENDBRANCH   4   8
BRANCH   1  21
ATOM     21  C   LIG    1       -1.330   1.944   0.019  0.00  0.00    +0.370 C 
BRANCH  21  25
ATOM     22  C   LIG    1        2.422   1.183  -0.015  0.00  0.00    +0.290 C 
ATOM     23  N   LIG    1        1.143   1.898   0.001  0.00  0.00    -0.730 N 
ATOM     24  H   LIG    1        1.130   2.868   0.007  0.00  0.00    +0.400 HD
ATOM     25  C   LIG    1       -0.014   1.209   0.009  0.00  0.00    +0.490 C 
ATOM     26  O   LIG    1        0.002  -0.004   0.002  0.00  0.00    -0.510 OA
ENDBRANCH  21  25
ENDBRANCH   1  21
TORSDOF 3
