REMARK  Name = ZINCkj00000dDVXO.0
REMARK                            x       y       z     vdW  Elec       q    Type
REMARK                         _______ _______ _______ _____ _____    ______ ____
ROOT
ATOM      1  N   LIG    1        1.234   2.167  -0.114  0.00  0.00    -0.490 N 
ATOM      2  H   LIG    1        1.579   1.954  -1.038  0.00  0.00    +0.430 HD
ATOM      3  H   LIG    1        1.878   1.812   0.576  0.00  0.00    +0.430 HD
ENDROOT
BRANCH   1   4
ATOM      4  C   LIG    1        1.108   3.623   0.038  0.00  0.00    +0.160 C 
ATOM      5  C   LIG    1        2.399   4.298  -0.431  0.00  0.00    +0.110 C 
BRANCH   4   6
ATOM      6  C   LIG    1        0.859   3.963   1.508  0.00  0.00    +0.370 C 
BRANCH   6  10
ATOM      7  C   LIG    1       -2.820   1.640   3.996  0.00  0.00    +0.120 C 
ATOM      8  C   LIG    1       -2.072   2.469   2.984  0.00  0.00    -0.210 A 
ATOM      9  C   LIG    1       -0.736   2.685   2.962  0.00  0.00    +0.220 A 
ATOM     10  N   LIG    1       -0.465   3.478   1.905  0.00  0.00    -0.410 N 
ATOM     11  N   LIG    1       -1.673   3.750   1.249  0.00  0.00    -0.290 NA
ATOM     12  C   LIG    1       -2.635   3.145   1.897  0.00  0.00    +0.250 A 
ENDBRANCH   6  10
ENDBRANCH   4   6
ENDBRANCH   1   4
BRANCH   1  13
ATOM     13  C   LIG    1       -0.081   1.540   0.074  0.00  0.00    +0.210 C 
BRANCH  13  14
ATOM     14  C   LIG    1        0.070   0.041   0.052  0.00  0.00    -0.150 A 
ATOM     15  C   LIG    1        0.929  -0.555  -0.852  0.00  0.00    +0.010 A 
ATOM     16  C   LIG    1        1.071  -1.930  -0.869  0.00  0.00    +0.040 A 
ATOM     17  C   LIG    1        0.347  -2.710   0.013  0.00  0.00    +0.060 A 
ATOM     18  C   LIG    1       -0.517  -2.115   0.914  0.00  0.00    +0.040 A 
ATOM     19  C   LIG    1       -0.655  -0.740   0.933  0.00  0.00    +0.040 A 
ENDBRANCH  13  14
BRANCH  13  20
ATOM     20  C   LIG    1       -1.005   1.968  -1.038  0.00  0.00    +0.540 C 
ATOM     21  O   LIG    1       -0.563   2.561  -1.999  0.00  0.00    -0.530 OA
ATOM     22  N   LIG    1       -2.322   1.691  -0.963  0.00  0.00    -0.820 N 
ATOM     23  H   LIG    1       -2.917   1.966  -1.678  0.00  0.00    +0.420 HD
ATOM     24  H   LIG    1       -2.675   1.217  -0.194  0.00  0.00    +0.410 HD
ENDBRANCH  13  20
ENDBRANCH   1  13
TORSDOF 6
