REMARK  Name = ZINCtV00000tRSn1.0
REMARK                            x       y       z     vdW  Elec       q    Type
REMARK                         _______ _______ _______ _____ _____    ______ ____
ROOT
ATOM      1  C   LIG    1        1.153   1.931   0.001  0.00  0.00    +0.100 C 
ATOM      2  N   LIG    1       -0.017   1.389   0.010  0.00  0.00    -0.220 NA
ATOM      3  N   LIG    1        0.002  -0.004   0.002  0.00  0.00    -0.460 N 
ATOM      4  C   LIG    1        1.401  -0.461  -0.014  0.00  0.00    +0.260 C 
ATOM      5  C   LIG    1        2.210   0.851  -0.015  0.00  0.00    +0.080 C 
ENDROOT
BRANCH   1   9
ATOM      6  C   LIG    1        1.918   6.108   0.017  0.00  0.00    -0.030 A 
ATOM      7  C   LIG    1        0.604   5.641   0.027  0.00  0.00    +0.020 A 
ATOM      8  C   LIG    1        0.354   4.287   0.022  0.00  0.00    +0.050 A 
ATOM      9  C   LIG    1        1.418   3.381   0.007  0.00  0.00    -0.020 A 
ATOM     10  C   LIG    1        2.735   3.851   0.002  0.00  0.00    +0.040 A 
ATOM     11  C   LIG    1        2.981   5.205   0.001  0.00  0.00    +0.020 A 
BRANCH   6  15
ATOM     12  C   LIG    1        2.684  10.290   0.033  0.00  0.00    +0.000 A 
ATOM     13  C   LIG    1        3.740   9.396   0.018  0.00  0.00    +0.010 A 
ATOM     14  C   LIG    1        3.497   8.038   0.013  0.00  0.00    +0.020 A 
ATOM     15  C   LIG    1        2.185   7.567   0.023  0.00  0.00    -0.050 A 
ATOM     16  C   LIG    1        1.125   8.472   0.032  0.00  0.00    +0.020 A 
ATOM     17  C   LIG    1        1.380   9.828   0.043  0.00  0.00    +0.010 A 
ENDBRANCH   6  15
ENDBRANCH   1   9
BRANCH   4  18
ATOM     18  C   LIG    1        1.684  -1.259  -1.260  0.00  0.00    -0.100 A 
ATOM     19  C   LIG    1        1.124  -0.880  -2.466  0.00  0.00    +0.030 A 
ATOM     20  C   LIG    1        1.387  -1.610  -3.610  0.00  0.00    +0.000 A 
ATOM     21  C   LIG    1        2.202  -2.724  -3.547  0.00  0.00    +0.010 A 
ATOM     22  C   LIG    1        2.757  -3.107  -2.340  0.00  0.00    +0.010 A 
ATOM     23  C   LIG    1        2.498  -2.375  -1.197  0.00  0.00    +0.010 A 
ENDBRANCH   4  18
BRANCH   3  24
ATOM     24  C   LIG    1       -1.122  -0.831   0.008  0.00  0.00    +0.230 A 
ATOM     25  C   LIG    1       -0.970  -2.212  -0.007  0.00  0.00    -0.050 A 
ATOM     26  C   LIG    1       -2.085  -3.027   0.003  0.00  0.00    +0.040 A 
ATOM     27  C   LIG    1       -3.351  -2.471   0.018  0.00  0.00    -0.040 A 
ATOM     28  C   LIG    1       -3.505  -1.096   0.028  0.00  0.00    +0.040 A 
ATOM     29  C   LIG    1       -2.396  -0.275   0.022  0.00  0.00    -0.030 A 
ENDBRANCH   3  24
TORSDOF 4
