REMARK  Name = ZINCpe00000HJ4Tn.0
REMARK                            x       y       z     vdW  Elec       q    Type
REMARK                         _______ _______ _______ _____ _____    ______ ____
ROOT
ATOM      1  N   LIG    1       -1.083   3.523   0.026  0.00  0.00    -0.720 N 
ATOM      2  H   LIG    1       -0.173   3.859   0.024  0.00  0.00    +0.410 HD
ATOM      3  C   LIG    1       -2.119   4.385   0.036  0.00  0.00    +0.530 C 
ATOM      4  O   LIG    1       -3.257   3.965   0.039  0.00  0.00    -0.540 OA
ENDROOT
BRANCH   3   5
ATOM      5  C   LIG    1       -1.864   5.870   0.043  0.00  0.00    -0.070 C 
ATOM      6  C   LIG    1       -1.073   6.257  -1.208  0.00  0.00    +0.040 C 
ATOM      7  C   LIG    1       -0.814   7.765  -1.201  0.00  0.00    +0.000 C 
ATOM      8  C   LIG    1       -0.011   8.139   0.046  0.00  0.00    +0.020 C 
ATOM      9  C   LIG    1       -0.802   7.752   1.297  0.00  0.00    +0.000 C 
ATOM     10  C   LIG    1       -2.137   8.498   1.308  0.00  0.00    +0.010 C 
ATOM     11  C   LIG    1       -2.940   8.125   0.060  0.00  0.00    -0.020 C 
ATOM     12  C   LIG    1       -2.149   8.512  -1.191  0.00  0.00    +0.010 C 
ATOM     13  C   LIG    1       -1.061   6.244   1.290  0.00  0.00    +0.040 C 
ATOM     14  C   LIG    1       -3.200   6.617   0.053  0.00  0.00    +0.050 C 
ENDBRANCH   3   5
BRANCH   1  15
ATOM     15  C   LIG    1       -1.331   2.079   0.020  0.00  0.00    +0.300 C 
BRANCH  15  17
ATOM     16  O   LIG    1        1.026   1.964   0.003  0.00  0.00    -0.530 OA
ATOM     17  C   LIG    1       -0.016   1.344   0.009  0.00  0.00    +0.510 C 
ATOM     18  N   LIG    1        0.002  -0.004   0.002  0.00  0.00    -0.730 N 
ATOM     19  H   LIG    1       -0.831  -0.500   0.007  0.00  0.00    +0.410 HD
BRANCH  18  20
ATOM     20  C   LIG    1        1.281  -0.719  -0.014  0.00  0.00    +0.290 C 
BRANCH  20  21
ATOM     21  C   LIG    1        1.021  -2.227  -0.020  0.00  0.00    +0.010 C 
ATOM     22  C   LIG    1        0.407  -2.661   1.323  0.00  0.00    +0.070 C 
ATOM     23  C   LIG    1        0.473  -4.198   1.423  0.00  0.00    -0.310 C 
ATOM     24  S   LIG    1        1.917  -4.679   0.409  0.00  0.00    +2.390 S 
ATOM     25  O   LIG    1        2.946  -5.175   1.254  0.00  0.00    -0.930 OA
ATOM     26  O   LIG    1        1.478  -5.453  -0.700  0.00  0.00    -0.930 OA
ATOM     27  C   LIG    1        2.360  -2.995  -0.164  0.00  0.00    -0.310 C 
ENDBRANCH  20  21
ENDBRANCH  18  20
ENDBRANCH  15  17
ENDBRANCH   1  15
TORSDOF 5
