REMARK  Name = ZINCpe000000UhQF.0
REMARK                            x       y       z     vdW  Elec       q    Type
REMARK                         _______ _______ _______ _____ _____    ______ ____
ROOT
ATOM      1  C   LIG    1       -1.058   3.224   3.006  0.00  0.00    +0.350 C 
ENDROOT
BRANCH   1   6
ATOM      2  N   LIG    1        1.083   5.728   4.650  0.00  0.00    -0.520 N 
ATOM      3  C   LIG    1        0.602   6.924   4.215  0.00  0.00    +0.450 A 
ATOM      4  C   LIG    1       -0.469   6.945   3.344  0.00  0.00    -0.200 A 
ATOM      5  C   LIG    1       -1.046   5.658   2.924  0.00  0.00    +0.570 A 
ATOM      6  N   LIG    1       -0.505   4.520   3.407  0.00  0.00    -0.530 N 
ATOM      7  O   LIG    1       -1.991   5.620   2.158  0.00  0.00    -0.490 OA
ATOM      8  C   LIG    1        0.535   4.567   4.257  0.00  0.00    +0.700 A 
ATOM      9  O   LIG    1        0.998   3.526   4.679  0.00  0.00    -0.520 OA
BRANCH   2  11
ATOM     10  C   LIG    1        1.706   5.742   7.015  0.00  0.00    +0.040 C 
ATOM     11  C   LIG    1        2.219   5.707   5.574  0.00  0.00    +0.320 C 
ENDBRANCH   2  11
BRANCH   4  12
ATOM     12  C   LIG    1       -1.004   8.184   2.864  0.00  0.00    +0.280 C 
ATOM     13  N   LIG    1       -1.428   9.166   2.483  0.00  0.00    -0.400 NA
ENDBRANCH   4  12
ENDBRANCH   1   6
BRANCH   1  14
ATOM     14  C   LIG    1       -0.353   2.738   1.767  0.00  0.00    +0.510 C 
ATOM     15  N   LIG    1       -0.698   1.558   1.213  0.00  0.00    -0.610 N 
ATOM     16  C   LIG    1       -1.760   0.749   1.817  0.00  0.00    +0.290 C 
ATOM     17  O   LIG    1        0.526   3.408   1.267  0.00  0.00    -0.520 OA
BRANCH  15  18
ATOM     18  C   LIG    1       -0.013   1.086   0.008  0.00  0.00    +0.340 C 
BRANCH  18  19
ATOM     19  C   LIG    1       -0.742   1.585  -1.213  0.00  0.00    -0.120 A 
ATOM     20  C   LIG    1       -1.750   0.825  -1.775  0.00  0.00    +0.020 A 
ATOM     21  C   LIG    1       -2.422   1.285  -2.892  0.00  0.00    -0.010 A 
ATOM     22  C   LIG    1       -2.078   2.501  -3.453  0.00  0.00    -0.080 A 
ATOM     23  C   LIG    1       -1.066   3.259  -2.894  0.00  0.00    +0.000 A 
ATOM     24  C   LIG    1       -2.807   2.999  -4.674  0.00  0.00    +0.090 C 
ATOM     25  C   LIG    1       -0.398   2.801  -1.774  0.00  0.00    +0.040 A 
ENDBRANCH  18  19
ENDBRANCH  15  18
ENDBRANCH   1  14
TORSDOF 6
