REMARK  Name = ZINCqH0000006yfX.0
REMARK                            x       y       z     vdW  Elec       q    Type
REMARK                         _______ _______ _______ _____ _____    ______ ____
ROOT
ATOM      1  N   LIG    1       -1.269   7.291  -1.691  0.00  0.00    -0.720 N 
ATOM      2  H   LIG    1       -1.108   8.053  -1.113  0.00  0.00    +0.400 HD
ATOM      3  C   LIG    1       -1.981   7.444  -2.825  0.00  0.00    +0.560 C 
ATOM      4  O   LIG    1       -2.183   6.489  -3.549  0.00  0.00    -0.530 OA
ENDROOT
BRANCH   3   5
ATOM      5  C   LIG    1       -2.517   8.773  -3.188  0.00  0.00    -0.120 A 
ATOM      6  C   LIG    1       -2.292   9.871  -2.355  0.00  0.00    +0.030 A 
ATOM      7  C   LIG    1       -2.791  11.109  -2.702  0.00  0.00    +0.020 A 
ATOM      8  C   LIG    1       -3.522  11.263  -3.867  0.00  0.00    -0.080 A 
ATOM      9  C   LIG    1       -3.753  10.178  -4.694  0.00  0.00    +0.040 A 
ATOM     10  C   LIG    1       -3.255   8.935  -4.361  0.00  0.00    +0.080 A 
BRANCH   8  11
ATOM     11  C   LIG    1       -4.068  12.617  -4.236  0.00  0.00    +0.380 C 
BRANCH  11  12
ATOM     12  N   LIG    1       -5.408  12.777  -3.664  0.00  0.00    -0.370 N 
ATOM     13  C   LIG    1       -5.812  13.780  -2.857  0.00  0.00    +0.220 A 
ATOM     14  C   LIG    1       -7.113  13.564  -2.551  0.00  0.00    -0.120 A 
ATOM     15  C   LIG    1       -7.514  12.384  -3.186  0.00  0.00    +0.220 A 
ATOM     16  N   LIG    1       -6.493  11.911  -3.853  0.00  0.00    -0.290 NA
ENDBRANCH  11  12
ENDBRANCH   8  11
ENDBRANCH   3   5
BRANCH   1  17
ATOM     17  C   LIG    1       -0.738   5.974  -1.331  0.00  0.00    +0.280 C 
BRANCH  17  18
ATOM     18  C   LIG    1        0.087   6.089  -0.048  0.00  0.00    +0.200 C 
BRANCH  18  19
ATOM     19  C   LIG    1        0.597   4.727   0.346  0.00  0.00    -0.100 A 
ATOM     20  C   LIG    1        1.898   4.365   0.051  0.00  0.00    +0.040 A 
ATOM     21  C   LIG    1        2.367   3.116   0.412  0.00  0.00    +0.030 A 
ATOM     22  C   LIG    1        1.533   2.228   1.068  0.00  0.00    -0.030 A 
ATOM     23  C   LIG    1        0.230   2.588   1.358  0.00  0.00    +0.030 A 
ATOM     24 CL   LIG    1        2.121   0.658   1.522  0.00  0.00    -0.070 Cl
ATOM     25  C   LIG    1       -0.236   3.840   1.002  0.00  0.00    +0.070 A 
ENDBRANCH  18  19
BRANCH  18  27
ATOM     26  C   LIG    1       -0.308   7.885   1.490  0.00  0.00    +0.210 C 
ATOM     27  O   LIG    1       -0.733   6.612   1.000  0.00  0.00    -0.370 OA
ENDBRANCH  18  27
ENDBRANCH  17  18
ENDBRANCH   1  17
TORSDOF 7
