REMARK  Name = ZINCvU0000000GhR.0
REMARK                            x       y       z     vdW  Elec       q    Type
REMARK                         _______ _______ _______ _____ _____    ______ ____
ROOT
ATOM      1  C   LIG    1       -2.254   1.432  -0.048  0.00  0.00    +0.320 C 
ENDROOT
BRANCH   1   2
ATOM      2  C   LIG    1       -2.600   1.055  -1.465  0.00  0.00    -0.100 A 
ATOM      3  C   LIG    1       -2.570   2.011  -2.462  0.00  0.00    +0.020 A 
ATOM      4  C   LIG    1       -2.883   1.664  -3.763  0.00  0.00    +0.000 A 
ATOM      5  C   LIG    1       -3.237   0.362  -4.064  0.00  0.00    +0.000 A 
ATOM      6  C   LIG    1       -3.273  -0.594  -3.066  0.00  0.00    +0.000 A 
ATOM      7  C   LIG    1       -2.955  -0.247  -1.766  0.00  0.00    +0.020 A 
ENDBRANCH   1   2
BRANCH   1   8
ATOM      8  N   LIG    1       -1.117   2.357  -0.053  0.00  0.00    -0.710 N 
ATOM      9  H   LIG    1       -1.270   3.314  -0.025  0.00  0.00    +0.390 HD
ATOM     10  C   LIG    1        0.142   1.876  -0.096  0.00  0.00    +0.560 C 
ATOM     11  O   LIG    1        0.334   0.676  -0.130  0.00  0.00    -0.500 OA
BRANCH  10  12
ATOM     12  C   LIG    1        1.288   2.808  -0.107  0.00  0.00    -0.130 A 
ATOM     13  C   LIG    1        1.072   4.187  -0.068  0.00  0.00    +0.050 A 
ATOM     14  C   LIG    1        2.146   5.052  -0.078  0.00  0.00    +0.020 A 
ATOM     15  C   LIG    1        3.438   4.556  -0.128  0.00  0.00    +0.060 A 
ATOM     16  C   LIG    1        3.661   3.192  -0.167  0.00  0.00    +0.020 A 
ATOM     17  C   LIG    1        2.595   2.314  -0.152  0.00  0.00    +0.010 A 
ATOM     18 CL   LIG    1        2.876   0.602  -0.195  0.00  0.00    -0.030 Cl
ENDBRANCH  10  12
ENDBRANCH   1   8
BRANCH   1  19
ATOM     19  C   LIG    1       -3.458   2.110   0.609  0.00  0.00    +0.080 C 
BRANCH  19  22
ATOM     20  N   LIG    1       -4.077   2.971   2.844  0.00  0.00    -0.670 N 
ATOM     21  H   LIG    1       -4.905   3.296   2.457  0.00  0.00    +0.410 HD
ATOM     22  C   LIG    1       -3.155   2.377   2.061  0.00  0.00    +0.510 C 
ATOM     23  O   LIG    1       -2.081   2.057   2.525  0.00  0.00    -0.500 OA
BRANCH  20  29
ATOM     24  C   LIG    1       -4.111   5.752   9.601  0.00  0.00    +0.230 C 
ATOM     25  C   LIG    1       -3.950   4.963   8.327  0.00  0.00    +0.250 A 
ATOM     26  N   LIG    1       -4.429   5.314   7.171  0.00  0.00    -0.480 NA
ATOM     27  C   LIG    1       -4.092   4.370   6.252  0.00  0.00    +0.040 A 
ATOM     28  C   LIG    1       -4.331   4.226   4.885  0.00  0.00    +0.050 A 
ATOM     29  C   LIG    1       -3.840   3.119   4.217  0.00  0.00    +0.150 A 
ATOM     30  C   LIG    1       -3.115   2.149   4.904  0.00  0.00    +0.060 A 
ATOM     31  C   LIG    1       -2.871   2.286   6.254  0.00  0.00    +0.070 A 
ATOM     32  C   LIG    1       -3.357   3.390   6.937  0.00  0.00    -0.010 A 
ATOM     33  O   LIG    1       -3.292   3.798   8.224  0.00  0.00    -0.210 OA
ENDBRANCH  20  29
ENDBRANCH  19  22
ENDBRANCH   1  19
TORSDOF 6
