REMARK  Name = ZINCpk00000xIi8K.0
REMARK                            x       y       z     vdW  Elec       q    Type
REMARK                         _______ _______ _______ _____ _____    ______ ____
ROOT
ATOM      1  C   LIG    1        1.968   5.873   2.192  0.00  0.00    +0.570 C 
ATOM      2  N   LIG    1        2.200   5.015   1.179  0.00  0.00    -0.600 N 
ATOM      3  C   LIG    1        2.747   5.494  -0.098  0.00  0.00    +0.260 C 
ATOM      4  C   LIG    1        3.995   4.674  -0.438  0.00  0.00    +0.030 C 
ATOM      5  C   LIG    1        3.643   3.185  -0.424  0.00  0.00    +0.040 C 
ATOM      6  C   LIG    1        3.168   2.784   0.975  0.00  0.00    +0.100 C 
ATOM      7  C   LIG    1        1.910   3.583   1.331  0.00  0.00    +0.300 C 
ATOM      8  O   LIG    1        1.451   5.477   3.218  0.00  0.00    -0.520 OA
ENDROOT
BRANCH   1  12
ATOM      9  C   LIG    1        2.996   9.927   1.728  0.00  0.00    +0.090 A 
ATOM     10  C   LIG    1        3.428   9.265   2.874  0.00  0.00    +0.050 A 
ATOM     11  C   LIG    1        3.096   7.932   3.050  0.00  0.00    +0.120 A 
ATOM     12  C   LIG    1        2.344   7.298   2.055  0.00  0.00    -0.160 A 
ATOM     13  C   LIG    1        1.948   8.031   0.933  0.00  0.00    +0.300 A 
ATOM     14  N   LIG    1        2.279   9.296   0.806  0.00  0.00    -0.460 NA
BRANCH   9  18
ATOM     15  N   LIG    1        2.928  12.006   0.428  0.00  0.00    -0.830 N 
ATOM     16  H   LIG    1        3.154  12.941   0.301  0.00  0.00    +0.410 HD
ATOM     17  H   LIG    1        2.405  11.539  -0.242  0.00  0.00    +0.410 HD
ATOM     18  C   LIG    1        3.342  11.357   1.534  0.00  0.00    +0.580 C 
ATOM     19  O   LIG    1        3.998  11.942   2.373  0.00  0.00    -0.530 OA
ENDBRANCH   9  18
ENDBRANCH   1  12
BRANCH   6  20
ATOM     20  C   LIG    1        2.851   1.311   0.996  0.00  0.00    +0.180 A 
ATOM     21  N   LIG    1        1.968   0.704   0.261  0.00  0.00    -0.380 NA
ATOM     22  O   LIG    1        1.954  -0.482   0.515  0.00  0.00    +0.080 OA
ATOM     23  C   LIG    1        2.854  -0.752   1.465  0.00  0.00    +0.220 A 
ATOM     24  N   LIG    1        3.431   0.383   1.778  0.00  0.00    -0.480 NA
BRANCH  23  25
ATOM     25  C   LIG    1        3.150  -2.103   2.064  0.00  0.00    +0.060 C 
ATOM     26  C   LIG    1        2.500  -3.324   1.409  0.00  0.00    +0.070 C 
ATOM     27  C   LIG    1        2.003  -2.830   2.768  0.00  0.00    +0.070 C 
ENDBRANCH  23  25
ENDBRANCH   6  20
TORSDOF 4
