REMARK  Name = ZINCwJ0000000q71.1
REMARK                            x       y       z     vdW  Elec       q    Type
REMARK                         _______ _______ _______ _____ _____    ______ ____
ROOT
ATOM      1  C   LIG    1        5.941   1.034   9.296  0.00  0.00    +0.000 C 
ATOM      2  C   LIG    1        6.386  -0.409   9.050  0.00  0.00    +0.260 C 
ATOM      3  N   LIG    1        7.363  -0.444   7.955  0.00  0.00    -0.380 N 
ATOM      4  C   LIG    1        6.734   0.019   6.712  0.00  0.00    +0.230 C 
ATOM      5  C   LIG    1        6.301   1.481   6.867  0.00  0.00    +0.070 C 
ATOM      6  H   LIG    1        8.142   0.157   8.181  0.00  0.00    +0.430 HD
ATOM      7  C   LIG    1        5.300   1.589   8.021  0.00  0.00    +0.030 C 
ENDROOT
BRANCH   1   9
ATOM      8  C   LIG    1        5.598   0.631  11.738  0.00  0.00    +0.010 C 
ATOM      9  C   LIG    1        4.922   1.067  10.437  0.00  0.00    +0.040 C 
ENDBRANCH   1   9
BRANCH   3  10
ATOM     10  C   LIG    1        7.845  -1.819   7.775  0.00  0.00    +0.250 C 
BRANCH  10  11
ATOM     11  C   LIG    1        8.953  -1.837   6.719  0.00  0.00    +0.040 C 
BRANCH  11  12
ATOM     12  C   LIG    1        9.455  -3.270   6.531  0.00  0.00    +0.100 C 
BRANCH  12  13
ATOM     13  C   LIG    1       10.546  -3.288   5.492  0.00  0.00    -0.060 A 
ATOM     14  C   LIG    1       11.865  -3.121   5.872  0.00  0.00    -0.030 A 
ATOM     15  C   LIG    1       12.868  -3.137   4.920  0.00  0.00    +0.060 A 
ATOM     16  C   LIG    1       12.555  -3.320   3.587  0.00  0.00    -0.070 A 
ATOM     17  C   LIG    1       11.232  -3.488   3.204  0.00  0.00    +0.130 A 
ATOM     18  C   LIG    1       10.228  -3.476   4.160  0.00  0.00    -0.020 A 
BRANCH  17  19
ATOM     19  O   LIG    1       10.921  -3.669   1.893  0.00  0.00    -0.320 OA
ATOM     20  C   LIG    1       12.007  -3.675   0.964  0.00  0.00    +0.250 C 
ENDBRANCH  17  19
ENDBRANCH  12  13
ENDBRANCH  11  12
ENDBRANCH  10  11
ENDBRANCH   3  10
BRANCH   7  21
ATOM     21  C   LIG    1        4.045   0.781   7.686  0.00  0.00    +0.050 C 
BRANCH  21  22
ATOM     22  C   LIG    1        3.350   1.401   6.501  0.00  0.00    +0.520 C 
ATOM     23  N   LIG    1        2.213   0.855   6.025  0.00  0.00    -0.730 N 
ATOM     24  H   LIG    1        1.843   0.063   6.445  0.00  0.00    +0.410 HD
ATOM     25  O   LIG    1        3.813   2.391   5.976  0.00  0.00    -0.520 OA
BRANCH  23  26
ATOM     26  C   LIG    1        1.538   1.457   4.873  0.00  0.00    +0.240 C 
ATOM     27  C   LIG    1        0.050   1.097   4.906  0.00  0.00    +0.060 C 
ATOM     28  C   LIG    1       -0.635   1.664   3.660  0.00  0.00    +0.280 C 
ATOM     29  N   LIG    1       -0.018   1.093   2.457  0.00  0.00    -0.380 N 
ATOM     30  C   LIG    1        1.392   1.494   2.381  0.00  0.00    +0.260 C 
ATOM     31  H   LIG    1       -0.078   0.086   2.495  0.00  0.00    +0.430 HD
ATOM     32  C   LIG    1        2.154   0.920   3.578  0.00  0.00    +0.050 C 
BRANCH  29  33
ATOM     33  C   LIG    1       -0.729   1.579   1.267  0.00  0.00    +0.240 C 
BRANCH  33  34
ATOM     34  C   LIG    1       -0.013   1.086   0.008  0.00  0.00    +0.240 C 
ATOM     35  F   LIG    1       -0.689   1.549  -1.125  0.00  0.00    -0.180 F 
ENDBRANCH  33  34
ENDBRANCH  29  33
ENDBRANCH  23  26
ENDBRANCH  21  22
ENDBRANCH   7  21
TORSDOF 11
