REMARK  Name = ZINCwJ0000000q71.2
REMARK                            x       y       z     vdW  Elec       q    Type
REMARK                         _______ _______ _______ _____ _____    ______ ____
ROOT
ATOM      1  C   LIG    1       -3.756  11.769  -0.310  0.00  0.00    +0.010 C 
ATOM      2  C   LIG    1       -4.777  12.366  -1.280  0.00  0.00    +0.260 C 
ATOM      3  N   LIG    1       -4.447  11.963  -2.652  0.00  0.00    -0.380 N 
ATOM      4  C   LIG    1       -4.549  10.504  -2.781  0.00  0.00    +0.250 C 
ATOM      5  C   LIG    1       -3.519   9.835  -1.868  0.00  0.00    +0.050 C 
ATOM      6  H   LIG    1       -3.506  12.254  -2.869  0.00  0.00    +0.420 HD
ATOM      7  C   LIG    1       -3.791  10.241  -0.417  0.00  0.00    +0.020 C 
ENDROOT
BRANCH   1   9
ATOM      8  C   LIG    1       -2.287  13.786  -0.438  0.00  0.00    +0.020 C 
ATOM      9  C   LIG    1       -2.357  12.274  -0.665  0.00  0.00    +0.010 C 
ENDBRANCH   1   9
BRANCH   3  10
ATOM     10  C   LIG    1       -5.383  12.602  -3.587  0.00  0.00    +0.250 C 
BRANCH  10  11
ATOM     11  C   LIG    1       -4.961  12.291  -5.024  0.00  0.00    +0.040 C 
BRANCH  11  12
ATOM     12  C   LIG    1       -5.936  12.956  -5.998  0.00  0.00    +0.110 C 
BRANCH  12  13
ATOM     13  C   LIG    1       -5.519  12.650  -7.414  0.00  0.00    -0.060 A 
ATOM     14  C   LIG    1       -6.011  11.526  -8.051  0.00  0.00    -0.040 A 
ATOM     15  C   LIG    1       -5.631  11.243  -9.350  0.00  0.00    +0.060 A 
ATOM     16  C   LIG    1       -4.759  12.083 -10.014  0.00  0.00    -0.070 A 
ATOM     17  C   LIG    1       -4.264  13.212  -9.377  0.00  0.00    +0.140 A 
ATOM     18  C   LIG    1       -4.650  13.496  -8.076  0.00  0.00    -0.020 A 
BRANCH  17  19
ATOM     19  O   LIG    1       -3.406  14.040 -10.029  0.00  0.00    -0.320 OA
ATOM     20  C   LIG    1       -3.056  13.688 -11.369  0.00  0.00    +0.250 C 
ENDBRANCH  17  19
ENDBRANCH  12  13
ENDBRANCH  11  12
ENDBRANCH  10  11
ENDBRANCH   3  10
BRANCH   7  21
ATOM     21  C   LIG    1       -2.717   9.640   0.492  0.00  0.00    +0.080 C 
BRANCH  21  22
ATOM     22  C   LIG    1       -2.826   8.137   0.472  0.00  0.00    +0.520 C 
ATOM     23  N   LIG    1       -1.977   7.390   1.205  0.00  0.00    -0.730 N 
ATOM     24  H   LIG    1       -1.295   7.820   1.745  0.00  0.00    +0.410 HD
ATOM     25  O   LIG    1       -3.679   7.600  -0.202  0.00  0.00    -0.530 OA
BRANCH  23  26
ATOM     26  C   LIG    1       -2.083   5.929   1.186  0.00  0.00    +0.240 C 
ATOM     27  C   LIG    1       -1.500   5.356   2.481  0.00  0.00    +0.060 C 
ATOM     28  C   LIG    1       -1.543   3.828   2.421  0.00  0.00    +0.280 C 
ATOM     29  N   LIG    1       -0.753   3.357   1.277  0.00  0.00    -0.380 N 
ATOM     30  C   LIG    1       -1.348   3.844   0.026  0.00  0.00    +0.260 C 
ATOM     31  H   LIG    1        0.191   3.705   1.355  0.00  0.00    +0.430 HD
ATOM     32  C   LIG    1       -1.298   5.373  -0.006  0.00  0.00    +0.050 C 
BRANCH  29  33
ATOM     33  C   LIG    1       -0.733   1.888   1.268  0.00  0.00    +0.240 C 
BRANCH  33  34
ATOM     34  C   LIG    1       -0.017   1.395   0.010  0.00  0.00    +0.240 C 
ATOM     35  F   LIG    1        0.002  -0.004   0.002  0.00  0.00    -0.180 F 
ENDBRANCH  33  34
ENDBRANCH  29  33
ENDBRANCH  23  26
ENDBRANCH  21  22
ENDBRANCH   7  21
TORSDOF 11
