REMARK  Name = ZINCvU0000000HWY.0
REMARK                            x       y       z     vdW  Elec       q    Type
REMARK                         _______ _______ _______ _____ _____    ______ ____
ROOT
ATOM      1  C   LIG    1       -0.035  -3.153   3.423  0.00  0.00    +0.160 C 
ENDROOT
BRANCH   1   7
ATOM      2  C   LIG    1        0.550   3.460   3.036  0.00  0.00    +0.110 C 
ATOM      3  C   LIG    1        0.616   1.985   3.340  0.00  0.00    -0.020 A 
ATOM      4  C   LIG    1        1.460   1.530   4.331  0.00  0.00    +0.020 A 
ATOM      5  C   LIG    1        1.528   0.171   4.610  0.00  0.00    +0.150 A 
ATOM      6  C   LIG    1        0.727  -0.724   3.879  0.00  0.00    -0.160 A 
ATOM      7  C   LIG    1        0.804  -2.156   4.180  0.00  0.00    +0.030 A 
ATOM      8  C   LIG    1        1.651  -2.560   5.161  0.00  0.00    -0.040 A 
ATOM      9  C   LIG    1        2.426  -1.606   5.856  0.00  0.00    +0.510 A 
ATOM     10  O   LIG    1        3.182  -1.982   6.733  0.00  0.00    -0.450 OA
ATOM     11  C   LIG    1       -0.126  -0.241   2.881  0.00  0.00    +0.090 A 
ATOM     12  O   LIG    1        2.350  -0.296   5.574  0.00  0.00    -0.270 OA
ATOM     13  C   LIG    1       -0.176   1.100   2.623  0.00  0.00    -0.090 A 
BRANCH  13  14
ATOM     14  C   LIG    1       -1.095   1.621   1.548  0.00  0.00    +0.030 C 
ATOM     15  C   LIG    1       -2.520   1.130   1.813  0.00  0.00    +0.030 C 
ATOM     16  C   LIG    1       -0.625   1.110   0.185  0.00  0.00    +0.030 C 
ENDBRANCH  13  14
ENDBRANCH   1   7
BRANCH   1  17
ATOM     17  S   LIG    1       -1.750  -3.054   3.993  0.00  0.00    +0.110 S 
BRANCH  17  18
ATOM     18  C   LIG    1       -2.484  -4.288   2.971  0.00  0.00    +0.140 A 
ATOM     19  N   LIG    1       -1.869  -5.022   2.075  0.00  0.00    -0.280 NA
ATOM     20  N   LIG    1       -2.717  -5.816   1.521  0.00  0.00    -0.240 NA
ATOM     21  C   LIG    1       -3.896  -5.623   2.037  0.00  0.00    +0.160 A 
ATOM     22  O   LIG    1       -3.779  -4.658   2.970  0.00  0.00    -0.190 OA
BRANCH  21  23
ATOM     23  C   LIG    1       -5.161  -6.351   1.662  0.00  0.00    +0.380 C 
BRANCH  23  24
ATOM     24  O   LIG    1       -5.303  -7.512   2.483  0.00  0.00    -0.310 OA
BRANCH  24  25
ATOM     25  C   LIG    1       -6.401  -8.286   2.272  0.00  0.00    +0.120 A 
ATOM     26  C   LIG    1       -7.324  -7.931   1.300  0.00  0.00    -0.040 A 
ATOM     27  C   LIG    1       -8.437  -8.721   1.084  0.00  0.00    +0.030 A 
ATOM     28  C   LIG    1       -8.636  -9.861   1.845  0.00  0.00    +0.070 A 
ATOM     29  C   LIG    1       -7.718 -10.213   2.819  0.00  0.00    +0.040 A 
ATOM     30  F   LIG    1       -9.727 -10.629   1.635  0.00  0.00    -0.140 F 
ATOM     31  C   LIG    1       -6.601  -9.428   3.034  0.00  0.00    +0.030 A 
ENDBRANCH  24  25
ENDBRANCH  23  24
ENDBRANCH  21  23
ENDBRANCH  17  18
ENDBRANCH   1  17
TORSDOF 7
