REMARK  Name = ZINCqH0000067ab6.0
REMARK                            x       y       z     vdW  Elec       q    Type
REMARK                         _______ _______ _______ _____ _____    ______ ____
ROOT
ATOM      1  C   LIG    1       -3.375   3.481   0.052  0.00  0.00    +0.540 C 
ATOM      2  N   LIG    1       -2.111   3.948   0.043  0.00  0.00    -0.630 N 
ATOM      3  H   LIG    1       -1.947   4.904   0.046  0.00  0.00    +0.430 HD
ATOM      4  O   LIG    1       -3.581   2.286   0.047  0.00  0.00    -0.470 OA
ENDROOT
BRANCH   2   5
ATOM      5  C   LIG    1       -1.041   3.058   0.028  0.00  0.00    +0.300 A 
ATOM      6  N   LIG    1       -1.140   1.765   0.017  0.00  0.00    -0.450 NA
ATOM      7  C   LIG    1       -0.013   1.076   0.008  0.00  0.00    +0.270 A 
ATOM      8  C   LIG    1        1.112   1.806   0.001  0.00  0.00    -0.250 A 
ATOM      9  S   LIG    1        0.662   3.510   0.014  0.00  0.00    +0.090 S 
BRANCH   8  10
ATOM     10  S   LIG    1        2.755   1.171  -0.017  0.00  0.00    -0.010 S 
BRANCH  10  11
ATOM     11  C   LIG    1        3.772   2.673  -0.019  0.00  0.00    +0.120 C 
BRANCH  11  12
ATOM     12  C   LIG    1        5.231   2.292  -0.035  0.00  0.00    -0.080 A 
ATOM     13  C   LIG    1        5.912   2.117   1.155  0.00  0.00    +0.030 A 
ATOM     14  C   LIG    1        7.248   1.763   1.141  0.00  0.00    +0.010 A 
ATOM     15  C   LIG    1        7.906   1.595  -0.063  0.00  0.00    +0.020 A 
ATOM     16  C   LIG    1        7.226   1.775  -1.253  0.00  0.00    +0.010 A 
ATOM     17  C   LIG    1        5.888   2.124  -1.239  0.00  0.00    +0.030 A 
ENDBRANCH  11  12
ENDBRANCH  10  11
ENDBRANCH   8  10
ENDBRANCH   2   5
BRANCH   1  20
ATOM     18  C   LIG    1       -5.945   3.853   0.078  0.00  0.00    +0.090 C 
ATOM     19  C   LIG    1       -5.381   4.509   1.341  0.00  0.00    +0.130 C 
ATOM     20  C   LIG    1       -4.534   4.445   0.069  0.00  0.00    -0.030 C 
BRANCH  18  25
ATOM     21  N   LIG    1       -7.748   4.124  -1.712  0.00  0.00    -0.470 N 
ATOM     22  C   LIG    1       -8.585   5.128  -2.070  0.00  0.00    +0.370 A 
ATOM     23  N   LIG    1       -8.341   6.137  -1.279  0.00  0.00    -0.290 NA
ATOM     24  N   LIG    1       -7.410   5.823  -0.450  0.00  0.00    -0.290 NA
ATOM     25  C   LIG    1       -7.017   4.599  -0.674  0.00  0.00    +0.200 A 
BRANCH  21  27
ATOM     26  C   LIG    1       -8.518   1.810  -1.531  0.00  0.00    +0.050 C 
ATOM     27  C   LIG    1       -7.654   2.795  -2.321  0.00  0.00    +0.300 C 
ENDBRANCH  21  27
ENDBRANCH  18  25
ENDBRANCH   1  20
TORSDOF 7
