REMARK  Name = ZINCrg000000rRee.0
REMARK                            x       y       z     vdW  Elec       q    Type
REMARK                         _______ _______ _______ _____ _____    ______ ____
ROOT
ATOM      1  N   LIG    1       -2.684   3.922  -0.056  0.00  0.00    -0.520 NA
ATOM      2  C   LIG    1       -3.259   3.820  -1.405  0.00  0.00    +0.190 C 
ATOM      3  C   LIG    1       -4.728   4.248  -1.364  0.00  0.00    +0.190 C 
ATOM      4  N   LIG    1       -4.820   5.625  -0.859  0.00  0.00    -0.520 NA
ATOM      5  C   LIG    1       -4.245   5.727   0.490  0.00  0.00    +0.190 C 
ATOM      6  C   LIG    1       -2.776   5.299   0.450  0.00  0.00    +0.190 C 
ENDROOT
BRANCH   1   7
ATOM      7  C   LIG    1       -1.294   3.446  -0.038  0.00  0.00    +0.220 C 
BRANCH   7  10
ATOM      8  N   LIG    1       -0.090   1.310  -0.361  0.00  0.00    -0.720 N 
ATOM      9  H   LIG    1        0.739   1.790  -0.205  0.00  0.00    +0.410 HD
ATOM     10  C   LIG    1       -1.266   1.967  -0.326  0.00  0.00    +0.520 C 
ATOM     11  O   LIG    1       -2.301   1.368  -0.525  0.00  0.00    -0.510 OA
BRANCH   8  13
ATOM     12  C   LIG    1       -0.680  -0.392  -2.014  0.00  0.00    +0.070 C 
ATOM     13  C   LIG    1       -0.062  -0.128  -0.640  0.00  0.00    +0.320 C 
BRANCH  13  14
ATOM     14  C   LIG    1        1.386  -0.621  -0.629  0.00  0.00    -0.050 C 
ATOM     15  C   LIG    1        1.955  -1.173  -1.938  0.00  0.00    +0.050 C 
ATOM     16  C   LIG    1        1.621  -2.125  -0.787  0.00  0.00    +0.030 C 
ENDBRANCH  13  14
BRANCH  13  17
ATOM     17  C   LIG    1       -0.832  -0.843   0.390  0.00  0.00    +0.200 C 
ATOM     18  N   LIG    1       -1.427  -1.394   1.186  0.00  0.00    -0.410 NA
ENDBRANCH  13  17
ENDBRANCH   8  13
ENDBRANCH   7  10
ENDBRANCH   1   7
BRANCH   4  19
ATOM     19  C   LIG    1       -6.210   6.100  -0.876  0.00  0.00    +0.220 C 
BRANCH  19  20
ATOM     20  C   LIG    1       -6.237   7.582  -0.601  0.00  0.00    +0.510 C 
ATOM     21  N   LIG    1       -7.416   8.215  -0.440  0.00  0.00    -0.680 N 
ATOM     22  H   LIG    1       -8.243   7.708  -0.434  0.00  0.00    +0.410 HD
ATOM     23  O   LIG    1       -5.199   8.204  -0.525  0.00  0.00    -0.500 OA
BRANCH  21  24
ATOM     24  C   LIG    1       -7.447   9.605  -0.280  0.00  0.00    +0.140 A 
ATOM     25  C   LIG    1       -6.434  10.248   0.420  0.00  0.00    +0.020 A 
ATOM     26  C   LIG    1       -6.465  11.621   0.571  0.00  0.00    +0.030 A 
ATOM     27  C   LIG    1       -7.509  12.353   0.035  0.00  0.00    -0.010 A 
ATOM     28  C   LIG    1       -8.521  11.716  -0.657  0.00  0.00    +0.030 A 
ATOM     29  C   LIG    1       -8.494  10.344  -0.817  0.00  0.00    -0.030 A 
ENDBRANCH  21  24
ENDBRANCH  19  20
ENDBRANCH   4  19
TORSDOF 8
