REMARK  Name = ZINCvU00000005wQ.0
REMARK                            x       y       z     vdW  Elec       q    Type
REMARK                         _______ _______ _______ _____ _____    ______ ____
ROOT
ATOM      1  C   LIG    1        3.667  -0.644  -0.037  0.00  0.00    +0.210 A 
ATOM      2  C   LIG    1        3.628  -2.045  -0.044  0.00  0.00    -0.110 A 
ATOM      3  C   LIG    1        2.384  -2.698  -0.035  0.00  0.00    +0.350 A 
ATOM      4  N   LIG    1        1.259  -2.031  -0.021  0.00  0.00    -0.460 NA
ATOM      5  C   LIG    1        1.227  -0.690  -0.013  0.00  0.00    +0.130 A 
ATOM      6  C   LIG    1        0.002  -0.004   0.002  0.00  0.00    +0.090 A 
ATOM      7  C   LIG    1       -0.016   1.357   0.009  0.00  0.00    +0.000 A 
ATOM      8  C   LIG    1        1.171   2.092   0.002  0.00  0.00    +0.110 A 
ATOM      9  C   LIG    1        2.390   1.451  -0.013  0.00  0.00    +0.070 A 
ATOM     10  C   LIG    1        2.433   0.050  -0.021  0.00  0.00    -0.060 A 
ENDROOT
BRANCH   1  13
ATOM     11  C   LIG    1        6.969   0.512   1.116  0.00  0.00    +0.290 C 
ATOM     12  C   LIG    1        5.675  -0.307   1.134  0.00  0.00    +0.180 C 
ATOM     13  N   LIG    1        4.867   0.036  -0.045  0.00  0.00    -0.500 N 
ATOM     14  C   LIG    1        5.614  -0.228  -1.283  0.00  0.00    +0.170 C 
ATOM     15  C   LIG    1        6.908   0.590  -1.277  0.00  0.00    +0.250 C 
ATOM     16  O   LIG    1        7.665   0.266  -0.109  0.00  0.00    -0.370 OA
BRANCH  11  20
ATOM     17  C   LIG    1        8.803   0.302   4.274  0.00  0.00    +0.080 A 
ATOM     18  C   LIG    1        9.332  -0.885   3.964  0.00  0.00    -0.080 A 
ATOM     19  S   LIG    1        8.733  -1.346   2.373  0.00  0.00    +0.170 S 
ATOM     20  C   LIG    1        7.837   0.107   2.279  0.00  0.00    +0.040 A 
ATOM     21  N   LIG    1        8.008   0.805   3.351  0.00  0.00    -0.450 NA
BRANCH  17  23
ATOM     22  C   LIG    1       10.141   0.222   6.360  0.00  0.00    +0.040 C 
ATOM     23  C   LIG    1        9.092   1.009   5.574  0.00  0.00    +0.010 C 
ATOM     24  C   LIG    1        7.806   1.109   6.397  0.00  0.00    +0.030 C 
ATOM     25  C   LIG    1        9.621   2.415   5.283  0.00  0.00    +0.030 C 
ENDBRANCH  17  23
ENDBRANCH  11  20
ENDBRANCH   1  13
BRANCH   2  26
ATOM     26  C   LIG    1        4.843  -2.803  -0.059  0.00  0.00    +0.240 C 
ATOM     27  N   LIG    1        5.807  -3.404  -0.071  0.00  0.00    -0.380 NA
ENDBRANCH   2  26
BRANCH   8  28
ATOM     28  O   LIG    1        1.123   3.451   0.009  0.00  0.00    -0.310 OA
BRANCH  28  29
ATOM     29  C   LIG    1       -0.172   4.054   0.025  0.00  0.00    +0.600 C 
ATOM     30  F   LIG    1       -0.862   3.648   1.171  0.00  0.00    -0.200 F 
ATOM     31  F   LIG    1       -0.884   3.659  -1.113  0.00  0.00    -0.200 F 
ENDBRANCH  28  29
ENDBRANCH   8  28
TORSDOF 6
