REMARK  Name = ZINCrD000000CrkC.0
REMARK                            x       y       z     vdW  Elec       q    Type
REMARK                         _______ _______ _______ _____ _____    ______ ____
ROOT
ATOM      1  O   LIG    1       -3.675   1.671   0.029  0.00  0.00    -0.350 OA
ENDROOT
BRANCH   1   3
ATOM      2  O   LIG    1       -2.490  -0.206   0.013  0.00  0.00    -0.490 OA
ATOM      3  C   LIG    1       -2.502   1.008   0.019  0.00  0.00    +0.520 C 
BRANCH   3   4
ATOM      4  C   LIG    1       -1.229   1.759   0.017  0.00  0.00    -0.100 A 
ATOM      5  C   LIG    1       -1.240   3.156   0.030  0.00  0.00    +0.100 A 
ATOM      6  C   LIG    1       -0.050   3.854   0.023  0.00  0.00    +0.050 A 
ATOM      7  C   LIG    1        1.155   3.176   0.008  0.00  0.00    +0.070 A 
ATOM      8  C   LIG    1        1.176   1.787   0.000  0.00  0.00    +0.120 A 
ATOM      9  C   LIG    1       -0.013   1.076   0.008  0.00  0.00    +0.120 A 
BRANCH   8  10
ATOM     10  N   LIG    1        2.402   1.104  -0.015  0.00  0.00    -0.330 N 
ATOM     11  C   LIG    1        3.640   1.643  -0.024  0.00  0.00    +0.470 A 
ATOM     12  N   LIG    1        4.494   0.652  -0.037  0.00  0.00    -0.320 NA
ATOM     13  N   LIG    1        3.879  -0.475  -0.038  0.00  0.00    -0.030 NA
ATOM     14  N   LIG    1        2.604  -0.287  -0.018  0.00  0.00    -0.070 NA
ENDBRANCH   8  10
ENDBRANCH   3   4
ENDBRANCH   1   3
BRANCH   1  15
ATOM     15  C   LIG    1       -4.885   0.868   0.030  0.00  0.00    +0.400 C 
BRANCH  15  16
ATOM     16  C   LIG    1       -6.088   1.775   0.040  0.00  0.00    +0.180 A 
ATOM     17  N   LIG    1       -6.694   2.240  -1.016  0.00  0.00    -0.450 NA
ATOM     18  C   LIG    1       -7.723   3.008  -0.624  0.00  0.00    +0.170 A 
ATOM     19  C   LIG    1       -7.734   3.013   0.734  0.00  0.00    +0.010 A 
ATOM     20  O   LIG    1       -6.705   2.237   1.137  0.00  0.00    -0.190 OA
BRANCH  19  21
ATOM     21  C   LIG    1       -8.690   3.731   1.604  0.00  0.00    -0.020 A 
ATOM     22  C   LIG    1       -9.706   4.504   1.040  0.00  0.00    +0.060 A 
ATOM     23  C   LIG    1      -10.598   5.167   1.857  0.00  0.00    +0.040 A 
ATOM     24  C   LIG    1      -10.481   5.075   3.234  0.00  0.00    -0.020 A 
ATOM     25  C   LIG    1       -9.472   4.314   3.799  0.00  0.00    +0.030 A 
ATOM     26 CL   LIG    1      -11.604   5.917   4.255  0.00  0.00    -0.060 Cl
ATOM     27  C   LIG    1       -8.577   3.642   2.992  0.00  0.00    +0.060 A 
ENDBRANCH  19  21
ENDBRANCH  15  16
ENDBRANCH   1  15
TORSDOF 6
