REMARK  Name = ZINCpk000000nynU.0
REMARK                            x       y       z     vdW  Elec       q    Type
REMARK                         _______ _______ _______ _____ _____    ______ ____
ROOT
ATOM      1  C   LIG    1       -1.930   4.822   6.324  0.00  0.00    +0.220 C 
ENDROOT
BRANCH   1   4
ATOM      2  N   LIG    1       -1.032   3.858   4.231  0.00  0.00    -0.630 N 
ATOM      3  H   LIG    1       -0.216   4.359   4.387  0.00  0.00    +0.410 HD
ATOM      4  C   LIG    1       -2.054   3.946   5.105  0.00  0.00    +0.490 C 
ATOM      5  O   LIG    1       -3.074   3.319   4.910  0.00  0.00    -0.520 OA
BRANCH   2   8
ATOM      6  N   LIG    1       -0.704   1.998   1.216  0.00  0.00    -0.370 N 
ATOM      7  C   LIG    1       -0.200   2.860   2.136  0.00  0.00    +0.200 A 
ATOM      8  C   LIG    1       -1.148   3.039   3.092  0.00  0.00    -0.000 A 
ATOM      9  C   LIG    1       -2.262   2.263   2.743  0.00  0.00    +0.250 A 
ATOM     10  N   LIG    1       -1.998   1.646   1.620  0.00  0.00    -0.280 NA
BRANCH   6  11
ATOM     11  C   LIG    1       -0.019   1.526   0.010  0.00  0.00    +0.330 C 
BRANCH  11  13
ATOM     12  C   LIG    1       -1.429  -0.533  -0.113  0.00  0.00    +0.030 C 
ATOM     13  C   LIG    1        0.002  -0.004   0.002  0.00  0.00    -0.040 C 
ATOM     14  C   LIG    1        0.825  -0.496  -1.190  0.00  0.00    +0.030 C 
ENDBRANCH  11  13
ENDBRANCH   6  11
ENDBRANCH   2   8
ENDBRANCH   1   4
BRANCH   1  15
ATOM     15  O   LIG    1       -3.174   4.840   7.027  0.00  0.00    -0.520 OA
ATOM     16  H   LIG    1       -3.467   3.969   7.330  0.00  0.00    +0.380 HD
ENDBRANCH   1  15
BRANCH   1  17
ATOM     17  C   LIG    1       -0.835   4.271   7.240  0.00  0.00    +0.290 C 
BRANCH  17  18
ATOM     18  C   LIG    1       -0.711   5.148   8.459  0.00  0.00    +0.250 A 
ATOM     19  N   LIG    1       -0.498   6.431   8.436  0.00  0.00    -0.470 NA
ATOM     20  C   LIG    1       -0.445   6.908   9.706  0.00  0.00    +0.050 A 
ATOM     21  C   LIG    1       -0.248   8.180  10.250  0.00  0.00    +0.070 A 
ATOM     22  C   LIG    1       -0.240   8.346  11.606  0.00  0.00    +0.000 A 
ATOM     23  C   LIG    1       -0.426   7.263  12.453  0.00  0.00    +0.030 A 
ATOM     24  C   LIG    1       -0.623   5.999  11.938  0.00  0.00    +0.010 A 
ATOM     25  C   LIG    1       -0.634   5.811  10.563  0.00  0.00    +0.050 A 
ATOM     26  N   LIG    1       -0.799   4.712   9.745  0.00  0.00    -0.590 N 
ATOM     27  H   LIG    1       -0.951   3.798  10.033  0.00  0.00    +0.420 HD
ENDBRANCH  17  18
BRANCH  17  28
ATOM     28  O   LIG    1        0.409   4.253   6.537  0.00  0.00    -0.530 OA
ATOM     29  H   LIG    1        0.702   5.124   6.234  0.00  0.00    +0.390 HD
ENDBRANCH  17  28
ENDBRANCH   1  17
TORSDOF 8
