REMARK  Name = ZINCkj000005krF7.1
REMARK                            x       y       z     vdW  Elec       q    Type
REMARK                         _______ _______ _______ _____ _____    ______ ____
ROOT
ATOM      1  N   LIG    1       -0.940   3.663  -1.124  0.00  0.00    -0.700 N 
ATOM      2  H   LIG    1       -0.021   3.374  -1.233  0.00  0.00    +0.410 HD
ATOM      3  C   LIG    1       -1.523   3.614   0.090  0.00  0.00    +0.510 C 
ATOM      4  O   LIG    1       -2.672   3.975   0.227  0.00  0.00    -0.520 OA
ENDROOT
BRANCH   3   5
ATOM      5  C   LIG    1       -0.745   3.110   1.279  0.00  0.00    +0.140 C 
ATOM      6  N   LIG    1       -1.382   3.581   2.517  0.00  0.00    -0.490 N 
ATOM      7  C   LIG    1       -0.623   3.089   3.675  0.00  0.00    +0.250 C 
ATOM      8  C   LIG    1       -0.607   1.558   3.658  0.00  0.00    +0.270 C 
ATOM      9  O   LIG    1       -0.038   1.106   2.426  0.00  0.00    -0.350 OA
ATOM     10  H   LIG    1       -1.393   4.590   2.526  0.00  0.00    +0.440 HD
ATOM     11  H   LIG    1       -2.328   3.233   2.562  0.00  0.00    +0.440 HD
ATOM     12  C   LIG    1       -0.729   1.579   1.267  0.00  0.00    +0.180 C 
ATOM     13  C   LIG    1       -0.013   1.086   0.008  0.00  0.00    +0.110 C 
ENDBRANCH   3   5
BRANCH   1  14
ATOM     14  C   LIG    1       -1.696   4.153  -2.279  0.00  0.00    +0.280 C 
BRANCH  14  15
ATOM     15  C   LIG    1       -0.810   4.106  -3.526  0.00  0.00    +0.080 C 
BRANCH  15  23
ATOM     16  C   LIG    1       -2.333   2.260  -5.144  0.00  0.00    +0.090 C 
ATOM     17  C   LIG    1       -2.316   3.727  -5.489  0.00  0.00    -0.070 A 
ATOM     18  C   LIG    1       -3.033   4.190  -6.576  0.00  0.00    +0.010 A 
ATOM     19  C   LIG    1       -3.014   5.535  -6.895  0.00  0.00    +0.030 A 
ATOM     20  C   LIG    1       -2.281   6.417  -6.124  0.00  0.00    +0.000 A 
ATOM     21  C   LIG    1       -1.568   5.955  -5.033  0.00  0.00    -0.070 A 
ATOM     22  C   LIG    1       -0.769   6.917  -4.193  0.00  0.00    +0.080 C 
ATOM     23  C   LIG    1       -1.587   4.610  -4.714  0.00  0.00    -0.100 A 
ENDBRANCH  15  23
ENDBRANCH  14  15
ENDBRANCH   1  14
TORSDOF 4
