REMARK  Name = ZINCvU0000000IVg.0
REMARK                            x       y       z     vdW  Elec       q    Type
REMARK                         _______ _______ _______ _____ _____    ______ ____
ROOT
ATOM      1  N   LIG    1       -0.083   4.103  -0.924  0.00  0.00    -0.380 N 
ATOM      2  C   LIG    1        1.056   3.558  -0.472  0.00  0.00    +0.160 A 
ATOM      3  C   LIG    1        1.120   2.231  -0.162  0.00  0.00    -0.020 A 
ATOM      4  C   LIG    1       -0.028   1.433  -0.322  0.00  0.00    +0.130 A 
ATOM      5  C   LIG    1       -1.203   2.038  -0.804  0.00  0.00    -0.030 A 
ATOM      6  C   LIG    1        0.002  -0.004   0.002  0.00  0.00    -0.190 C 
ATOM      7  C   LIG    1        2.280   4.421  -0.305  0.00  0.00    +0.150 C 
ATOM      8  C   LIG    1       -1.196   3.372  -1.089  0.00  0.00    +0.180 A 
ATOM      9  C   LIG    1       -2.451   4.031  -1.599  0.00  0.00    +0.160 C 
ENDROOT
BRANCH   6  10
ATOM     10  C   LIG    1       -1.204  -0.727   0.116  0.00  0.00    +0.230 A 
ATOM     11  N   LIG    1       -1.291  -2.024   0.213  0.00  0.00    -0.510 NA
ATOM     12  C   LIG    1       -2.491  -2.564   0.314  0.00  0.00    +0.130 A 
ATOM     13  C   LIG    1       -2.846  -3.938   0.431  0.00  0.00    +0.040 A 
ATOM     14  C   LIG    1       -4.148  -4.304   0.525  0.00  0.00    +0.030 A 
ATOM     15  C   LIG    1       -5.166  -3.351   0.511  0.00  0.00    +0.000 A 
ATOM     16  C   LIG    1       -4.861  -2.014   0.400  0.00  0.00    +0.060 A 
ATOM     17  C   LIG    1       -3.532  -1.607   0.301  0.00  0.00    -0.220 A 
ATOM     18  S   LIG    1       -2.809  -0.007   0.156  0.00  0.00    +0.030 S 
ENDBRANCH   6  10
BRANCH   1  24
ATOM     19  C   LIG    1       -0.462   6.394  -0.250  0.00  0.00    +0.210 A 
ATOM     20  C   LIG    1       -0.483   7.744  -0.561  0.00  0.00    -0.030 A 
ATOM     21  C   LIG    1       -0.168   8.164  -1.840  0.00  0.00    +0.190 A 
ATOM     22  C   LIG    1        0.174   7.241  -2.813  0.00  0.00    -0.030 A 
ATOM     23  C   LIG    1        0.204   5.894  -2.513  0.00  0.00    +0.180 A 
ATOM     24  C   LIG    1       -0.111   5.461  -1.230  0.00  0.00    +0.040 A 
BRANCH  22  25
ATOM     25  N   LIG    1        0.511   7.700  -4.179  0.00  0.00    -0.020 N 
ATOM     26  O   LIG    1        0.483   8.985  -4.468  0.00  0.00    -0.150 OA
ATOM     27  O   LIG    1        0.838   6.824  -5.106  0.00  0.00    -0.160 OA
ENDBRANCH  22  25
BRANCH  19  29
ATOM     28  C   LIG    1       -1.125   6.988   1.953  0.00  0.00    +0.270 C 
ATOM     29  O   LIG    1       -0.777   5.978   1.004  0.00  0.00    -0.290 OA
ENDBRANCH  19  29
ENDBRANCH   1  24
BRANCH   6  30
ATOM     30  C   LIG    1        1.256  -0.667   0.201  0.00  0.00    +0.300 C 
ATOM     31  N   LIG    1        2.250  -1.194   0.359  0.00  0.00    -0.460 NA
ENDBRANCH   6  30
TORSDOF 5
