REMARK  Name = ZINCrH000004uPEr.0
REMARK                            x       y       z     vdW  Elec       q    Type
REMARK                         _______ _______ _______ _____ _____    ______ ____
ROOT
ATOM      1  C   LIG    1       -2.006   2.463   5.221  0.00  0.00    -0.010 A 
ATOM      2  C   LIG    1       -1.893   2.383   3.869  0.00  0.00    +0.090 A 
ATOM      3  C   LIG    1       -0.750   1.603   3.578  0.00  0.00    -0.150 A 
ATOM      4  C   LIG    1       -0.149   1.183   2.378  0.00  0.00    +0.200 A 
ATOM      5  C   LIG    1        0.988   0.401   2.423  0.00  0.00    -0.120 A 
ATOM      6  C   LIG    1        1.536   0.026   3.642  0.00  0.00    +0.090 A 
ATOM      7  C   LIG    1        0.957   0.427   4.826  0.00  0.00    -0.060 A 
ATOM      8  C   LIG    1       -0.190   1.215   4.810  0.00  0.00    +0.160 A 
ATOM      9  N   LIG    1       -0.973   1.754   5.805  0.00  0.00    -0.580 N 
ATOM     10  H   LIG    1       -0.824   1.653   6.758  0.00  0.00    +0.420 HD
ENDROOT
BRANCH   1  12
ATOM     11  O   LIG    1       -3.924   3.781   5.331  0.00  0.00    -0.520 OA
ATOM     12  C   LIG    1       -3.059   3.188   5.947  0.00  0.00    +0.590 C 
ATOM     13  N   LIG    1       -3.065   3.195   7.295  0.00  0.00    -0.730 N 
ATOM     14  H   LIG    1       -2.376   2.721   7.785  0.00  0.00    +0.400 HD
BRANCH  13  15
ATOM     15  C   LIG    1       -4.114   3.918   8.018  0.00  0.00    +0.250 C 
ATOM     16  C   LIG    1       -3.717   5.388   8.158  0.00  0.00    +0.010 C 
ATOM     17  C   LIG    1       -4.812   6.143   8.914  0.00  0.00    +0.020 C 
ATOM     18  C   LIG    1       -4.990   5.528  10.303  0.00  0.00    -0.010 C 
ATOM     19  C   LIG    1       -5.388   4.057  10.163  0.00  0.00    +0.170 C 
ATOM     20  C   LIG    1       -4.292   3.303   9.408  0.00  0.00    +0.040 C 
BRANCH  19  21
ATOM     21  O   LIG    1       -5.553   3.483  11.461  0.00  0.00    -0.570 OA
ATOM     22  H   LIG    1       -6.234   3.913  11.997  0.00  0.00    +0.380 HD
ENDBRANCH  19  21
ENDBRANCH  13  15
ENDBRANCH   1  12
BRANCH   4  23
ATOM     23  O   LIG    1       -0.682   1.547   1.184  0.00  0.00    -0.300 OA
BRANCH  23  24
ATOM     24  C   LIG    1       -0.013   1.086   0.008  0.00  0.00    +0.240 C 
BRANCH  24  25
ATOM     25  C   LIG    1       -0.742   1.585  -1.213  0.00  0.00    -0.100 A 
ATOM     26  C   LIG    1       -1.750   0.825  -1.775  0.00  0.00    +0.030 A 
ATOM     27  C   LIG    1       -2.422   1.285  -2.892  0.00  0.00    +0.010 A 
ATOM     28  C   LIG    1       -2.078   2.501  -3.453  0.00  0.00    +0.010 A 
ATOM     29  C   LIG    1       -1.066   3.259  -2.894  0.00  0.00    +0.010 A 
ATOM     30  C   LIG    1       -0.398   2.801  -1.774  0.00  0.00    +0.030 A 
ENDBRANCH  24  25
ENDBRANCH  23  24
ENDBRANCH   4  23
TORSDOF 6
