REMARK  Name = ZINCqH0000009957.0
REMARK                            x       y       z     vdW  Elec       q    Type
REMARK                         _______ _______ _______ _____ _____    ______ ____
ROOT
ATOM      1  N   LIG    1       -4.273  -4.573  -0.866  0.00  0.00    -0.730 N 
ATOM      2  H   LIG    1       -3.365  -4.851  -1.062  0.00  0.00    +0.400 HD
ATOM      3  C   LIG    1       -5.312  -5.230  -1.418  0.00  0.00    +0.510 C 
ATOM      4  O   LIG    1       -6.448  -4.883  -1.173  0.00  0.00    -0.520 OA
ENDROOT
BRANCH   1   6
ATOM      5  C   LIG    1       -4.755  -3.955   1.451  0.00  0.00    +0.040 C 
ATOM      6  C   LIG    1       -4.516  -3.440   0.030  0.00  0.00    +0.280 C 
BRANCH   6   7
ATOM      7  C   LIG    1       -3.316  -2.528   0.022  0.00  0.00    -0.100 A 
ATOM      8  C   LIG    1       -3.492  -1.156   0.031  0.00  0.00    +0.060 A 
ATOM      9  C   LIG    1       -2.395  -0.318   0.024  0.00  0.00    +0.010 A 
ATOM     10  C   LIG    1       -1.114  -0.853   0.009  0.00  0.00    +0.140 A 
ATOM     11  C   LIG    1       -0.941  -2.230  -0.006  0.00  0.00    +0.000 A 
ATOM     12  C   LIG    1       -2.042  -3.064   0.007  0.00  0.00    +0.040 A 
BRANCH  10  13
ATOM     13  N   LIG    1        0.002  -0.004   0.002  0.00  0.00    -0.410 N 
ATOM     14  C   LIG    1        1.318  -0.388  -0.013  0.00  0.00    +0.130 A 
ATOM     15  C   LIG    1        2.054   0.740  -0.014  0.00  0.00    +0.160 A 
ATOM     16  N   LIG    1        1.215   1.786   0.000  0.00  0.00    -0.480 NA
ATOM     17  C   LIG    1       -0.016   1.354   0.009  0.00  0.00    +0.400 A 
ENDBRANCH  10  13
ENDBRANCH   6   7
ENDBRANCH   1   6
BRANCH   3  18
ATOM     18  C   LIG    1       -5.063  -6.396  -2.340  0.00  0.00    +0.140 C 
BRANCH  18  19
ATOM     19  C   LIG    1       -6.380  -6.950  -2.817  0.00  0.00    -0.160 A 
ATOM     20  C   LIG    1       -7.054  -7.982  -2.284  0.00  0.00    +0.240 A 
ATOM     21  N   LIG    1       -8.211  -8.194  -2.982  0.00  0.00    -0.590 N 
ATOM     22  H   LIG    1       -8.864  -8.884  -2.782  0.00  0.00    +0.420 HD
ATOM     23  C   LIG    1       -8.309  -7.288  -4.013  0.00  0.00    +0.100 A 
ATOM     24  C   LIG    1       -9.256  -7.067  -5.008  0.00  0.00    -0.010 A 
ATOM     25  C   LIG    1       -9.066  -6.053  -5.921  0.00  0.00    +0.020 A 
ATOM     26  C   LIG    1       -7.937  -5.248  -5.860  0.00  0.00    -0.030 A 
ATOM     27  C   LIG    1       -6.994  -5.447  -4.892  0.00  0.00    +0.050 A 
ATOM     28  C   LIG    1       -7.167  -6.469  -3.956  0.00  0.00    -0.090 A 
ENDBRANCH  18  19
ENDBRANCH   3  18
TORSDOF 5
