REMARK  Name = ZINCrg000000oVdL.0
REMARK                            x       y       z     vdW  Elec       q    Type
REMARK                         _______ _______ _______ _____ _____    ______ ____
ROOT
ATOM      1  C   LIG    1        8.623   0.326   1.483  0.00  0.00    +0.300 C 
ATOM      2  N   LIG    1        7.690  -0.803   1.440  0.00  0.00    -0.600 N 
ATOM      3  C   LIG    1        6.362  -0.579   1.383  0.00  0.00    +0.510 C 
ATOM      4  O   LIG    1        5.590  -1.513   1.347  0.00  0.00    -0.520 OA
ENDROOT
BRANCH   3   5
ATOM      5  C   LIG    1        5.837   0.834   1.365  0.00  0.00    +0.360 C 
BRANCH   5   6
ATOM      6  N   LIG    1        4.374   0.810   1.302  0.00  0.00    -0.570 N 
ATOM      7  C   LIG    1        3.573   0.794   2.376  0.00  0.00    +0.710 C 
ATOM      8  N   LIG    1        2.266   0.774   2.042  0.00  0.00    -0.710 N 
ATOM      9  H   LIG    1        1.508   0.760   2.648  0.00  0.00    +0.440 HD
ATOM     10  C   LIG    1        2.223   0.778   0.583  0.00  0.00    +0.110 C 
ATOM     11  C   LIG    1        1.442   1.980   0.034  0.00  0.00    +0.050 C 
ATOM     12  C   LIG    1       -0.031   1.513   0.056  0.00  0.00    +0.030 C 
ATOM     13  C   LIG    1       -0.006  -0.026   0.051  0.00  0.00    +0.030 C 
ATOM     14  C   LIG    1        1.481  -0.445   0.026  0.00  0.00    +0.050 C 
ATOM     15  O   LIG    1        3.979   0.796   3.522  0.00  0.00    -0.540 OA
ATOM     16  C   LIG    1        3.663   0.802   0.152  0.00  0.00    +0.540 C 
ATOM     17  O   LIG    1        4.093   0.813  -0.982  0.00  0.00    -0.450 OA
ENDBRANCH   5   6
ENDBRANCH   3   5
BRANCH   2  18
ATOM     18  C   LIG    1        8.200  -2.176   1.457  0.00  0.00    +0.340 C 
BRANCH  18  19
ATOM     19  C   LIG    1        8.437  -2.643   0.044  0.00  0.00    +0.500 C 
ATOM     20  N   LIG    1        8.909  -3.884  -0.186  0.00  0.00    -0.670 N 
ATOM     21  H   LIG    1        9.160  -4.453   0.558  0.00  0.00    +0.410 HD
ATOM     22  O   LIG    1        8.202  -1.901  -0.887  0.00  0.00    -0.510 OA
BRANCH  20  23
ATOM     23  C   LIG    1        9.037  -4.352  -1.500  0.00  0.00    +0.130 A 
ATOM     24  C   LIG    1        8.809  -5.691  -1.786  0.00  0.00    +0.030 A 
ATOM     25  C   LIG    1        8.931  -6.150  -3.083  0.00  0.00    +0.010 A 
ATOM     26  C   LIG    1        9.291  -5.277  -4.096  0.00  0.00    +0.080 A 
ATOM     27  C   LIG    1        9.524  -3.942  -3.812  0.00  0.00    +0.010 A 
ATOM     28  F   LIG    1        9.415  -5.729  -5.363  0.00  0.00    -0.140 F 
ATOM     29  C   LIG    1        9.398  -3.478  -2.517  0.00  0.00    +0.060 A 
ENDBRANCH  20  23
ENDBRANCH  18  19
ENDBRANCH   2  18
TORSDOF 5
