REMARK  Name = ZINCqH0000032X9O.0
REMARK                            x       y       z     vdW  Elec       q    Type
REMARK                         _______ _______ _______ _____ _____    ______ ____
ROOT
ATOM      1  C   LIG    1        1.951  -0.270  -5.987  0.00  0.00    +0.370 C 
ENDROOT
BRANCH   1   5
ATOM      2  C   LIG    1       -0.047   1.107  -2.471  0.00  0.00    -0.070 A 
ATOM      3  C   LIG    1        0.950   1.873  -3.045  0.00  0.00    +0.010 A 
ATOM      4  C   LIG    1        1.600   1.425  -4.179  0.00  0.00    +0.010 A 
ATOM      5  C   LIG    1        1.246   0.215  -4.747  0.00  0.00    -0.100 A 
ATOM      6  C   LIG    1        0.245  -0.549  -4.176  0.00  0.00    +0.030 A 
ATOM      7  C   LIG    1       -0.402  -0.103  -3.039  0.00  0.00    +0.020 A 
BRANCH   2   8
ATOM      8  C   LIG    1       -0.753   1.593  -1.232  0.00  0.00    +0.060 C 
BRANCH   8   9
ATOM      9  C   LIG    1       -0.013   1.086   0.008  0.00  0.00    +0.010 C 
BRANCH   9  11
ATOM     10  C   LIG    1        0.011   1.072   2.506  0.00  0.00    +0.000 C 
ATOM     11  C   LIG    1       -0.729   1.579   1.267  0.00  0.00    -0.010 C 
ENDBRANCH   9  11
ENDBRANCH   8   9
ENDBRANCH   2   8
ENDBRANCH   1   5
BRANCH   1  12
ATOM     12  C   LIG    1        3.276  -0.879  -5.605  0.00  0.00    -0.190 A 
ATOM     13  C   LIG    1        3.514  -2.186  -5.481  0.00  0.00    +0.020 A 
ATOM     14  C   LIG    1        4.811  -2.511  -5.123  0.00  0.00    +0.010 A 
ATOM     15  C   LIG    1        5.624  -1.468  -4.949  0.00  0.00    -0.050 A 
ATOM     16  S   LIG    1        4.742   0.024  -5.250  0.00  0.00    +0.100 S 
ENDBRANCH   1  12
BRANCH   1  17
ATOM     17  N   LIG    1        2.176   0.858  -6.894  0.00  0.00    -0.720 N 
ATOM     18  H   LIG    1        2.227   1.760  -6.543  0.00  0.00    +0.400 HD
ATOM     19  C   LIG    1        2.311   0.641  -8.218  0.00  0.00    +0.530 C 
ATOM     20  O   LIG    1        2.246  -0.488  -8.657  0.00  0.00    -0.510 OA
BRANCH  19  21
ATOM     21  C   LIG    1        2.541   1.801  -9.151  0.00  0.00    +0.010 C 
ATOM     22  C   LIG    1        1.342   2.764  -9.102  0.00  0.00    +0.080 C 
ATOM     23  C   LIG    1        1.441   3.738 -10.293  0.00  0.00    -0.310 C 
ATOM     24  S   LIG    1        2.353   2.820 -11.586  0.00  0.00    +2.390 S 
ATOM     25  O   LIG    1        1.478   2.528 -12.667  0.00  0.00    -0.930 OA
ATOM     26  O   LIG    1        3.595   3.464 -11.835  0.00  0.00    -0.930 OA
ATOM     27  C   LIG    1        2.645   1.294 -10.613  0.00  0.00    -0.270 C 
ENDBRANCH  19  21
ENDBRANCH   1  17
TORSDOF 7
