REMARK  Name = ZINCrD000000B2tC.0
REMARK                            x       y       z     vdW  Elec       q    Type
REMARK                         _______ _______ _______ _____ _____    ______ ____
ROOT
ATOM      1  C   LIG    1        3.641   2.154  -0.021  0.00  0.00    -0.070 A 
ATOM      2  C   LIG    1        4.805   1.399  -0.051  0.00  0.00    +0.020 A 
ATOM      3  C   LIG    1        4.717  -0.002  -0.057  0.00  0.00    +0.200 A 
ATOM      4  N   LIG    1        3.563  -0.634  -0.035  0.00  0.00    -0.450 NA
ATOM      5  C   LIG    1        2.396   0.012  -0.006  0.00  0.00    +0.130 A 
ATOM      6  C   LIG    1        1.178  -0.691   0.017  0.00  0.00    +0.050 A 
ATOM      7  C   LIG    1        0.003  -0.004   0.045  0.00  0.00    +0.030 A 
ATOM      8  C   LIG    1       -0.016   1.388   0.054  0.00  0.00    +0.020 A 
ATOM      9  C   LIG    1        1.145   2.103   0.033  0.00  0.00    +0.060 A 
ATOM     10  C   LIG    1        2.371   1.429   0.002  0.00  0.00    -0.060 A 
ENDROOT
BRANCH   3  11
ATOM     11  C   LIG    1        5.968  -0.797  -0.089  0.00  0.00    -0.110 A 
ATOM     12  C   LIG    1        5.922  -2.194  -0.096  0.00  0.00    +0.120 A 
ATOM     13  C   LIG    1        7.119  -2.890  -0.127  0.00  0.00    -0.030 A 
ATOM     14  C   LIG    1        8.309  -2.188  -0.149  0.00  0.00    +0.270 A 
ATOM     15  N   LIG    1        8.322  -0.868  -0.141  0.00  0.00    -0.480 NA
ATOM     16  C   LIG    1        7.210  -0.163  -0.119  0.00  0.00    +0.280 A 
ENDBRANCH   3  11
BRANCH   1  18
ATOM     17  O   LIG    1        2.652   4.271  -0.092  0.00  0.00    -0.520 OA
ATOM     18  C   LIG    1        3.684   3.633  -0.014  0.00  0.00    +0.570 C 
ATOM     19  N   LIG    1        4.866   4.272   0.080  0.00  0.00    -0.720 N 
ATOM     20  H   LIG    1        5.690   3.763   0.143  0.00  0.00    +0.400 HD
BRANCH  19  21
ATOM     21  C   LIG    1        4.909   5.737   0.088  0.00  0.00    +0.300 C 
BRANCH  21  22
ATOM     22  C   LIG    1        6.361   6.205   0.202  0.00  0.00    +0.020 C 
BRANCH  22  23
ATOM     23  C   LIG    1        6.405   7.734   0.210  0.00  0.00    +0.230 C 
BRANCH  23  24
ATOM     24  C   LIG    1        7.842   8.202   0.449  0.00  0.00    +0.420 C 
ATOM     25  F   LIG    1        8.291   7.716   1.682  0.00  0.00    -0.180 F 
ATOM     26  F   LIG    1        7.882   9.600   0.457  0.00  0.00    -0.170 F 
ATOM     27  F   LIG    1        8.666   7.717  -0.572  0.00  0.00    -0.180 F 
ENDBRANCH  23  24
BRANCH  23  28
ATOM     28  O   LIG    1        5.946   8.230  -1.049  0.00  0.00    -0.530 OA
ATOM     29  H   LIG    1        6.472   7.934  -1.804  0.00  0.00    +0.390 HD
ENDBRANCH  23  28
ENDBRANCH  22  23
ENDBRANCH  21  22
ENDBRANCH  19  21
ENDBRANCH   1  18
TORSDOF 7
