REMARK  Name = ZINCkj00000AllFD.0
REMARK                            x       y       z     vdW  Elec       q    Type
REMARK                         _______ _______ _______ _____ _____    ______ ____
ROOT
ATOM      1  C   LIG    1        6.047  -0.434  -2.881  0.00  0.00    +0.100 C 
ATOM      2  C   LIG    1        5.935  -1.825  -2.251  0.00  0.00    +0.040 C 
ATOM      3  C   LIG    1        5.373  -1.689  -0.833  0.00  0.00    +0.080 C 
ATOM      4  C   LIG    1        4.024  -0.969  -0.893  0.00  0.00    +0.250 C 
ATOM      5  N   LIG    1        4.202   0.364  -1.480  0.00  0.00    -0.380 N 
ATOM      6  H   LIG    1        4.881   0.879  -0.940  0.00  0.00    +0.430 HD
ATOM      7  C   LIG    1        4.673   0.239  -2.865  0.00  0.00    +0.310 C 
ENDROOT
BRANCH   1  11
ATOM      8  N   LIG    1        7.848  -0.639  -4.564  0.00  0.00    -0.840 N 
ATOM      9  H   LIG    1        8.157  -0.722  -5.480  0.00  0.00    +0.420 HD
ATOM     10  H   LIG    1        8.488  -0.613  -3.837  0.00  0.00    +0.400 HD
ATOM     11  C   LIG    1        6.528  -0.562  -4.304  0.00  0.00    +0.500 C 
ATOM     12  O   LIG    1        5.727  -0.595  -5.214  0.00  0.00    -0.520 OA
ENDBRANCH   1  11
BRANCH   1  13
ATOM     13  O   LIG    1        6.974   0.355  -2.133  0.00  0.00    -0.550 OA
ATOM     14  H   LIG    1        7.868  -0.013  -2.101  0.00  0.00    +0.400 HD
ENDBRANCH   1  13
BRANCH   5  15
ATOM     15  C   LIG    1        2.920   1.080  -1.463  0.00  0.00    +0.270 C 
BRANCH  15  16
ATOM     16  C   LIG    1        2.488   1.321  -0.015  0.00  0.00    +0.110 C 
BRANCH  16  17
ATOM     17  C   LIG    1        1.173   2.055   0.002  0.00  0.00    -0.130 A 
ATOM     18  C   LIG    1       -0.016   1.347   0.009  0.00  0.00    +0.120 A 
ATOM     19  C   LIG    1       -1.225   2.023   0.019  0.00  0.00    +0.010 A 
ATOM     20  C   LIG    1       -1.243   3.405   0.033  0.00  0.00    +0.090 A 
ATOM     21  C   LIG    1       -0.055   4.113   0.025  0.00  0.00    +0.040 A 
ATOM     22  F   LIG    1        0.002  -0.004   0.002  0.00  0.00    -0.130 F 
ATOM     23  C   LIG    1        1.153   3.439   0.010  0.00  0.00    -0.000 A 
ATOM     24 CL   LIG    1        2.643   4.329  -0.001  0.00  0.00    -0.050 Cl
ENDBRANCH  16  17
ENDBRANCH  15  16
ENDBRANCH   5  15
TORSDOF 5
