REMARK  Name = ZINCkj00000AllFD.1
REMARK                            x       y       z     vdW  Elec       q    Type
REMARK                         _______ _______ _______ _____ _____    ______ ____
ROOT
ATOM      1  C   LIG    1        1.286   1.562  -0.002  0.00  0.00    +0.110 C 
ATOM      2  C   LIG    1        2.020   1.091  -1.261  0.00  0.00    +0.050 C 
ATOM      3  C   LIG    1        3.393   1.767  -1.322  0.00  0.00    +0.090 C 
ATOM      4  C   LIG    1        3.210   3.286  -1.291  0.00  0.00    +0.250 C 
ATOM      5  N   LIG    1        2.527   3.674  -0.051  0.00  0.00    -0.380 N 
ATOM      6  H   LIG    1        3.056   3.343   0.741  0.00  0.00    +0.420 HD
ATOM      7  C   LIG    1        1.181   3.088  -0.019  0.00  0.00    +0.300 C 
ENDROOT
BRANCH   1  11
ATOM      8  N   LIG    1        1.425   1.025   2.409  0.00  0.00    -0.830 N 
ATOM      9  H   LIG    1        1.918   0.743   3.195  0.00  0.00    +0.420 HD
ATOM     10  H   LIG    1        0.481   1.238   2.478  0.00  0.00    +0.410 HD
ATOM     11  C   LIG    1        2.052   1.123   1.220  0.00  0.00    +0.470 C 
ATOM     12  O   LIG    1        3.232   0.858   1.133  0.00  0.00    -0.520 OA
ENDBRANCH   1  11
BRANCH   1  13
ATOM     13  O   LIG    1       -0.025   0.994   0.027  0.00  0.00    -0.530 OA
ATOM     14  H   LIG    1       -0.034   0.027   0.036  0.00  0.00    +0.410 HD
ENDBRANCH   1  13
BRANCH   5  15
ATOM     15  C   LIG    1        2.422   5.138   0.010  0.00  0.00    +0.270 C 
BRANCH  15  16
ATOM     16  C   LIG    1        3.822   5.747   0.111  0.00  0.00    +0.110 C 
BRANCH  16  17
ATOM     17  C   LIG    1        3.714   7.248   0.173  0.00  0.00    -0.130 A 
ATOM     18  C   LIG    1        3.602   7.884   1.398  0.00  0.00    +0.120 A 
ATOM     19  C   LIG    1        3.503   9.264   1.454  0.00  0.00    +0.010 A 
ATOM     20  C   LIG    1        3.517  10.006   0.288  0.00  0.00    +0.090 A 
ATOM     21  C   LIG    1        3.629   9.371  -0.934  0.00  0.00    +0.040 A 
ATOM     22  F   LIG    1        3.589   7.159   2.538  0.00  0.00    -0.130 F 
ATOM     23  C   LIG    1        3.733   7.993  -0.992  0.00  0.00    -0.000 A 
ATOM     24 CL   LIG    1        3.881   7.197  -2.528  0.00  0.00    -0.050 Cl
ENDBRANCH  16  17
ENDBRANCH  15  16
ENDBRANCH   5  15
TORSDOF 5
