REMARK  Name = ZINCkj000005jkX1.0
REMARK                            x       y       z     vdW  Elec       q    Type
REMARK                         _______ _______ _______ _____ _____    ______ ____
ROOT
ATOM      1  C   LIG    1       -0.442   1.942  -1.500  0.00  0.00    +0.100 C 
ATOM      2  C   LIG    1        0.251   1.413  -0.242  0.00  0.00    +0.150 C 
ATOM      3  C   LIG    1        1.632   2.064  -0.108  0.00  0.00    +0.330 C 
ATOM      4  N   LIG    1        2.330   1.447   1.030  0.00  0.00    -0.630 N 
ATOM      5  C   LIG    1        2.389  -0.022   1.093  0.00  0.00    +0.310 C 
ATOM      6  C   LIG    1        0.973  -0.574   0.903  0.00  0.00    +0.260 C 
ATOM      7  C   LIG    1        2.899   2.205   1.988  0.00  0.00    +0.590 C 
ATOM      8  O   LIG    1        2.913   3.416   1.877  0.00  0.00    -0.470 OA
ATOM      9  N   LIG    1        0.405  -0.043  -0.343  0.00  0.00    -0.500 N 
ATOM     10  H   LIG    1        1.022  -0.263  -1.111  0.00  0.00    +0.430 HD
ATOM     11  H   LIG    1       -0.497  -0.465  -0.507  0.00  0.00    +0.430 HD
ENDROOT
BRANCH   7  12
ATOM     12  C   LIG    1        3.506   1.566   3.172  0.00  0.00    -0.150 A 
ATOM     13  C   LIG    1        4.533   0.633   3.017  0.00  0.00    +0.070 A 
ATOM     14  C   LIG    1        5.099   0.043   4.127  0.00  0.00    +0.010 A 
ATOM     15  C   LIG    1        4.648   0.364   5.396  0.00  0.00    +0.080 A 
ATOM     16  C   LIG    1        3.629   1.282   5.564  0.00  0.00    +0.000 A 
ATOM     17  C   LIG    1        3.051   1.889   4.458  0.00  0.00    +0.210 A 
BRANCH  17  18
ATOM     18  N   LIG    1        2.021   2.817   4.626  0.00  0.00    -0.340 N 
ATOM     19  C   LIG    1        1.570   3.307   5.810  0.00  0.00    +0.230 A 
ATOM     20  C   LIG    1        0.571   4.179   5.539  0.00  0.00    -0.090 A 
ATOM     21  C   LIG    1        0.398   4.218   4.151  0.00  0.00    +0.250 A 
ATOM     22  N   LIG    1        1.264   3.404   3.604  0.00  0.00    -0.280 NA
ENDBRANCH  17  18
ENDBRANCH   7  12
TORSDOF 2
