REMARK  Name = ZINCvU0000000EIL.0
REMARK                            x       y       z     vdW  Elec       q    Type
REMARK                         _______ _______ _______ _____ _____    ______ ____
ROOT
ATOM      1  C   LIG    1        0.466   2.023  -0.215  0.00  0.00    +0.110 A 
ATOM      2  C   LIG    1       -0.578   1.125  -0.101  0.00  0.00    -0.030 A 
ATOM      3  C   LIG    1       -0.332  -0.242  -0.037  0.00  0.00    -0.070 A 
ATOM      4  C   LIG    1        0.964  -0.704  -0.090  0.00  0.00    -0.080 A 
ATOM      5  C   LIG    1        1.299  -2.174  -0.043  0.00  0.00    +0.340 C 
ATOM      6  N   LIG    1        0.107  -2.941   0.333  0.00  0.00    -0.600 N 
ATOM      7  C   LIG    1       -1.162  -2.581  -0.321  0.00  0.00    +0.270 C 
ATOM      8  C   LIG    1        0.171  -3.935   1.241  0.00  0.00    +0.530 C 
ATOM      9  O   LIG    1        1.229  -4.211   1.766  0.00  0.00    -0.520 OA
ATOM     10  C   LIG    1        2.017   0.195  -0.199  0.00  0.00    -0.020 A 
ATOM     11  C   LIG    1       -1.520  -1.157   0.100  0.00  0.00    +0.080 C 
ATOM     12  C   LIG    1        1.776   1.555  -0.262  0.00  0.00    +0.100 A 
ENDROOT
BRANCH   5  13
ATOM     13  C   LIG    1        1.776  -2.623  -1.400  0.00  0.00    -0.090 A 
ATOM     14  C   LIG    1        3.004  -3.246  -1.530  0.00  0.00    +0.020 A 
ATOM     15  C   LIG    1        3.439  -3.663  -2.773  0.00  0.00    +0.000 A 
ATOM     16  C   LIG    1        2.652  -3.447  -3.889  0.00  0.00    +0.010 A 
ATOM     17  C   LIG    1        1.428  -2.819  -3.761  0.00  0.00    +0.000 A 
ATOM     18  C   LIG    1        0.990  -2.408  -2.516  0.00  0.00    +0.020 A 
ENDBRANCH   5  13
BRANCH   1  20
ATOM     19  C   LIG    1       -1.154   3.764  -0.227  0.00  0.00    +0.250 C 
ATOM     20  O   LIG    1        0.215   3.358  -0.281  0.00  0.00    -0.300 OA
ENDBRANCH   1  20
BRANCH  12  21
ATOM     21  O   LIG    1        2.812   2.429  -0.370  0.00  0.00    -0.300 OA
ATOM     22  C   LIG    1        4.128   1.874  -0.412  0.00  0.00    +0.240 C 
ENDBRANCH  12  21
BRANCH   8  23
ATOM     23  C   LIG    1       -1.073  -4.704   1.605  0.00  0.00    +0.110 C 
BRANCH  23  24
ATOM     24  C   LIG    1       -0.734  -5.751   2.634  0.00  0.00    -0.100 A 
ATOM     25  C   LIG    1       -0.354  -7.020   2.231  0.00  0.00    +0.130 A 
ATOM     26  C   LIG    1       -0.036  -7.980   3.177  0.00  0.00    -0.010 A 
ATOM     27  C   LIG    1       -0.109  -7.675   4.522  0.00  0.00    +0.070 A 
ATOM     28  C   LIG    1       -0.494  -6.410   4.925  0.00  0.00    +0.020 A 
ATOM     29  F   LIG    1       -0.288  -7.319   0.915  0.00  0.00    -0.130 F 
ATOM     30  C   LIG    1       -0.806  -5.448   3.982  0.00  0.00    +0.000 A 
ATOM     31 CL   LIG    1       -1.290  -3.859   4.488  0.00  0.00    -0.050 Cl
ENDBRANCH  23  24
ENDBRANCH   8  23
TORSDOF 5
