REMARK  Name = ZINCqH0000002pJD.0
REMARK                            x       y       z     vdW  Elec       q    Type
REMARK                         _______ _______ _______ _____ _____    ______ ____
ROOT
ATOM      1  C   LIG    1       -2.464   3.692  -4.842  0.00  0.00    -0.080 A 
ATOM      2  C   LIG    1       -3.274   4.331  -3.901  0.00  0.00    +0.070 A 
ATOM      3  C   LIG    1       -2.913   4.327  -2.570  0.00  0.00    +0.120 A 
ATOM      4  C   LIG    1       -1.752   3.693  -2.166  0.00  0.00    -0.660 A 
ATOM      5  C   LIG    1       -0.942   3.063  -3.095  0.00  0.00    +0.130 A 
ATOM      6  C   LIG    1       -1.294   3.054  -4.428  0.00  0.00    +0.030 A 
ENDROOT
BRANCH   1   8
ATOM      7  N   LIG    1       -1.899   3.539  -7.220  0.00  0.00    -0.610 N 
ATOM      8  C   LIG    1       -2.844   3.693  -6.271  0.00  0.00    +0.550 C 
ATOM      9  O   LIG    1       -4.009   3.831  -6.590  0.00  0.00    -0.520 OA
ATOM     10  C   LIG    1       -0.484   3.486  -6.843  0.00  0.00    +0.300 C 
BRANCH   7  11
ATOM     11  C   LIG    1       -2.286   3.427  -8.628  0.00  0.00    +0.280 C 
BRANCH  11  12
ATOM     12  C   LIG    1       -2.330   4.820  -9.258  0.00  0.00    -0.010 C 
BRANCH  12  14
ATOM     13  C   LIG    1       -2.778   6.096 -11.360  0.00  0.00    +0.010 C 
ATOM     14  C   LIG    1       -2.735   4.702 -10.729  0.00  0.00    +0.000 C 
ENDBRANCH  12  14
ENDBRANCH  11  12
ENDBRANCH   7  11
ENDBRANCH   1   8
BRANCH   4  15
ATOM     15  S   LIG    1       -1.298   3.693  -0.464  0.00  0.00    +2.680 S 
ATOM     16  O   LIG    1        0.108   3.494  -0.423  0.00  0.00    -0.940 OA
ATOM     17  O   LIG    1       -1.942   4.816   0.123  0.00  0.00    -0.940 OA
BRANCH  15  18
ATOM     18  N   LIG    1       -1.980   2.351   0.226  0.00  0.00    -0.940 N 
BRANCH  18  19
ATOM     19  C   LIG    1       -1.232   1.179   0.363  0.00  0.00    +0.130 A 
ATOM     20  C   LIG    1       -1.664   0.003  -0.236  0.00  0.00    +0.010 A 
ATOM     21  C   LIG    1       -0.925  -1.155  -0.094  0.00  0.00    +0.020 A 
ATOM     22  C   LIG    1        0.244  -1.144   0.644  0.00  0.00    +0.010 A 
ATOM     23  C   LIG    1        0.677   0.026   1.242  0.00  0.00    +0.020 A 
ATOM     24  C   LIG    1       -0.057   1.187   1.104  0.00  0.00    +0.030 A 
ENDBRANCH  18  19
BRANCH  18  25
ATOM     25  C   LIG    1       -3.369   2.392   0.691  0.00  0.00    +0.300 C 
ATOM     26  C   LIG    1       -3.397   2.723   2.184  0.00  0.00    +0.020 C 
ENDBRANCH  18  25
ENDBRANCH  15  18
ENDBRANCH   4  15
TORSDOF 8
