REMARK  Name = ZINCpe00000VVH0x.0
REMARK                            x       y       z     vdW  Elec       q    Type
REMARK                         _______ _______ _______ _____ _____    ______ ____
ROOT
ATOM      1  C   LIG    1       -0.750  -0.866  -0.661  0.00  0.00    +0.220 C 
ATOM      2  C   LIG    1       -0.401  -2.352  -0.557  0.00  0.00    +0.240 C 
ATOM      3  O   LIG    1        0.915  -2.551  -1.088  0.00  0.00    -0.360 OA
ATOM      4  C   LIG    1        1.938  -1.965  -0.279  0.00  0.00    +0.280 C 
ATOM      5  C   LIG    1        1.581  -0.539   0.037  0.00  0.00    +0.490 C 
ATOM      6  O   LIG    1        2.446   0.202   0.453  0.00  0.00    -0.520 OA
ATOM      7  N   LIG    1        0.342  -0.059  -0.122  0.00  0.00    -0.590 N 
ENDROOT
BRANCH   1   9
ATOM      8  N   LIG    1       -2.003  -0.700   1.466  0.00  0.00    -0.580 N 
ATOM      9  C   LIG    1       -2.009  -0.593   0.123  0.00  0.00    +0.510 C 
ATOM     10  O   LIG    1       -3.026  -0.276  -0.456  0.00  0.00    -0.530 OA
ATOM     11  C   LIG    1       -0.793  -1.150   2.160  0.00  0.00    +0.280 C 
BRANCH   8  12
ATOM     12  C   LIG    1       -3.206  -0.367   2.233  0.00  0.00    +0.400 C 
BRANCH  12  18
ATOM     13  C   LIG    1       -5.312  -1.756   0.434  0.00  0.00    +0.330 C 
ATOM     14  N   LIG    1       -4.879  -2.221   1.754  0.00  0.00    -0.450 N 
ATOM     15  C   LIG    1       -5.325  -3.338   2.409  0.00  0.00    +0.130 A 
ATOM     16  C   LIG    1       -4.674  -3.386   3.586  0.00  0.00    +0.140 A 
ATOM     17  N   LIG    1       -3.849  -2.330   3.647  0.00  0.00    -0.480 NA
ATOM     18  C   LIG    1       -3.964  -1.630   2.552  0.00  0.00    +0.180 A 
ENDBRANCH  12  18
ENDBRANCH   8  12
ENDBRANCH   1   9
BRANCH   7  19
ATOM     19  C   LIG    1        0.071   1.331   0.254  0.00  0.00    +0.340 C 
BRANCH  19  20
ATOM     20  C   LIG    1       -0.092   1.425   1.749  0.00  0.00    -0.120 A 
ATOM     21  C   LIG    1       -1.356   1.472   2.305  0.00  0.00    +0.020 A 
ATOM     22  C   LIG    1       -1.505   1.554   3.677  0.00  0.00    -0.010 A 
ATOM     23  C   LIG    1       -0.390   1.597   4.492  0.00  0.00    +0.020 A 
ATOM     24  C   LIG    1        0.875   1.555   3.935  0.00  0.00    -0.010 A 
ATOM     25  C   LIG    1        1.024   1.469   2.564  0.00  0.00    +0.040 A 
ENDBRANCH  19  20
ENDBRANCH   7  19
TORSDOF 5
