REMARK  Name = ZINCrD000000fYgP.0
REMARK                            x       y       z     vdW  Elec       q    Type
REMARK                         _______ _______ _______ _____ _____    ______ ____
ROOT
ATOM      1  N   LIG    1        0.211   3.087   5.759  0.00  0.00    -0.730 N 
ATOM      2  H   LIG    1       -0.755   3.168   5.772  0.00  0.00    +0.410 HD
ENDROOT
BRANCH   1   6
ATOM      3  C   LIG    1        2.427   4.095   9.135  0.00  0.00    -0.200 A 
ATOM      4  C   LIG    1        1.034   4.212   9.151  0.00  0.00    +0.130 A 
ATOM      5  C   LIG    1        0.304   3.878   8.033  0.00  0.00    -0.070 A 
ATOM      6  C   LIG    1        0.952   3.424   6.887  0.00  0.00    +0.250 A 
ATOM      7  C   LIG    1        2.338   3.301   6.870  0.00  0.00    -0.080 A 
ATOM      8  C   LIG    1        3.074   3.640   7.982  0.00  0.00    +0.090 A 
BRANCH   3  11
ATOM      9  N   LIG    1        4.555   4.339  10.315  0.00  0.00    -0.720 N 
ATOM     10  H   LIG    1        5.005   4.023   9.516  0.00  0.00    +0.400 HD
ATOM     11  C   LIG    1        3.212   4.452  10.332  0.00  0.00    +0.570 C 
ATOM     12  O   LIG    1        2.648   4.847  11.333  0.00  0.00    -0.540 OA
BRANCH   9  14
ATOM     13  C   LIG    1        4.905   3.811  12.677  0.00  0.00    +0.030 C 
ATOM     14  C   LIG    1        5.335   4.693  11.503  0.00  0.00    +0.170 C 
ATOM     15  C   LIG    1        5.092   6.163  11.854  0.00  0.00    +0.030 C 
ATOM     16  C   LIG    1        6.823   4.476  11.220  0.00  0.00    +0.030 C 
ENDBRANCH   9  14
ENDBRANCH   3  11
ENDBRANCH   1   6
BRANCH   1  17
ATOM     17  C   LIG    1        0.891   2.609   4.553  0.00  0.00    +0.300 C 
BRANCH  17  18
ATOM     18  C   LIG    1       -0.130   2.315   3.484  0.00  0.00    +0.510 C 
ATOM     19  N   LIG    1        0.268   1.861   2.279  0.00  0.00    -0.720 N 
ATOM     20  H   LIG    1        1.211   1.723   2.100  0.00  0.00    +0.410 HD
ATOM     21  O   LIG    1       -1.309   2.488   3.708  0.00  0.00    -0.520 OA
BRANCH  19  22
ATOM     22  C   LIG    1       -0.725   1.575   1.240  0.00  0.00    +0.290 C 
ATOM     23  C   LIG    1       -0.013   1.086   0.008  0.00  0.00    +0.070 C 
ATOM     24  C   LIG    1       -0.766   1.601  -1.235  0.00  0.00    +0.020 C 
ATOM     25  C   LIG    1       -1.940   0.798  -1.544  0.00  0.00    +0.010 C 
ATOM     26  C   LIG    1       -2.985   0.823  -0.409  0.00  0.00    +0.000 C 
ATOM     27  C   LIG    1       -2.550  -0.140   0.662  0.00  0.00    +0.020 C 
ATOM     28  C   LIG    1       -1.741   0.547   1.779  0.00  0.00    +0.050 C 
BRANCH  22  29
ATOM     29  C   LIG    1       -1.441   2.819   0.914  0.00  0.00    +0.210 C 
ATOM     30  N   LIG    1       -1.993   3.779   0.662  0.00  0.00    -0.420 NA
ENDBRANCH  22  29
ENDBRANCH  19  22
ENDBRANCH  17  18
ENDBRANCH   1  17
TORSDOF 7
