REMARK  Name = ZINCvU0000000BiI.0
REMARK                            x       y       z     vdW  Elec       q    Type
REMARK                         _______ _______ _______ _____ _____    ______ ____
ROOT
ATOM      1  N   LIG    1       -0.241   1.306  -2.410  0.00  0.00    -0.450 N 
ATOM      2  C   LIG    1        0.728   1.933  -3.139  0.00  0.00    +0.140 A 
ATOM      3  N   LIG    1        1.137   1.084  -4.055  0.00  0.00    -0.290 NA
ATOM      4  N   LIG    1        0.488  -0.020  -3.955  0.00  0.00    -0.260 NA
ATOM      5  C   LIG    1       -0.372   0.054  -2.965  0.00  0.00    +0.230 A 
ENDROOT
BRANCH   5   6
ATOM      6  C   LIG    1       -1.303  -1.008  -2.530  0.00  0.00    -0.020 A 
ATOM      7  C   LIG    1       -1.589  -2.080  -3.376  0.00  0.00    +0.060 A 
ATOM      8  C   LIG    1       -2.459  -3.068  -2.963  0.00  0.00    +0.020 A 
ATOM      9  C   LIG    1       -3.048  -2.998  -1.713  0.00  0.00    +0.030 A 
ATOM     10  C   LIG    1       -2.768  -1.938  -0.869  0.00  0.00    -0.080 A 
ATOM     11  C   LIG    1       -3.414  -1.870   0.491  0.00  0.00    +0.090 C 
ATOM     12  C   LIG    1       -1.897  -0.946  -1.268  0.00  0.00    +0.010 A 
ENDBRANCH   5   6
BRANCH   1  13
ATOM     13  C   LIG    1       -0.991   1.854  -1.277  0.00  0.00    +0.320 C 
BRANCH  13  14
ATOM     14  C   LIG    1       -0.213   1.606   0.017  0.00  0.00    +0.170 C 
BRANCH  14  16
ATOM     15  C   LIG    1       -0.301   1.962   2.386  0.00  0.00    +0.220 C 
ATOM     16  O   LIG    1       -0.944   2.141   1.123  0.00  0.00    -0.380 OA
ENDBRANCH  14  16
ENDBRANCH  13  14
ENDBRANCH   1  13
BRANCH   2  17
ATOM     17  S   LIG    1        1.323   3.574  -2.893  0.00  0.00    +0.090 S 
BRANCH  17  18
ATOM     18  C   LIG    1        2.558   3.661  -4.214  0.00  0.00    +0.110 C 
BRANCH  18  19
ATOM     19  C   LIG    1        3.216   5.016  -4.197  0.00  0.00    +0.540 C 
ATOM     20  N   LIG    1        4.175   5.311  -5.097  0.00  0.00    -0.720 N 
ATOM     21  H   LIG    1        4.441   4.650  -5.756  0.00  0.00    +0.400 HD
ATOM     22  O   LIG    1        2.884   5.842  -3.373  0.00  0.00    -0.520 OA
BRANCH  20  23
ATOM     23  C   LIG    1        4.816   6.628  -5.081  0.00  0.00    +0.290 C 
ATOM     24  C   LIG    1        6.024   6.596  -4.142  0.00  0.00    +0.040 C 
BRANCH  23  25
ATOM     25  C   LIG    1        5.270   6.983  -6.473  0.00  0.00    -0.080 A 
ATOM     26  C   LIG    1        5.574   5.983  -7.376  0.00  0.00    +0.050 A 
ATOM     27  C   LIG    1        5.991   6.308  -8.654  0.00  0.00    +0.040 A 
ATOM     28  C   LIG    1        6.104   7.635  -9.028  0.00  0.00    -0.020 A 
ATOM     29  C   LIG    1        5.799   8.637  -8.124  0.00  0.00    +0.050 A 
ATOM     30 CL   LIG    1        6.628   8.043 -10.633  0.00  0.00    -0.050 Cl
ATOM     31  C   LIG    1        5.378   8.311  -6.848  0.00  0.00    -0.020 A 
ATOM     32 CL   LIG    1        4.988   9.568  -5.715  0.00  0.00    -0.040 Cl
ENDBRANCH  23  25
ENDBRANCH  20  23
ENDBRANCH  18  19
ENDBRANCH  17  18
ENDBRANCH   2  17
TORSDOF 9
