REMARK  Name = ZINCqH0000001Msb.0
REMARK                            x       y       z     vdW  Elec       q    Type
REMARK                         _______ _______ _______ _____ _____    ______ ____
ROOT
ATOM      1  N   LIG    1       -1.970  -1.231   5.351  0.00  0.00    -0.690 N 
ATOM      2  H   LIG    1       -2.501  -0.916   4.603  0.00  0.00    +0.410 HD
ENDROOT
BRANCH   1   6
ATOM      3  C   LIG    1       -0.176   1.441   2.604  0.00  0.00    -0.090 A 
ATOM      4  C   LIG    1       -0.790   0.581   3.466  0.00  0.00    +0.050 A 
ATOM      5  C   LIG    1       -0.083   0.087   4.568  0.00  0.00    -0.190 A 
ATOM      6  C   LIG    1       -0.666  -0.807   5.498  0.00  0.00    +0.470 A 
ATOM      7  N   LIG    1        0.076  -1.226   6.514  0.00  0.00    -0.600 NA
ATOM      8  C   LIG    1        1.329  -0.827   6.666  0.00  0.00    +0.540 A 
ATOM      9  N   LIG    1        1.920  -0.001   5.836  0.00  0.00    -0.550 NA
ATOM     10  C   LIG    1        1.261   0.484   4.774  0.00  0.00    +0.190 A 
ATOM     11  C   LIG    1        1.861   1.368   3.868  0.00  0.00    +0.030 A 
ATOM     12  C   LIG    1        1.147   1.828   2.802  0.00  0.00    +0.060 A 
BRANCH   3  14
ATOM     13  C   LIG    1       -0.222   1.563   0.128  0.00  0.00    +0.030 C 
ATOM     14  C   LIG    1       -0.937   1.973   1.417  0.00  0.00    +0.020 C 
ATOM     15  C   LIG    1       -1.006   3.499   1.498  0.00  0.00    +0.030 C 
ENDBRANCH   3  14
ENDBRANCH   1   6
BRANCH   1  16
ATOM     16  C   LIG    1       -2.554  -2.156   6.325  0.00  0.00    +0.330 C 
BRANCH  16  17
ATOM     17  C   LIG    1       -3.978  -2.459   5.939  0.00  0.00    -0.120 A 
ATOM     18  C   LIG    1       -5.007  -1.673   6.424  0.00  0.00    +0.060 A 
ATOM     19  C   LIG    1       -6.313  -1.944   6.068  0.00  0.00    +0.010 A 
ATOM     20  C   LIG    1       -6.594  -3.016   5.230  0.00  0.00    +0.150 A 
ATOM     21  C   LIG    1       -5.559  -3.808   4.749  0.00  0.00    +0.000 A 
ATOM     22  C   LIG    1       -4.255  -3.527   5.105  0.00  0.00    +0.050 A 
BRANCH  20  23
ATOM     23  N   LIG    1       -7.915  -3.297   4.873  0.00  0.00    -1.060 N 
ATOM     24  H   LIG    1       -8.138  -3.483   3.947  0.00  0.00    +0.430 HD
BRANCH  23  25
ATOM     25  S   LIG    1       -9.100  -3.314   6.029  0.00  0.00    +2.610 S 
ATOM     26  O   LIG    1      -10.274  -3.692   5.323  0.00  0.00    -0.950 OA
ATOM     27  O   LIG    1       -8.999  -2.041   6.653  0.00  0.00    -0.950 OA
ATOM     28  C   LIG    1       -8.596  -4.627   7.175  0.00  0.00    -0.280 C 
ENDBRANCH  23  25
ENDBRANCH  20  23
ENDBRANCH  16  17
ENDBRANCH   1  16
TORSDOF 6
