REMARK  Name = ZINCrg000000o08p.0
REMARK                            x       y       z     vdW  Elec       q    Type
REMARK                         _______ _______ _______ _____ _____    ______ ____
ROOT
ATOM      1  C   LIG    1       -0.610  -1.552  -1.903  0.00  0.00    -0.270 C 
ATOM      2  C   LIG    1       -0.300  -1.013  -0.704  0.00  0.00    +0.220 C 
ATOM      3  N   LIG    1       -1.140  -1.141   0.365  0.00  0.00    -0.640 N 
ATOM      4  H   LIG    1       -0.878  -0.734   1.205  0.00  0.00    +0.430 HD
ATOM      5  C   LIG    1       -2.307  -1.796   0.317  0.00  0.00    +0.710 C 
ATOM      6  N   LIG    1       -2.751  -2.391  -0.808  0.00  0.00    -0.720 N 
ATOM      7  H   LIG    1       -3.599  -2.861  -0.820  0.00  0.00    +0.430 HD
ATOM      8  O   LIG    1       -2.989  -1.856   1.322  0.00  0.00    -0.560 OA
ATOM      9  C   LIG    1       -1.916  -2.312  -2.018  0.00  0.00    +0.280 C 
ATOM     10  C   LIG    1       -2.745  -1.649  -3.120  0.00  0.00    +0.030 C 
ENDROOT
BRANCH   1  11
ATOM     11  C   LIG    1        0.258  -1.415  -3.012  0.00  0.00    +0.540 C 
ATOM     12  O   LIG    1        0.048  -0.554  -3.845  0.00  0.00    -0.490 OA
BRANCH  11  13
ATOM     13  O   LIG    1        1.317  -2.241  -3.146  0.00  0.00    -0.350 OA
BRANCH  13  15
ATOM     14  C   LIG    1        3.290  -3.067  -4.270  0.00  0.00    +0.070 C 
ATOM     15  C   LIG    1        2.150  -2.046  -4.290  0.00  0.00    +0.200 C 
ENDBRANCH  13  15
ENDBRANCH  11  13
ENDBRANCH   1  11
BRANCH   2  16
ATOM     16  C   LIG    1        0.992  -0.254  -0.544  0.00  0.00    +0.260 C 
BRANCH  16  17
ATOM     17  N   LIG    1        0.699   1.147  -0.213  0.00  0.00    -0.530 NA
ATOM     18  C   LIG    1        0.024   1.822  -1.330  0.00  0.00    +0.180 C 
ATOM     19  C   LIG    1       -0.424   3.217  -0.884  0.00  0.00    +0.290 C 
ATOM     20  N   LIG    1        0.740   3.931  -0.339  0.00  0.00    -0.620 N 
ATOM     21  C   LIG    1        1.549   3.259   0.690  0.00  0.00    +0.300 C 
ATOM     22  C   LIG    1        1.059   5.167  -0.770  0.00  0.00    +0.600 C 
ATOM     23  O   LIG    1        2.160   5.628  -0.537  0.00  0.00    -0.520 OA
ATOM     24  C   LIG    1        1.920   1.862   0.181  0.00  0.00    +0.190 C 
BRANCH  22  25
ATOM     25  C   LIG    1        0.078   5.956  -1.522  0.00  0.00    -0.280 A 
ATOM     26  C   LIG    1        0.326   7.151  -2.137  0.00  0.00    +0.100 A 
ATOM     27  C   LIG    1       -0.775   7.674  -2.771  0.00  0.00    -0.010 A 
ATOM     28  C   LIG    1       -1.888   6.936  -2.680  0.00  0.00    -0.070 A 
ATOM     29  S   LIG    1       -1.603   5.513  -1.782  0.00  0.00    +0.220 S 
ENDBRANCH  22  25
ENDBRANCH  16  17
ENDBRANCH   2  16
TORSDOF 6
