REMARK  Name = ZINCrH000004pm4W.0
REMARK                            x       y       z     vdW  Elec       q    Type
REMARK                         _______ _______ _______ _____ _____    ______ ____
ROOT
ATOM      1  N   LIG    1        1.143   1.901   0.001  0.00  0.00    -0.740 N 
ATOM      2  H   LIG    1        1.130   2.871   0.007  0.00  0.00    +0.400 HD
ATOM      3  C   LIG    1       -0.014   1.212   0.009  0.00  0.00    +0.710 C 
ATOM      4  N   LIG    1       -1.191   1.870   0.018  0.00  0.00    -0.740 N 
ATOM      5  H   LIG    1       -1.204   2.840   0.023  0.00  0.00    +0.400 HD
ATOM      6  O   LIG    1        0.002  -0.004   0.002  0.00  0.00    -0.590 OA
ENDROOT
BRANCH   1   8
ATOM      7  C   LIG    1        2.792   0.835  -1.457  0.00  0.00    +0.040 C 
ATOM      8  C   LIG    1        2.422   1.186  -0.015  0.00  0.00    +0.300 C 
BRANCH   8   9
ATOM      9  C   LIG    1        3.495   2.062   0.580  0.00  0.00    -0.090 A 
ATOM     10  C   LIG    1        3.524   3.413   0.290  0.00  0.00    +0.030 A 
ATOM     11  C   LIG    1        4.505   4.217   0.839  0.00  0.00    +0.030 A 
ATOM     12  C   LIG    1        5.463   3.668   1.671  0.00  0.00    -0.030 A 
ATOM     13  C   LIG    1        5.437   2.314   1.958  0.00  0.00    +0.040 A 
ATOM     14 CL   LIG    1        6.699   4.676   2.357  0.00  0.00    -0.070 Cl
ATOM     15  C   LIG    1        4.453   1.512   1.412  0.00  0.00    +0.050 A 
ENDBRANCH   8   9
ENDBRANCH   1   8
BRANCH   4  16
ATOM     16  C   LIG    1       -2.449   1.120   0.020  0.00  0.00    +0.340 C 
BRANCH  16  17
ATOM     17  C   LIG    1       -3.608   2.084   0.030  0.00  0.00    -0.110 A 
ATOM     18  C   LIG    1       -4.137   2.515   1.232  0.00  0.00    +0.030 A 
ATOM     19  C   LIG    1       -5.197   3.403   1.242  0.00  0.00    +0.030 A 
ATOM     20  C   LIG    1       -5.734   3.851   0.050  0.00  0.00    -0.070 A 
ATOM     21  C   LIG    1       -5.208   3.416  -1.152  0.00  0.00    +0.000 A 
ATOM     22  C   LIG    1       -4.145   2.532  -1.162  0.00  0.00    +0.020 A 
BRANCH  20  23
ATOM     23  C   LIG    1       -6.893   4.814   0.061  0.00  0.00    +0.230 C 
BRANCH  23  24
ATOM     24  N   LIG    1       -8.155   4.062   0.063  0.00  0.00    -0.530 NA
ATOM     25  C   LIG    1       -8.331   3.327  -1.198  0.00  0.00    +0.140 C 
ATOM     26  C   LIG    1       -9.626   2.512  -1.130  0.00  0.00    +0.220 C 
ATOM     27  O   LIG    1      -10.722   3.389  -0.857  0.00  0.00    -0.390 OA
ATOM     28  C   LIG    1      -10.583   4.121   0.364  0.00  0.00    +0.220 C 
ATOM     29  C   LIG    1       -9.298   4.952   0.311  0.00  0.00    +0.150 C 
ENDBRANCH  23  24
ENDBRANCH  20  23
ENDBRANCH  16  17
ENDBRANCH   4  16
TORSDOF 6
