REMARK  Name = ZINCvU0000000CMZ.0
REMARK                            x       y       z     vdW  Elec       q    Type
REMARK                         _______ _______ _______ _____ _____    ______ ____
ROOT
ATOM      1  C   LIG    1        2.477   1.074  -0.015  0.00  0.00    +0.560 C 
ATOM      2  N   LIG    1        3.634   1.766  -0.022  0.00  0.00    -0.720 N 
ATOM      3  H   LIG    1        3.619   2.736  -0.018  0.00  0.00    +0.400 HD
ATOM      4  O   LIG    1        2.496  -0.142  -0.021  0.00  0.00    -0.520 OA
ENDROOT
BRANCH   1   8
ATOM      5  C   LIG    1       -1.234   3.139   0.029  0.00  0.00    +0.150 A 
ATOM      6  C   LIG    1       -1.214   1.749   0.017  0.00  0.00    +0.020 A 
ATOM      7  C   LIG    1       -0.013   1.076   0.008  0.00  0.00    +0.110 A 
ATOM      8  C   LIG    1        1.187   1.792   0.000  0.00  0.00    -0.130 A 
ATOM      9  C   LIG    1        1.164   3.189   0.008  0.00  0.00    +0.060 A 
ATOM     10  C   LIG    1       -0.042   3.855   0.022  0.00  0.00    +0.020 A 
BRANCH   5  17
ATOM     11  C   LIG    1       -2.199   4.891   2.354  0.00  0.00    +0.130 C 
ATOM     12  C   LIG    1       -2.917   4.607   1.060  0.00  0.00    +0.020 A 
ATOM     13  C   LIG    1       -4.124   5.089   0.704  0.00  0.00    -0.050 A 
ATOM     14  C   LIG    1       -4.426   4.575  -0.574  0.00  0.00    -0.050 A 
ATOM     15  C   LIG    1       -3.389   3.802  -0.954  0.00  0.00    +0.020 A 
ATOM     16  C   LIG    1       -3.278   3.049  -2.255  0.00  0.00    +0.120 C 
ATOM     17  N   LIG    1       -2.455   3.819   0.044  0.00  0.00    -0.410 N 
ENDBRANCH   5  17
ENDBRANCH   1   8
BRANCH   2  18
ATOM     18  C   LIG    1        4.914   1.053  -0.037  0.00  0.00    +0.290 C 
BRANCH  18  19
ATOM     19  C   LIG    1        5.984   1.931   0.558  0.00  0.00    -0.080 A 
ATOM     20  C   LIG    1        6.009   3.282   0.265  0.00  0.00    +0.020 A 
ATOM     21  C   LIG    1        6.986   4.095   0.812  0.00  0.00    +0.030 A 
ATOM     22  C   LIG    1        7.946   3.549   1.646  0.00  0.00    +0.070 A 
ATOM     23  O   LIG    1        8.918   4.338   2.188  0.00  0.00    -0.320 OA
ATOM     24  C   LIG    1        8.848   4.532   3.602  0.00  0.00    +0.230 C 
ATOM     25  C   LIG    1        9.526   3.387   4.338  0.00  0.00    -0.010 C 
ATOM     26  C   LIG    1        8.811   2.061   4.127  0.00  0.00    +0.230 C 
ATOM     27  O   LIG    1        8.877   1.662   2.757  0.00  0.00    -0.320 OA
ATOM     28  C   LIG    1        7.925   2.191   1.935  0.00  0.00    +0.070 A 
ATOM     29  C   LIG    1        6.943   1.381   1.391  0.00  0.00    +0.040 A 
ENDBRANCH  18  19
BRANCH  18  30
ATOM     30  C   LIG    1        5.285   0.702  -1.479  0.00  0.00    -0.030 C 
ATOM     31  C   LIG    1        4.198  -0.189  -2.083  0.00  0.00    +0.030 C 
ATOM     32  C   LIG    1        6.622  -0.042  -1.495  0.00  0.00    +0.030 C 
ENDBRANCH  18  30
ENDBRANCH   2  18
TORSDOF 5
