REMARK  Name = ZINCpk00001AZj8X.0
REMARK                            x       y       z     vdW  Elec       q    Type
REMARK                         _______ _______ _______ _____ _____    ______ ____
ROOT
ATOM      1  C   LIG    1       -2.946   4.219  -1.372  0.00  0.00    +0.510 C 
ATOM      2  N   LIG    1       -4.098   4.881  -1.599  0.00  0.00    -0.610 N 
ATOM      3  C   LIG    1       -4.986   5.246  -0.487  0.00  0.00    +0.270 C 
ATOM      4  C   LIG    1       -6.387   4.707  -0.767  0.00  0.00    +0.010 C 
ATOM      5  C   LIG    1       -6.865   5.220  -2.129  0.00  0.00    +0.040 C 
ATOM      6  C   LIG    1       -5.914   4.747  -3.218  0.00  0.00    -0.090 C 
ATOM      7  C   LIG    1       -6.408   5.192  -4.604  0.00  0.00    +0.280 C 
ATOM      8  N   LIG    1       -7.202   4.066  -5.114  0.00  0.00    -0.730 N 
ATOM      9  H   LIG    1       -7.825   4.126  -5.855  0.00  0.00    +0.410 HD
ATOM     10  C   LIG    1       -6.952   2.940  -4.422  0.00  0.00    +0.520 C 
ATOM     11  O   LIG    1       -7.467   1.863  -4.638  0.00  0.00    -0.530 OA
ATOM     12  C   LIG    1       -5.936   3.213  -3.333  0.00  0.00    +0.060 C 
ATOM     13  C   LIG    1       -4.497   5.246  -2.967  0.00  0.00    +0.310 C 
ATOM     14  O   LIG    1       -2.225   3.920  -2.300  0.00  0.00    -0.520 OA
ENDROOT
BRANCH   1  15
ATOM     15  C   LIG    1       -2.553   3.853   0.036  0.00  0.00    +0.110 C 
BRANCH  15  21
ATOM     16  C   LIG    1       -0.044   3.843   0.013  0.00  0.00    +0.160 A 
ATOM     17  C   LIG    1        1.170   3.168  -0.005  0.00  0.00    +0.020 A 
ATOM     18  C   LIG    1        1.191   1.787  -0.021  0.00  0.00    +0.030 A 
ATOM     19  C   LIG    1        0.005   1.076  -0.018  0.00  0.00    -0.010 A 
ATOM     20  C   LIG    1       -1.206   1.745  -0.005  0.00  0.00    +0.030 A 
ATOM     21  C   LIG    1       -1.234   3.125   0.016  0.00  0.00    -0.100 A 
BRANCH  16  23
ATOM     22  C   LIG    1        0.884   5.924   0.694  0.00  0.00    +0.540 C 
ATOM     23  N   LIG    1       -0.069   5.241   0.030  0.00  0.00    -0.670 N 
ATOM     24  H   LIG    1       -0.772   5.719  -0.437  0.00  0.00    +0.410 HD
ATOM     25  O   LIG    1        1.811   5.329   1.210  0.00  0.00    -0.520 OA
BRANCH  22  27
ATOM     26  C   LIG    1        1.744   8.063   1.451  0.00  0.00    +0.160 C 
ATOM     27  C   LIG    1        0.803   7.389   0.795  0.00  0.00    -0.090 C 
ENDBRANCH  22  27
ENDBRANCH  16  23
ENDBRANCH  15  21
ENDBRANCH   1  15
TORSDOF 4
