REMARK  Name = ZINCrD00000F5Lm3.0
REMARK                            x       y       z     vdW  Elec       q    Type
REMARK                         _______ _______ _______ _____ _____    ______ ____
ROOT
ATOM      1  N   LIG    1        1.361   6.428  -0.702  0.00  0.00    -0.980 NA
ENDROOT
BRANCH   1   2
ATOM      2  S   LIG    1        0.634   7.914  -0.630  0.00  0.00    +2.670 S 
ATOM      3  O   LIG    1       -0.260   7.871   0.474  0.00  0.00    -0.950 OA
ATOM      4  O   LIG    1        0.220   8.223  -1.954  0.00  0.00    -0.940 OA
BRANCH   2   6
ATOM      5  C   LIG    1        1.759   9.820   0.864  0.00  0.00    +0.230 C 
ATOM      6  C   LIG    1        1.882   9.086  -0.214  0.00  0.00    -0.580 C 
ENDBRANCH   2   6
ENDBRANCH   1   2
BRANCH   1   7
ATOM      7  C   LIG    1        2.067   6.016  -1.918  0.00  0.00    +0.260 C 
ATOM      8  C   LIG    1        3.507   5.636  -1.568  0.00  0.00    +0.040 C 
BRANCH   7   9
ATOM      9  C   LIG    1        1.356   4.810  -2.536  0.00  0.00    +0.080 C 
BRANCH   9  10
ATOM     10  C   LIG    1       -0.024   5.215  -2.985  0.00  0.00    -0.050 A 
ATOM     11  C   LIG    1       -1.085   5.145  -2.099  0.00  0.00    +0.000 A 
ATOM     12  C   LIG    1       -2.350   5.519  -2.502  0.00  0.00    +0.060 A 
ATOM     13  C   LIG    1       -2.561   5.960  -3.810  0.00  0.00    -0.030 A 
ATOM     14  C   LIG    1       -1.487   6.023  -4.700  0.00  0.00    +0.070 A 
ATOM     15  C   LIG    1       -0.226   5.651  -4.282  0.00  0.00    +0.020 A 
BRANCH  13  16
ATOM     16  C   LIG    1       -3.872   6.344  -4.237  0.00  0.00    +0.250 C 
ATOM     17  N   LIG    1       -4.913   6.648  -4.576  0.00  0.00    -0.420 NA
ENDBRANCH  13  16
ENDBRANCH   9  10
ENDBRANCH   7   9
ENDBRANCH   1   7
BRANCH   1  18
ATOM     18  C   LIG    1        1.299   5.526   0.450  0.00  0.00    +0.390 C 
BRANCH  18  19
ATOM     19  C   LIG    1        2.498   5.756   1.333  0.00  0.00    +0.070 A 
ATOM     20  C   LIG    1        2.925   6.950   1.805  0.00  0.00    -0.140 A 
ATOM     21  C   LIG    1        4.065   6.724   2.583  0.00  0.00    +0.230 A 
ATOM     22  N   LIG    1        4.318   5.440   2.574  0.00  0.00    -0.280 NA
ATOM     23  N   LIG    1        3.339   4.807   1.796  0.00  0.00    -0.360 N 
BRANCH  23  24
ATOM     24  C   LIG    1        3.248   3.370   1.528  0.00  0.00    +0.310 C 
BRANCH  24  25
ATOM     25  C   LIG    1        4.383   2.953   0.591  0.00  0.00    -0.040 C 
ATOM     26  C   LIG    1        4.209   1.484   0.200  0.00  0.00    +0.030 C 
ATOM     27  C   LIG    1        5.726   3.135   1.302  0.00  0.00    +0.030 C 
ENDBRANCH  24  25
ENDBRANCH  23  24
ENDBRANCH  18  19
ENDBRANCH   1  18
TORSDOF 10
