REMARK  Name = ZINCtV000002xeRG.1
REMARK                            x       y       z     vdW  Elec       q    Type
REMARK                         _______ _______ _______ _____ _____    ______ ____
ROOT
ATOM      1  C   LIG    1        4.508   0.809  -0.037  0.00  0.00    -0.020 A 
ATOM      2  C   LIG    1        3.803  -0.352  -0.036  0.00  0.00    -0.050 A 
ATOM      3  C   LIG    1        2.391   0.031  -0.021  0.00  0.00    -0.130 A 
ATOM      4  C   LIG    1        1.190  -0.680  -0.013  0.00  0.00    +0.080 A 
ATOM      5  C   LIG    1        0.002  -0.004   0.002  0.00  0.00    +0.010 A 
ATOM      6  C   LIG    1       -0.017   1.384   0.010  0.00  0.00    +0.070 A 
ATOM      7  C   LIG    1        1.158   2.104   0.002  0.00  0.00    +0.030 A 
ATOM      8  C   LIG    1        2.378   1.439  -0.013  0.00  0.00    +0.080 A 
ATOM      9  O   LIG    1        3.658   1.858  -0.023  0.00  0.00    -0.180 OA
ENDROOT
BRANCH   1  12
ATOM     10  N   LIG    1        6.567   2.119  -0.050  0.00  0.00    -0.620 N 
ATOM     11  H   LIG    1        6.026   2.924  -0.040  0.00  0.00    +0.430 HD
ATOM     12  C   LIG    1        5.973   0.908  -0.051  0.00  0.00    +0.600 C 
ATOM     13  O   LIG    1        6.651  -0.102  -0.063  0.00  0.00    -0.430 OA
BRANCH  10  17
ATOM     14  C   LIG    1       10.371   2.736  -0.085  0.00  0.00    -0.020 A 
ATOM     15  N   LIG    1       10.022   1.483  -0.089  0.00  0.00    -0.240 NA
ATOM     16  N   LIG    1        8.789   1.217  -0.078  0.00  0.00    -0.250 NA
ATOM     17  C   LIG    1        7.955   2.212  -0.063  0.00  0.00    +0.250 A 
ATOM     18  S   LIG    1        8.896   3.705  -0.071  0.00  0.00    +0.130 S 
BRANCH  14  19
ATOM     19  S   LIG    1       12.020   3.355  -0.099  0.00  0.00    +0.020 S 
BRANCH  19  21
ATOM     20  C   LIG    1       14.507   2.216  -0.132  0.00  0.00    +0.080 C 
ATOM     21  C   LIG    1       13.023   1.843  -0.119  0.00  0.00    +0.090 C 
ENDBRANCH  19  21
ENDBRANCH  14  19
ENDBRANCH  10  17
ENDBRANCH   1  12
BRANCH   2  22
ATOM     22  C   LIG    1        4.362  -1.751  -0.049  0.00  0.00    +0.170 C 
BRANCH  22  23
ATOM     23  S   LIG    1        4.570  -2.304  -1.764  0.00  0.00    -0.220 S 
BRANCH  23  24
ATOM     24  C   LIG    1        5.240  -3.978  -1.575  0.00  0.00    +0.130 C 
BRANCH  24  25
ATOM     25  C   LIG    1        5.472  -4.583  -2.936  0.00  0.00    -0.080 A 
ATOM     26  C   LIG    1        4.468  -5.310  -3.549  0.00  0.00    +0.020 A 
ATOM     27  C   LIG    1        4.679  -5.861  -4.800  0.00  0.00    +0.000 A 
ATOM     28  C   LIG    1        5.897  -5.694  -5.432  0.00  0.00    +0.010 A 
ATOM     29  C   LIG    1        6.902  -4.972  -4.816  0.00  0.00    +0.000 A 
ATOM     30  C   LIG    1        6.690  -4.417  -3.568  0.00  0.00    +0.030 A 
ENDBRANCH  24  25
ENDBRANCH  23  24
ENDBRANCH  22  23
ENDBRANCH   2  22
TORSDOF 8
