REMARK  Name = ZINCrD0000071ohs.0
REMARK                            x       y       z     vdW  Elec       q    Type
REMARK                         _______ _______ _______ _____ _____    ______ ____
ROOT
ATOM      1  C   LIG    1        4.787   4.347   0.006  0.00  0.00    +0.190 C 
ENDROOT
BRANCH   1   2
ATOM      2  C   LIG    1        4.639   5.665   0.721  0.00  0.00    +0.530 C 
ATOM      3  N   LIG    1        5.720   6.265   1.259  0.00  0.00    -0.610 N 
ATOM      4  C   LIG    1        5.620   7.607   1.853  0.00  0.00    +0.310 C 
ATOM      5  C   LIG    1        5.905   7.498   3.354  0.00  0.00    +0.110 C 
ATOM      6  C   LIG    1        7.125   6.626   3.564  0.00  0.00    -0.170 A 
ATOM      7  C   LIG    1        7.633   5.773   2.655  0.00  0.00    -0.130 A 
ATOM      8  C   LIG    1        8.756   5.082   3.099  0.00  0.00    +0.020 A 
ATOM      9  C   LIG    1        9.157   5.369   4.333  0.00  0.00    -0.040 A 
ATOM     10  S   LIG    1        8.091   6.577   5.033  0.00  0.00    +0.110 S 
ATOM     11  C   LIG    1        7.027   5.593   1.272  0.00  0.00    +0.360 C 
ATOM     12  O   LIG    1        3.548   6.187   0.812  0.00  0.00    -0.510 OA
ENDBRANCH   1   2
BRANCH   1  14
ATOM     13  C   LIG    1        6.448   5.458  -1.493  0.00  0.00    +0.050 C 
ATOM     14  C   LIG    1        5.184   4.598  -1.450  0.00  0.00    -0.010 C 
ATOM     15  C   LIG    1        5.454   3.260  -2.143  0.00  0.00    +0.040 C 
ENDBRANCH   1  14
BRANCH   1  16
ATOM     16  O   LIG    1        3.525   3.630   0.047  0.00  0.00    -0.320 OA
BRANCH  16  17
ATOM     17  C   LIG    1        3.585   2.284   0.046  0.00  0.00    +0.520 C 
ATOM     18  O   LIG    1        4.663   1.724   0.012  0.00  0.00    -0.510 OA
BRANCH  17  19
ATOM     19  C   LIG    1        2.344   1.490   0.086  0.00  0.00    -0.170 A 
ATOM     20  C   LIG    1        2.421   0.110   0.084  0.00  0.00    +0.190 A 
ATOM     21  C   LIG    1        1.236  -0.646   0.123  0.00  0.00    -0.230 A 
ATOM     22  C   LIG    1        0.944  -2.001   0.133  0.00  0.00    +0.320 A 
ATOM     23  N   LIG    1       -0.387  -2.133   0.176  0.00  0.00    -0.420 N 
ATOM     24  H   LIG    1       -0.861  -2.979   0.192  0.00  0.00    +0.450 HD
ATOM     25  N   LIG    1       -0.993  -0.872   0.195  0.00  0.00    -0.300 NA
ATOM     26  C   LIG    1       -0.057   0.057   0.165  0.00  0.00    +0.130 A 
ATOM     27  C   LIG    1       -0.067   1.471   0.165  0.00  0.00    +0.030 A 
ATOM     28  C   LIG    1        1.099   2.153   0.127  0.00  0.00    +0.100 A 
ENDBRANCH  17  19
ENDBRANCH  16  17
ENDBRANCH   1  16
TORSDOF 5
