REMARK  Name = ZINC650000002ApA.0
REMARK                            x       y       z     vdW  Elec       q    Type
REMARK                         _______ _______ _______ _____ _____    ______ ____
ROOT
ATOM      1  C   LIG    1       -0.013   1.086   0.008  0.00  0.00    -0.170 C 
ATOM      2  S   LIG    1       -0.862   1.671   1.500  0.00  0.00    +1.280 S 
ATOM      3  O   LIG    1       -0.129   1.271   2.650  0.00  0.00    -0.830 OA
ENDROOT
BRANCH   2   4
ATOM      4  C   LIG    1       -0.786   3.475   1.332  0.00  0.00    -0.080 C 
BRANCH   4   5
ATOM      5  C   LIG    1       -1.445   4.104   2.488  0.00  0.00    +0.210 C 
ATOM      6  N   LIG    1       -1.954   4.589   3.381  0.00  0.00    -0.410 NA
ENDBRANCH   4   5
ENDBRANCH   2   4
TORSDOF 2
