REMARK  Name = ZINCrD000000gOp6.0
REMARK                            x       y       z     vdW  Elec       q    Type
REMARK                         _______ _______ _______ _____ _____    ______ ____
ROOT
ATOM      1  C   LIG    1       -1.248   1.475  -0.160  0.00  0.00    +0.520 C 
ATOM      2  N   LIG    1       -0.011   0.966   0.007  0.00  0.00    -0.680 N 
ATOM      3  H   LIG    1        0.109   0.009   0.111  0.00  0.00    +0.410 HD
ATOM      4  O   LIG    1       -1.391   2.658  -0.386  0.00  0.00    -0.520 OA
ENDROOT
BRANCH   2   5
ATOM      5  C   LIG    1        1.099   1.817   0.026  0.00  0.00    +0.160 A 
ATOM      6  C   LIG    1        2.318   1.382  -0.478  0.00  0.00    -0.020 A 
ATOM      7  C   LIG    1        3.411   2.226  -0.462  0.00  0.00    +0.060 A 
ATOM      8  C   LIG    1        3.296   3.499   0.065  0.00  0.00    -0.110 A 
ATOM      9  C   LIG    1        2.085   3.934   0.573  0.00  0.00    +0.050 A 
ATOM     10  C   LIG    1        0.987   3.096   0.555  0.00  0.00    +0.020 A 
BRANCH   8  11
ATOM     11  C   LIG    1        4.492   4.415   0.087  0.00  0.00    -0.280 C 
BRANCH  11  12
ATOM     12  S   LIG    1        5.404   4.183   1.638  0.00  0.00    +2.410 S 
ATOM     13  O   LIG    1        5.938   2.866   1.656  0.00  0.00    -0.930 OA
ATOM     14  O   LIG    1        4.582   4.613   2.715  0.00  0.00    -0.930 OA
ATOM     15  C   LIG    1        6.771   5.360   1.449  0.00  0.00    -0.270 C 
ENDBRANCH  11  12
ENDBRANCH   8  11
ENDBRANCH   2   5
BRANCH   1  16
ATOM     16  C   LIG    1       -2.453   0.575  -0.066  0.00  0.00    +0.080 C 
BRANCH  16  17
ATOM     17  C   LIG    1       -3.723   1.397  -0.293  0.00  0.00    +0.130 C 
BRANCH  17  22
ATOM     18  C   LIG    1       -6.038  -1.394  -0.914  0.00  0.00    +0.330 A 
ATOM     19  C   LIG    1       -7.095  -1.146  -0.048  0.00  0.00    -0.060 A 
ATOM     20  C   LIG    1       -7.049  -0.028   0.767  0.00  0.00    +0.100 A 
ATOM     21  C   LIG    1       -5.942   0.805   0.686  0.00  0.00    -0.070 A 
ATOM     22  C   LIG    1       -4.927   0.497  -0.199  0.00  0.00    +0.160 A 
ATOM     23  N   LIG    1       -5.002  -0.573  -0.967  0.00  0.00    -0.530 NA
BRANCH  18  24
ATOM     24  O   LIG    1       -6.072  -2.486  -1.718  0.00  0.00    -0.300 OA
BRANCH  24  26
ATOM     25  C   LIG    1       -3.680  -2.828  -1.754  0.00  0.00    +0.040 C 
ATOM     26  C   LIG    1       -4.955  -2.687  -2.587  0.00  0.00    +0.120 C 
ATOM     27  C   LIG    1       -4.819  -1.488  -3.528  0.00  0.00    +0.040 C 
ATOM     28  C   LIG    1       -5.171  -3.958  -3.410  0.00  0.00    +0.070 C 
ENDBRANCH  24  26
ENDBRANCH  18  24
ENDBRANCH  17  22
ENDBRANCH  16  17
ENDBRANCH   1  16
TORSDOF 8
