REMARK  Name = ZINCCC00000006jU.1
REMARK                            x       y       z     vdW  Elec       q    Type
REMARK                         _______ _______ _______ _____ _____    ______ ____
ROOT
ATOM      1  N   LIG    1        3.798   0.500  -5.562  0.00  0.00    -0.940 N 
ATOM      2  C   LIG    1        3.610   1.945  -5.355  0.00  0.00    +0.320 C 
ATOM      3  C   LIG    1        3.799   2.275  -3.898  0.00  0.00    +0.050 C 
ATOM      4  C   LIG    1        2.741   2.493  -3.150  0.00  0.00    -0.080 C 
ATOM      5  C   LIG    1        2.908   2.831  -1.688  0.00  0.00    +0.310 C 
ATOM      6  N   LIG    1        1.580   3.008  -1.083  0.00  0.00    -0.510 N 
ATOM      7  C   LIG    1        1.419   2.034  -0.001  0.00  0.00    +0.290 C 
ATOM      8  C   LIG    1       -0.018   1.500   0.010  0.00  0.00    +0.070 C 
ATOM      9  C   LIG    1        0.002  -0.004   0.002  0.00  0.00    +0.510 C 
ATOM     10  N   LIG    1       -0.695  -0.662  -0.957  0.00  0.00    -0.720 N 
ATOM     11  H   LIG    1       -1.240  -0.181  -1.599  0.00  0.00    +0.410 HD
ATOM     12  C   LIG    1       -0.584  -2.134  -0.999  0.00  0.00    +0.280 C 
ATOM     13  C   LIG    1       -1.508  -2.692  -2.079  0.00  0.00    +0.240 C 
ATOM     14  C   LIG    1       -2.279  -3.889  -1.528  0.00  0.00    +0.040 C 
ATOM     15  C   LIG    1       -2.660  -4.805  -2.691  0.00  0.00    +0.030 C 
ATOM     16  C   LIG    1       -1.412  -5.466  -3.276  0.00  0.00    +0.010 C 
ATOM     17  C   LIG    1       -0.241  -4.492  -3.321  0.00  0.00    +0.260 C 
ATOM     18  N   LIG    1       -0.687  -3.107  -3.234  0.00  0.00    -0.570 N 
ATOM     19  C   LIG    1       -0.374  -2.176  -4.128  0.00  0.00    +0.560 C 
ATOM     20  C   LIG    1        0.401  -2.346  -5.361  0.00  0.00    -0.130 A 
ATOM     21  C   LIG    1        1.353  -1.333  -5.616  0.00  0.00    +0.180 A 
ATOM     22  C   LIG    1        2.168  -1.402  -6.721  0.00  0.00    -0.670 A 
ATOM     23  C   LIG    1        2.071  -2.478  -7.588  0.00  0.00    +0.180 A 
ATOM     24  C   LIG    1        1.126  -3.456  -7.354  0.00  0.00    +0.040 A 
ATOM     25  C   LIG    1        0.264  -3.371  -6.273  0.00  0.00    +0.040 A 
ATOM     26 CL   LIG    1       -1.009  -4.542  -6.112  0.00  0.00    -0.030 Cl
ATOM     27  O   LIG    1       -0.784  -1.040  -3.896  0.00  0.00    -0.560 OA
ATOM     28  O   LIG    1        0.628  -0.618   0.841  0.00  0.00    -0.520 OA
ATOM     29  H   LIG    1        0.868   2.863  -1.782  0.00  0.00    +0.430 HD
ATOM     30  H   LIG    1        1.500   3.944  -0.712  0.00  0.00    +0.440 HD
ATOM     31  S   LIG    1        3.338  -0.124  -7.036  0.00  0.00    +2.680 S 
ATOM     32  O   LIG    1        2.633   0.910  -7.710  0.00  0.00    -0.940 OA
ATOM     33  O   LIG    1        4.489  -0.757  -7.581  0.00  0.00    -0.920 OA
ENDROOT
BRANCH   1  39
ATOM     34  C   LIG    1        5.716  -0.590  -4.569  0.00  0.00    +0.160 A 
ATOM     35  C   LIG    1        6.258  -1.397  -3.583  0.00  0.00    -0.060 A 
ATOM     36  C   LIG    1        5.443  -1.929  -2.600  0.00  0.00    +0.070 A 
ATOM     37  C   LIG    1        4.088  -1.658  -2.599  0.00  0.00    -0.020 A 
ATOM     38  C   LIG    1        3.541  -0.848  -3.576  0.00  0.00    +0.050 A 
ATOM     39  C   LIG    1        4.350  -0.315  -4.568  0.00  0.00    +0.090 A 
BRANCH  34  41
ATOM     40  C   LIG    1        7.907  -0.390  -5.475  0.00  0.00    +0.250 C 
ATOM     41  O   LIG    1        6.516  -0.066  -5.537  0.00  0.00    -0.300 OA
ENDBRANCH  34  41
ENDBRANCH   1  39
TORSDOF 2
