REMARK  Name = ZINCrH000004kSiq.0
REMARK                            x       y       z     vdW  Elec       q    Type
REMARK                         _______ _______ _______ _____ _____    ______ ____
ROOT
ATOM      1  C   LIG    1       -1.138   1.675   0.219  0.00  0.00    +0.510 C 
ATOM      2  N   LIG    1       -0.011   0.966   0.007  0.00  0.00    -0.670 N 
ATOM      3  H   LIG    1       -0.062   0.010  -0.152  0.00  0.00    +0.410 HD
ATOM      4  O   LIG    1       -1.084   2.882   0.325  0.00  0.00    -0.510 OA
ENDROOT
BRANCH   2   5
ATOM      5  C   LIG    1        1.233   1.611   0.011  0.00  0.00    +0.140 A 
ATOM      6  C   LIG    1        1.349   2.899  -0.492  0.00  0.00    +0.030 A 
ATOM      7  C   LIG    1        2.574   3.537  -0.483  0.00  0.00    +0.050 A 
ATOM      8  C   LIG    1        3.692   2.885   0.020  0.00  0.00    +0.070 A 
ATOM      9  C   LIG    1        3.577   1.593   0.519  0.00  0.00    -0.010 A 
ATOM     10  C   LIG    1        2.351   0.958   0.514  0.00  0.00    +0.000 A 
BRANCH   8  11
ATOM     11  N   LIG    1        4.934   3.528   0.024  0.00  0.00    -0.480 N 
ATOM     12  C   LIG    1        5.437   3.705   1.410  0.00  0.00    +0.180 C 
ATOM     13  C   LIG    1        6.959   3.916   1.211  0.00  0.00    +0.030 C 
ATOM     14  C   LIG    1        7.293   2.952   0.050  0.00  0.00    +0.020 C 
ATOM     15  C   LIG    1        5.954   2.716  -0.674  0.00  0.00    +0.170 C 
ENDBRANCH   8  11
ENDBRANCH   2   5
BRANCH   1  16
ATOM     16  C   LIG    1       -2.464   0.967   0.323  0.00  0.00    +0.310 C 
BRANCH  16  17
ATOM     17  N   LIG    1       -3.526   1.951   0.552  0.00  0.00    -0.730 N 
ATOM     18  H   LIG    1       -3.308   2.894   0.613  0.00  0.00    +0.420 HD
BRANCH  17  21
ATOM     19  C   LIG    1       -7.179   2.036   1.032  0.00  0.00    -0.070 A 
ATOM     20  C   LIG    1       -5.855   2.461   0.906  0.00  0.00    +0.030 A 
ATOM     21  C   LIG    1       -4.852   1.530   0.683  0.00  0.00    +0.210 A 
ATOM     22  C   LIG    1       -5.164   0.178   0.597  0.00  0.00    -0.010 A 
ATOM     23  C   LIG    1       -6.473  -0.244   0.727  0.00  0.00    +0.070 A 
ATOM     24  C   LIG    1       -7.482   0.674   0.944  0.00  0.00    -0.040 A 
ATOM     25 CL   LIG    1       -9.125   0.138   1.106  0.00  0.00    -0.040 Cl
BRANCH  19  26
ATOM     26  C   LIG    1       -8.254   3.021   1.264  0.00  0.00    +0.500 C 
ATOM     27  O   LIG    1       -9.405   2.649   1.379  0.00  0.00    -0.480 OA
BRANCH  26  29
ATOM     28  C   LIG    1       -9.066   5.244   1.578  0.00  0.00    +0.280 C 
ATOM     29  O   LIG    1       -7.959   4.333   1.349  0.00  0.00    -0.360 OA
ENDBRANCH  26  29
ENDBRANCH  19  26
ENDBRANCH  17  21
ENDBRANCH  16  17
ENDBRANCH   1  16
TORSDOF 7
