REMARK  Name = ZINCpk00000KfKPc.0
REMARK                            x       y       z     vdW  Elec       q    Type
REMARK                         _______ _______ _______ _____ _____    ______ ____
ROOT
ATOM      1  C   LIG    1       -0.083   2.213  -2.171  0.00  0.00    +0.530 C 
ATOM      2  N   LIG    1       -0.734   1.578  -1.176  0.00  0.00    -0.610 N 
ATOM      3  C   LIG    1       -2.188   1.357  -1.242  0.00  0.00    +0.260 C 
ATOM      4  C   LIG    1       -2.811   1.844   0.072  0.00  0.00    +0.190 C 
ATOM      5  O   LIG    1       -2.125   1.238   1.170  0.00  0.00    -0.360 OA
ATOM      6  C   LIG    1       -0.741   1.585   1.261  0.00  0.00    +0.200 C 
ATOM      7  C   LIG    1       -2.682   3.365   0.166  0.00  0.00    +0.010 C 
ATOM      8  C   LIG    1       -0.013   1.086   0.008  0.00  0.00    +0.270 C 
ATOM      9  O   LIG    1        1.115   2.386  -2.098  0.00  0.00    -0.530 OA
ENDROOT
BRANCH   1  12
ATOM     10  N   LIG    1       -0.440   2.964  -5.723  0.00  0.00    -0.620 N 
ATOM     11  C   LIG    1        0.112   3.332  -4.414  0.00  0.00    +0.300 C 
ATOM     12  C   LIG    1       -0.845   2.708  -3.374  0.00  0.00    +0.000 C 
ATOM     13  C   LIG    1       -1.451   1.529  -4.169  0.00  0.00    +0.070 C 
ATOM     14  C   LIG    1       -1.316   1.950  -5.616  0.00  0.00    +0.520 C 
ATOM     15  O   LIG    1       -1.912   1.446  -6.544  0.00  0.00    -0.510 OA
BRANCH  10  16
ATOM     16  C   LIG    1       -0.083   3.617  -6.985  0.00  0.00    +0.320 C 
BRANCH  16  17
ATOM     17  C   LIG    1        1.115   2.899  -7.610  0.00  0.00    +0.150 C 
BRANCH  17  19
ATOM     18  C   LIG    1        1.790   0.806  -8.563  0.00  0.00    +0.200 C 
ATOM     19  O   LIG    1        0.738   1.567  -7.968  0.00  0.00    -0.380 OA
ENDBRANCH  17  19
ENDBRANCH  16  17
ENDBRANCH  10  16
ENDBRANCH   1  12
BRANCH   6  20
ATOM     20  C   LIG    1       -0.138   0.942   2.483  0.00  0.00    -0.090 A 
ATOM     21  C   LIG    1       -0.499  -0.345   2.836  0.00  0.00    +0.040 A 
ATOM     22  C   LIG    1        0.058  -0.937   3.955  0.00  0.00    +0.000 A 
ATOM     23  C   LIG    1        0.968  -0.238   4.726  0.00  0.00    +0.010 A 
ATOM     24  C   LIG    1        1.324   1.051   4.377  0.00  0.00    +0.010 A 
ATOM     25  C   LIG    1        0.771   1.641   3.255  0.00  0.00    +0.010 A 
ENDBRANCH   6  20
TORSDOF 5
