REMARK  Name = ZINCrH000004t4z5.0
REMARK                            x       y       z     vdW  Elec       q    Type
REMARK                         _______ _______ _______ _____ _____    ______ ____
ROOT
ATOM      1  C   LIG    1        0.655  -5.864  -3.295  0.00  0.00    +0.310 C 
ATOM      2  C   LIG    1        0.346  -5.888  -4.807  0.00  0.00    +0.040 C 
ATOM      3  C   LIG    1       -0.310  -4.503  -5.049  0.00  0.00    +0.040 C 
ATOM      4  C   LIG    1        0.480  -3.606  -4.067  0.00  0.00    +0.240 C 
ATOM      5  N   LIG    1        0.716  -4.454  -2.884  0.00  0.00    -0.630 N 
ATOM      6  C   LIG    1        0.944  -4.010  -1.633  0.00  0.00    +0.730 C 
ATOM      7  N   LIG    1        0.975  -2.685  -1.383  0.00  0.00    -0.740 N 
ATOM      8  H   LIG    1        0.834  -2.052  -2.104  0.00  0.00    +0.390 HD
ATOM      9  O   LIG    1        1.121  -4.803  -0.729  0.00  0.00    -0.580 OA
ENDROOT
BRANCH   1  15
ATOM     10  C   LIG    1        1.097  -8.817  -2.459  0.00  0.00    +0.300 C 
ATOM     11  N   LIG    1        2.162  -7.832  -2.666  0.00  0.00    -0.440 N 
ATOM     12  C   LIG    1        3.498  -8.065  -2.522  0.00  0.00    +0.150 A 
ATOM     13  C   LIG    1        4.157  -6.920  -2.796  0.00  0.00    -0.070 A 
ATOM     14  C   LIG    1        3.192  -5.947  -3.126  0.00  0.00    -0.060 A 
ATOM     15  C   LIG    1        1.981  -6.532  -3.033  0.00  0.00    +0.010 A 
ENDBRANCH   1  15
BRANCH   7  16
ATOM     16  C   LIG    1        1.222  -2.202  -0.022  0.00  0.00    +0.360 C 
BRANCH  16  17
ATOM     17  C   LIG    1        1.207  -0.696  -0.013  0.00  0.00    -0.180 A 
ATOM     18  C   LIG    1        2.393   0.018  -0.021  0.00  0.00    +0.120 A 
ATOM     19  C   LIG    1        2.331   1.405  -0.013  0.00  0.00    -0.070 A 
ATOM     20  C   LIG    1        1.098   2.026   0.003  0.00  0.00    +0.310 A 
ATOM     21  N   LIG    1       -0.016   1.318   0.009  0.00  0.00    -0.540 NA
ATOM     22  C   LIG    1        0.002  -0.004   0.002  0.00  0.00    +0.340 A 
BRANCH  22  23
ATOM     23  O   LIG    1       -1.167  -0.692   0.010  0.00  0.00    -0.290 OA
BRANCH  23  24
ATOM     24  C   LIG    1       -2.372   0.077   0.026  0.00  0.00    +0.170 C 
ATOM     25  C   LIG    1       -2.842   0.293   1.480  0.00  0.00    +0.000 C 
ATOM     26  C   LIG    1       -4.386   0.208   1.396  0.00  0.00    +0.020 C 
ATOM     27  C   LIG    1       -4.611  -0.915   0.354  0.00  0.00    +0.020 C 
ATOM     28  C   LIG    1       -3.497  -0.692  -0.690  0.00  0.00    +0.040 C 
ENDBRANCH  23  24
ENDBRANCH  22  23
ENDBRANCH  16  17
ENDBRANCH   7  16
TORSDOF 5
