REMARK  Name = ZINCvU00000005LO.0
REMARK                            x       y       z     vdW  Elec       q    Type
REMARK                         _______ _______ _______ _____ _____    ______ ____
ROOT
ATOM      1  C   LIG    1       -1.219  -0.626  -0.348  0.00  0.00    -0.220 C 
ATOM      2  C   LIG    1        0.135  -0.379  -0.320  0.00  0.00    +0.220 C 
ENDROOT
BRANCH   2   3
ATOM      3  C   LIG    1        0.628   0.997  -0.202  0.00  0.00    -0.100 A 
ATOM      4  C   LIG    1       -0.092   2.054  -0.774  0.00  0.00    +0.110 A 
ATOM      5  C   LIG    1        0.376   3.345  -0.654  0.00  0.00    +0.050 A 
ATOM      6  C   LIG    1        1.559   3.598   0.019  0.00  0.00    +0.130 A 
ATOM      7  C   LIG    1        2.279   2.558   0.583  0.00  0.00    -0.040 A 
ATOM      8  C   LIG    1        1.824   1.262   0.478  0.00  0.00    +0.140 A 
BRANCH   7   9
ATOM      9  N   LIG    1        3.543   2.840   1.300  0.00  0.00    +0.030 N 
ATOM     10  O   LIG    1        3.947   3.986   1.394  0.00  0.00    -0.150 OA
ATOM     11  O   LIG    1        4.178   1.927   1.797  0.00  0.00    -0.150 OA
ENDBRANCH   7   9
ENDBRANCH   2   3
BRANCH   1  13
ATOM     12  O   LIG    1       -0.929  -2.908  -0.723  0.00  0.00    -0.500 OA
ATOM     13  C   LIG    1       -1.714  -1.985  -0.618  0.00  0.00    +0.580 C 
ATOM     14  N   LIG    1       -3.037  -2.207  -0.749  0.00  0.00    -0.660 N 
ATOM     15  H   LIG    1       -3.657  -1.460  -0.741  0.00  0.00    +0.420 HD
BRANCH  14  16
ATOM     16  C   LIG    1       -3.516  -3.513  -0.896  0.00  0.00    +0.160 A 
ATOM     17  C   LIG    1       -2.734  -4.589  -0.500  0.00  0.00    +0.030 A 
ATOM     18  C   LIG    1       -3.210  -5.878  -0.647  0.00  0.00    +0.050 A 
ATOM     19  C   LIG    1       -4.464  -6.096  -1.187  0.00  0.00    +0.020 A 
ATOM     20  C   LIG    1       -5.246  -5.027  -1.583  0.00  0.00    +0.050 A 
ATOM     21  C   LIG    1       -4.778  -3.735  -1.434  0.00  0.00    -0.070 A 
ATOM     22 CL   LIG    1       -5.763  -2.392  -1.925  0.00  0.00    -0.060 Cl
ENDBRANCH  14  16
ENDBRANCH   1  13
BRANCH   1  23
ATOM     23  C   LIG    1       -2.171   0.470  -0.108  0.00  0.00    +0.560 C 
ATOM     24  N   LIG    1       -2.312   0.981   1.131  0.00  0.00    -0.650 N 
ATOM     25  H   LIG    1       -1.735   0.678   1.849  0.00  0.00    +0.420 HD
ATOM     26  O   LIG    1       -2.831   0.914  -1.028  0.00  0.00    -0.500 OA
BRANCH  24  27
ATOM     27  C   LIG    1       -3.291   1.949   1.381  0.00  0.00    +0.150 A 
ATOM     28  C   LIG    1       -4.369   2.089   0.517  0.00  0.00    +0.030 A 
ATOM     29  C   LIG    1       -5.334   3.045   0.767  0.00  0.00    +0.050 A 
ATOM     30  C   LIG    1       -5.228   3.863   1.876  0.00  0.00    +0.020 A 
ATOM     31  C   LIG    1       -4.156   3.728   2.739  0.00  0.00    +0.050 A 
ATOM     32  C   LIG    1       -3.190   2.770   2.498  0.00  0.00    -0.070 A 
ATOM     33 CL   LIG    1       -1.848   2.596   3.586  0.00  0.00    -0.060 Cl
ENDBRANCH  24  27
ENDBRANCH   1  23
TORSDOF 6
