REMARK  Name = ZINCpk000004GROK.0
REMARK                            x       y       z     vdW  Elec       q    Type
REMARK                         _______ _______ _______ _____ _____    ______ ____
ROOT
ATOM      1  C   LIG    1        2.795  -0.825  -2.739  0.00  0.00    +0.320 C 
ENDROOT
BRANCH   1   5
ATOM      2  C   LIG    1        6.871  -0.174  -3.728  0.00  0.00    +0.240 C 
ATOM      3  C   LIG    1        6.596  -0.753  -2.338  0.00  0.00    +0.090 C 
ATOM      4  C   LIG    1        5.149  -1.172  -2.253  0.00  0.00    +0.520 C 
ATOM      5  N   LIG    1        4.207  -0.468  -2.906  0.00  0.00    -0.570 N 
ATOM      6  C   LIG    1        4.540   0.553  -3.713  0.00  0.00    +0.710 C 
ATOM      7  O   LIG    1        3.670   1.300  -4.114  0.00  0.00    -0.550 OA
ATOM      8  O   LIG    1        4.837  -2.143  -1.598  0.00  0.00    -0.490 OA
ATOM      9  N   LIG    1        5.811   0.773  -4.082  0.00  0.00    -0.720 N 
ATOM     10  H   LIG    1        6.031   1.567  -4.593  0.00  0.00    +0.420 HD
BRANCH   2  12
ATOM     11  C   LIG    1        9.327  -0.439  -3.352  0.00  0.00    +0.040 C 
ATOM     12  C   LIG    1        8.219   0.550  -3.721  0.00  0.00    -0.070 C 
ATOM     13  C   LIG    1        8.184   1.683  -2.693  0.00  0.00    +0.040 C 
ATOM     14  C   LIG    1        8.494   1.129  -5.110  0.00  0.00    +0.040 C 
ENDBRANCH   2  12
ENDBRANCH   1   5
BRANCH   1  15
ATOM     15  C   LIG    1        2.207  -0.042  -1.563  0.00  0.00    +0.260 C 
BRANCH  15  16
ATOM     16  N   LIG    1        0.796  -0.399  -1.397  0.00  0.00    -1.120 NA
ATOM     17  H   LIG    1        0.327  -0.866  -2.105  0.00  0.00    +0.420 HD
BRANCH  16  18
ATOM     18  S   LIG    1        0.002  -0.004   0.002  0.00  0.00    +2.610 S 
ATOM     19  O   LIG    1       -1.309  -0.519  -0.182  0.00  0.00    -0.950 OA
ATOM     20  O   LIG    1        0.845  -0.497   1.035  0.00  0.00    -0.940 OA
BRANCH  18  21
ATOM     21  C   LIG    1       -0.022   1.810   0.012  0.00  0.00    -0.300 C 
BRANCH  21  22
ATOM     22  C   LIG    1       -0.728   2.296   1.252  0.00  0.00    -0.100 A 
ATOM     23  C   LIG    1       -2.093   2.513   1.230  0.00  0.00    +0.030 A 
ATOM     24  C   LIG    1       -2.741   2.954   2.369  0.00  0.00    +0.010 A 
ATOM     25  C   LIG    1       -2.022   3.188   3.526  0.00  0.00    +0.020 A 
ATOM     26  C   LIG    1       -0.656   2.976   3.546  0.00  0.00    +0.010 A 
ATOM     27  C   LIG    1       -0.009   2.530   2.409  0.00  0.00    +0.030 A 
ENDBRANCH  21  22
ENDBRANCH  18  21
ENDBRANCH  16  18
ENDBRANCH  15  16
ENDBRANCH   1  15
TORSDOF 7
