REMARK  Name = ZINCrD000000fnTW.0
REMARK                            x       y       z     vdW  Elec       q    Type
REMARK                         _______ _______ _______ _____ _____    ______ ____
ROOT
ATOM      1  N   LIG    1        4.135  -5.215  -0.065  0.00  0.00    -0.670 N 
ATOM      2  H   LIG    1        4.520  -4.326  -0.013  0.00  0.00    +0.410 HD
ATOM      3  C   LIG    1        2.805  -5.365  -0.224  0.00  0.00    +0.600 C 
ATOM      4  O   LIG    1        2.333  -6.474  -0.385  0.00  0.00    -0.510 OA
ENDROOT
BRANCH   1   8
ATOM      5  C   LIG    1        6.590  -8.568   0.208  0.00  0.00    -0.160 A 
ATOM      6  C   LIG    1        7.062  -7.401  -0.400  0.00  0.00    +0.100 A 
ATOM      7  C   LIG    1        6.248  -6.295  -0.489  0.00  0.00    -0.030 A 
ATOM      8  C   LIG    1        4.956  -6.337   0.026  0.00  0.00    +0.180 A 
ATOM      9  C   LIG    1        4.485  -7.495   0.638  0.00  0.00    +0.010 A 
ATOM     10  C   LIG    1        5.292  -8.607   0.724  0.00  0.00    +0.070 A 
BRANCH   5  13
ATOM     11  N   LIG    1        7.004 -10.879   0.892  0.00  0.00    -0.730 N 
ATOM     12  H   LIG    1        6.103 -10.908   1.250  0.00  0.00    +0.400 HD
ATOM     13  C   LIG    1        7.461  -9.755   0.305  0.00  0.00    +0.560 C 
ATOM     14  O   LIG    1        8.590  -9.720  -0.144  0.00  0.00    -0.540 OA
BRANCH  11  15
ATOM     15  C   LIG    1        7.868 -12.058   0.989  0.00  0.00    +0.300 C 
BRANCH  15  17
ATOM     16  C   LIG    1        7.005 -14.339   1.103  0.00  0.00    +0.050 C 
ATOM     17  C   LIG    1        7.125 -13.171   1.682  0.00  0.00    -0.060 C 
ENDBRANCH  15  17
ENDBRANCH  11  15
ENDBRANCH   5  13
ENDBRANCH   1   8
BRANCH   3  18
ATOM     18  C   LIG    1        1.922  -4.184  -0.204  0.00  0.00    -0.280 A 
ATOM     19  C   LIG    1        2.314  -2.871  -0.033  0.00  0.00    +0.290 A 
ATOM     20  N   LIG    1        1.204  -2.112  -0.079  0.00  0.00    -0.300 N 
ATOM     21  N   LIG    1        0.101  -2.951  -0.275  0.00  0.00    -0.290 NA
ATOM     22  C   LIG    1        0.517  -4.185  -0.357  0.00  0.00    +0.150 A 
ATOM     23  C   LIG    1       -0.350  -5.399  -0.570  0.00  0.00    +0.190 C 
BRANCH  20  24
ATOM     24  C   LIG    1        1.160  -0.718   0.053  0.00  0.00    +0.140 A 
ATOM     25  C   LIG    1       -0.057  -0.051  -0.014  0.00  0.00    +0.030 A 
ATOM     26  C   LIG    1       -0.097   1.323   0.117  0.00  0.00    +0.040 A 
ATOM     27  C   LIG    1        1.072   2.035   0.315  0.00  0.00    +0.010 A 
ATOM     28  C   LIG    1        2.284   1.374   0.382  0.00  0.00    +0.050 A 
ATOM     29  C   LIG    1        2.332   0.000   0.252  0.00  0.00    -0.010 A 
ENDBRANCH  20  24
ENDBRANCH   3  18
TORSDOF 6
