REMARK  Name = ZINC9u0000000C5d.0
REMARK                            x       y       z     vdW  Elec       q    Type
REMARK                         _______ _______ _______ _____ _____    ______ ____
ROOT
ATOM      1  C   LIG    1       -0.806   3.066   1.487  0.00  0.00    +0.020 A 
ATOM      2  C   LIG    1       -1.610   3.725   2.342  0.00  0.00    -0.060 A 
ATOM      3  C   LIG    1       -0.906   4.879   2.759  0.00  0.00    -0.060 A 
ATOM      4  C   LIG    1        0.281   4.860   2.128  0.00  0.00    +0.160 A 
ATOM      5  O   LIG    1        0.337   3.760   1.359  0.00  0.00    -0.180 OA
ENDROOT
BRANCH   1   9
ATOM      6  C   LIG    1       -2.180   0.893  -1.445  0.00  0.00    +0.070 C 
ATOM      7  C   LIG    1       -1.150   1.781  -0.743  0.00  0.00    -0.030 C 
ATOM      8  C   LIG    1       -0.013   1.086   0.008  0.00  0.00    +0.030 C 
ATOM      9  C   LIG    1       -1.136   1.773   0.788  0.00  0.00    +0.050 C 
ENDBRANCH   1   9
TORSDOF 1
