REMARK  Name = ZINCvU00000008SP.0
REMARK                            x       y       z     vdW  Elec       q    Type
REMARK                         _______ _______ _______ _____ _____    ______ ____
ROOT
ATOM      1  C   LIG    1       -4.190   6.520   0.301  0.00  0.00    +0.140 A 
ATOM      2  C   LIG    1       -4.542   6.267  -1.018  0.00  0.00    +0.000 A 
ATOM      3  C   LIG    1       -4.919   7.309  -1.843  0.00  0.00    +0.030 A 
ATOM      4  C   LIG    1       -4.935   8.605  -1.359  0.00  0.00    +0.020 A 
ATOM      5  C   LIG    1       -4.579   8.861  -0.048  0.00  0.00    -0.080 A 
ATOM      6  C   LIG    1       -4.206   7.823   0.783  0.00  0.00    +0.050 A 
ENDROOT
BRANCH   1   9
ATOM      7  O   LIG    1       -4.677   6.479   2.916  0.00  0.00    -0.500 OA
ATOM      8  C   LIG    1       -4.135   5.499   2.449  0.00  0.00    +0.510 C 
ATOM      9  N   LIG    1       -3.813   5.466   1.141  0.00  0.00    -0.670 N 
ATOM     10  H   LIG    1       -3.320   4.712   0.781  0.00  0.00    +0.410 HD
BRANCH   8  11
ATOM     11  C   LIG    1       -3.822   4.319   3.332  0.00  0.00    +0.170 C 
BRANCH  11  12
ATOM     12  C   LIG    1       -4.280   4.607   4.738  0.00  0.00    -0.210 A 
ATOM     13  C   LIG    1       -5.498   4.329   5.250  0.00  0.00    +0.150 A 
ATOM     14  N   LIG    1       -5.643   4.681   6.521  0.00  0.00    -0.460 NA
ATOM     15  C   LIG    1       -4.632   5.236   7.095  0.00  0.00    +0.240 A 
ATOM     16  S   LIG    1       -3.322   5.370   6.005  0.00  0.00    +0.160 S 
BRANCH  13  17
ATOM     17  C   LIG    1       -6.573   3.683   4.466  0.00  0.00    -0.130 A 
ATOM     18  C   LIG    1       -7.472   2.807   4.954  0.00  0.00    +0.050 A 
ATOM     19  C   LIG    1       -8.386   2.342   4.028  0.00  0.00    +0.020 A 
ATOM     20  C   LIG    1       -8.235   2.827   2.793  0.00  0.00    -0.040 A 
ATOM     21  S   LIG    1       -6.873   3.938   2.752  0.00  0.00    +0.130 S 
ENDBRANCH  13  17
ENDBRANCH  11  12
ENDBRANCH   8  11
ENDBRANCH   1   9
BRANCH   5  22
ATOM     22  C   LIG    1       -4.597  10.274   0.475  0.00  0.00    +0.260 C 
BRANCH  22  23
ATOM     23  O   LIG    1       -3.320  10.878   0.262  0.00  0.00    -0.300 OA
BRANCH  23  24
ATOM     24  C   LIG    1       -3.167  12.163   0.679  0.00  0.00    +0.150 A 
ATOM     25  C   LIG    1       -4.225  12.826   1.281  0.00  0.00    -0.060 A 
ATOM     26  C   LIG    1       -4.072  14.133   1.707  0.00  0.00    +0.080 A 
ATOM     27  C   LIG    1       -2.861  14.782   1.533  0.00  0.00    -0.010 A 
ATOM     28  O   LIG    1       -2.457  16.046   1.859  0.00  0.00    -0.310 OA
ATOM     29  C   LIG    1       -1.269  16.282   1.081  0.00  0.00    +0.430 C 
ATOM     30  O   LIG    1       -0.727  14.964   0.876  0.00  0.00    -0.310 OA
ATOM     31  C   LIG    1       -1.796  14.117   0.929  0.00  0.00    +0.070 A 
ATOM     32  C   LIG    1       -1.951  12.807   0.508  0.00  0.00    +0.000 A 
ENDBRANCH  23  24
ENDBRANCH  22  23
ENDBRANCH   5  22
TORSDOF 7
