REMARK  Name = ZINCpe000000Ufud.0
REMARK                            x       y       z     vdW  Elec       q    Type
REMARK                         _______ _______ _______ _____ _____    ______ ____
ROOT
ATOM      1  C   LIG    1       -3.141  -2.689  -0.910  0.00  0.00    -0.110 A 
ATOM      2  C   LIG    1       -2.838  -3.229  -2.146  0.00  0.00    +0.040 A 
ATOM      3  C   LIG    1       -2.495  -4.564  -2.256  0.00  0.00    -0.040 A 
ATOM      4  C   LIG    1       -2.464  -5.366  -1.127  0.00  0.00    +0.110 A 
ATOM      5  C   LIG    1       -2.774  -4.824   0.117  0.00  0.00    +0.110 A 
ATOM      6  C   LIG    1       -3.112  -3.485   0.221  0.00  0.00    -0.010 A 
ENDROOT
BRANCH   5   7
ATOM      7  O   LIG    1       -2.745  -5.608   1.228  0.00  0.00    -0.300 OA
ATOM      8  C   LIG    1       -3.074  -4.984   2.471  0.00  0.00    +0.240 C 
ENDBRANCH   5   7
BRANCH   1   9
ATOM      9  C   LIG    1       -3.509  -1.232  -0.795  0.00  0.00    +0.330 C 
BRANCH   9  11
ATOM     10  C   LIG    1       -2.386   0.899  -0.430  0.00  0.00    +0.570 C 
ATOM     11  N   LIG    1       -2.299  -0.439  -0.566  0.00  0.00    -0.720 N 
ATOM     12  H   LIG    1       -1.435  -0.877  -0.511  0.00  0.00    +0.400 HD
ATOM     13  O   LIG    1       -3.468   1.448  -0.499  0.00  0.00    -0.520 OA
BRANCH  10  19
ATOM     14  C   LIG    1       -1.243   3.071   0.068  0.00  0.00    +0.240 A 
ATOM     15  N   LIG    1       -0.125   3.749   0.263  0.00  0.00    -0.520 NA
ATOM     16  C   LIG    1        1.049   3.150   0.214  0.00  0.00    +0.520 A 
ATOM     17  N   LIG    1        1.168   1.860  -0.029  0.00  0.00    -0.530 NA
ATOM     18  C   LIG    1        0.102   1.106  -0.236  0.00  0.00    +0.360 A 
ATOM     19  C   LIG    1       -1.164   1.699  -0.199  0.00  0.00    -0.250 A 
BRANCH  14  21
ATOM     20  C   LIG    1       -3.019   4.143  -1.290  0.00  0.00    +0.050 C 
ATOM     21  C   LIG    1       -2.579   3.764   0.126  0.00  0.00    +0.110 C 
ENDBRANCH  14  21
ENDBRANCH  10  19
ENDBRANCH   9  11
ENDBRANCH   1   9
BRANCH   4  22
ATOM     22  O   LIG    1       -2.132  -6.681  -1.234  0.00  0.00    -0.280 OA
BRANCH  22  23
ATOM     23  C   LIG    1       -1.826  -7.168  -2.542  0.00  0.00    +0.240 C 
BRANCH  23  24
ATOM     24  C   LIG    1       -1.485  -8.634  -2.465  0.00  0.00    +0.520 C 
ATOM     25  O   LIG    1       -1.502  -9.205  -1.395  0.00  0.00    -0.510 OA
ATOM     26  N   LIG    1       -1.160  -9.310  -3.584  0.00  0.00    -0.850 N 
ATOM     27  H   LIG    1       -0.940 -10.253  -3.535  0.00  0.00    +0.410 HD
ATOM     28  H   LIG    1       -1.147  -8.853  -4.440  0.00  0.00    +0.400 HD
ENDBRANCH  23  24
ENDBRANCH  22  23
ENDBRANCH   4  22
TORSDOF 8
