REMARK  Name = ZINCrD00000hQ4yA.0
REMARK                            x       y       z     vdW  Elec       q    Type
REMARK                         _______ _______ _______ _____ _____    ______ ____
ROOT
ATOM      1  C   LIG    1        7.367   3.871   0.325  0.00  0.00    +0.560 C 
ATOM      2  N   LIG    1        7.395   5.214   0.428  0.00  0.00    -0.710 N 
ATOM      3  H   LIG    1        6.566   5.717   0.444  0.00  0.00    +0.410 HD
ATOM      4  O   LIG    1        8.407   3.241   0.305  0.00  0.00    -0.520 OA
ENDROOT
BRANCH   2   5
ATOM      5  C   LIG    1        8.678   5.915   0.517  0.00  0.00    +0.300 C 
ATOM      6  C   LIG    1        9.125   6.025   1.959  0.00  0.00    +0.520 C 
ATOM      7  N   LIG    1        9.206   7.334   2.250  0.00  0.00    -0.660 N 
ATOM      8  H   LIG    1        9.472   7.680   3.116  0.00  0.00    +0.420 HD
ATOM      9  C   LIG    1        8.863   8.139   1.163  0.00  0.00    +0.150 A 
ATOM     10  C   LIG    1        8.814   9.526   1.036  0.00  0.00    -0.010 A 
ATOM     11  C   LIG    1        8.438  10.098  -0.162  0.00  0.00    +0.060 A 
ATOM     12  C   LIG    1        8.109   9.303  -1.244  0.00  0.00    -0.100 A 
ATOM     13  C   LIG    1        8.156   7.925  -1.125  0.00  0.00    +0.080 A 
ATOM     14  O   LIG    1        9.364   5.104   2.711  0.00  0.00    -0.470 OA
ATOM     15  C   LIG    1        8.530   7.350   0.065  0.00  0.00    -0.160 A 
BRANCH  12  16
ATOM     16  C   LIG    1        7.700   9.936  -2.549  0.00  0.00    +0.030 C 
ATOM     17  C   LIG    1        8.840  10.814  -3.070  0.00  0.00    +0.030 C 
ATOM     18  C   LIG    1        6.454  10.796  -2.331  0.00  0.00    +0.030 C 
ENDBRANCH  12  16
ENDBRANCH   2   5
BRANCH   1  22
ATOM     19  C   LIG    1        3.647   1.837   0.069  0.00  0.00    +0.180 A 
ATOM     20  C   LIG    1        3.675   3.225   0.171  0.00  0.00    -0.020 A 
ATOM     21  C   LIG    1        4.878   3.887   0.259  0.00  0.00    +0.070 A 
ATOM     22  C   LIG    1        6.075   3.164   0.236  0.00  0.00    -0.150 A 
ATOM     23  C   LIG    1        6.044   1.771   0.129  0.00  0.00    +0.110 A 
ATOM     24  C   LIG    1        4.837   1.115   0.046  0.00  0.00    +0.010 A 
BRANCH  19  26
ATOM     25  C   LIG    1        2.323   0.047  -0.751  0.00  0.00    +0.540 C 
ATOM     26  N   LIG    1        2.427   1.170  -0.015  0.00  0.00    -0.670 N 
ATOM     27  H   LIG    1        1.653   1.515   0.457  0.00  0.00    +0.420 HD
ATOM     28  O   LIG    1        3.266  -0.333  -1.419  0.00  0.00    -0.520 OA
BRANCH  25  30
ATOM     29  C   LIG    1        0.967  -1.833  -1.470  0.00  0.00    +0.160 C 
ATOM     30  C   LIG    1        1.068  -0.721  -0.748  0.00  0.00    -0.090 C 
ENDBRANCH  25  30
ENDBRANCH  19  26
ENDBRANCH   1  22
TORSDOF 5
