REMARK  Name = ZINCrg000000rZec.0
REMARK                            x       y       z     vdW  Elec       q    Type
REMARK                         _______ _______ _______ _____ _____    ______ ____
ROOT
ATOM      1  C   LIG    1       -1.541   3.319   2.181  0.00  0.00    +0.570 C 
ATOM      2  N   LIG    1       -0.291   3.274   1.680  0.00  0.00    -0.700 N 
ATOM      3  H   LIG    1        0.464   3.130   2.272  0.00  0.00    +0.400 HD
ATOM      4  O   LIG    1       -2.494   3.409   1.431  0.00  0.00    -0.530 OA
ENDROOT
BRANCH   2   5
ATOM      5  C   LIG    1       -0.072   3.442   0.242  0.00  0.00    +0.150 C 
ATOM      6  C   LIG    1        1.431   3.390  -0.063  0.00  0.00    +0.260 C 
ATOM      7  O   LIG    1        2.087   4.371   0.741  0.00  0.00    -0.310 OA
ATOM      8  C   LIG    1        1.577   5.630   0.749  0.00  0.00    +0.120 A 
ATOM      9  C   LIG    1        2.379   6.668   1.213  0.00  0.00    -0.020 A 
ATOM     10  C   LIG    1        1.893   7.959   1.245  0.00  0.00    +0.040 A 
ATOM     11  C   LIG    1        0.606   8.224   0.815  0.00  0.00    -0.020 A 
ATOM     12  C   LIG    1       -0.192   7.196   0.351  0.00  0.00    +0.040 A 
ATOM     13  C   LIG    1        0.291   5.898   0.315  0.00  0.00    -0.150 A 
ATOM     14  C   LIG    1       -0.607   4.804  -0.206  0.00  0.00    +0.110 C 
BRANCH   5  15
ATOM     15  C   LIG    1       -0.792   2.329  -0.523  0.00  0.00    +0.200 C 
BRANCH  15  16
ATOM     16  O   LIG    1       -0.341   1.058  -0.051  0.00  0.00    -0.570 OA
ATOM     17  H   LIG    1       -0.756   0.304  -0.492  0.00  0.00    +0.390 HD
ENDBRANCH  15  16
ENDBRANCH   5  15
ENDBRANCH   2   5
BRANCH   1  21
ATOM     18  C   LIG    1       -4.642   3.296   6.088  0.00  0.00    +0.120 C 
ATOM     19  C   LIG    1       -3.245   3.247   5.525  0.00  0.00    -0.070 A 
ATOM     20  C   LIG    1       -3.050   3.310   4.163  0.00  0.00    +0.110 A 
ATOM     21  C   LIG    1       -1.754   3.258   3.642  0.00  0.00    -0.120 A 
ATOM     22  C   LIG    1       -0.661   3.154   4.505  0.00  0.00    +0.070 A 
ATOM     23  C   LIG    1       -0.864   3.098   5.866  0.00  0.00    +0.020 A 
ATOM     24  C   LIG    1       -2.154   3.143   6.381  0.00  0.00    +0.150 A 
BRANCH  24  25
ATOM     25  N   LIG    1       -2.356   3.085   7.765  0.00  0.00    -0.330 N 
ATOM     26  C   LIG    1       -1.429   2.858   8.721  0.00  0.00    +0.470 A 
ATOM     27  N   LIG    1       -2.043   2.891   9.874  0.00  0.00    -0.320 NA
ATOM     28  N   LIG    1       -3.298   3.114   9.712  0.00  0.00    -0.030 NA
ATOM     29  N   LIG    1       -3.569   3.244   8.458  0.00  0.00    -0.070 NA
ENDBRANCH  24  25
ENDBRANCH   1  21
TORSDOF 5
