REMARK  Name = ZINCAx0000000c9Z.0
REMARK                            x       y       z     vdW  Elec       q    Type
REMARK                         _______ _______ _______ _____ _____    ______ ____
ROOT
ATOM      1  O   LIG    1        5.660  -5.121   3.434  0.00  0.00    -0.500 OA
ATOM      2  C   LIG    1        5.161  -5.894   4.224  0.00  0.00    +0.510 C 
ATOM      3  N   LIG    1        5.887  -6.365   5.257  0.00  0.00    -0.680 N 
ATOM      4  H   LIG    1        5.468  -6.923   5.931  0.00  0.00    +0.410 HD
ENDROOT
BRANCH   3   5
ATOM      5  C   LIG    1        7.247  -6.050   5.357  0.00  0.00    +0.130 A 
ATOM      6  C   LIG    1        8.012  -5.899   4.208  0.00  0.00    +0.070 A 
ATOM      7  C   LIG    1        9.353  -5.582   4.311  0.00  0.00    +0.020 A 
ATOM      8  C   LIG    1        9.935  -5.427   5.555  0.00  0.00    +0.100 A 
ATOM      9  C   LIG    1        9.177  -5.582   6.701  0.00  0.00    -0.660 A 
ATOM     10  C   LIG    1        7.835  -5.894   6.605  0.00  0.00    +0.090 A 
BRANCH   9  11
ATOM     11  S   LIG    1        9.924  -5.383   8.284  0.00  0.00    +2.690 S 
ATOM     12  O   LIG    1        8.875  -5.051   9.184  0.00  0.00    -0.950 OA
ATOM     13  O   LIG    1       11.068  -4.564   8.088  0.00  0.00    -0.950 OA
BRANCH  11  14
ATOM     14  N   LIG    1       10.487  -6.869   8.751  0.00  0.00    -0.990 NA
ATOM     15  C   LIG    1        9.611  -7.736   9.508  0.00  0.00    +0.280 C 
ATOM     16  C   LIG    1        9.774  -7.459  11.017  0.00  0.00    +0.010 C 
ATOM     17  C   LIG    1       11.075  -7.956  11.489  0.00  0.00    +0.000 C 
ATOM     18  C   LIG    1       12.279  -7.274  10.846  0.00  0.00    +0.010 C 
ATOM     19  C   LIG    1       12.600  -7.954   9.538  0.00  0.00    +0.020 C 
ATOM     20  C   LIG    1       11.864  -7.251   8.383  0.00  0.00    +0.270 C 
ENDBRANCH  11  14
ENDBRANCH   9  11
ENDBRANCH   3   5
BRANCH   2  21
ATOM     21  C   LIG    1        3.728  -6.329   4.050  0.00  0.00    +0.220 C 
BRANCH  21  22
ATOM     22  N   LIG    1        3.160  -5.681   2.860  0.00  0.00    -0.520 NA
ATOM     23  C   LIG    1        1.851  -6.256   2.521  0.00  0.00    +0.190 C 
ATOM     24  C   LIG    1        1.332  -5.611   1.234  0.00  0.00    +0.190 C 
ATOM     25  N   LIG    1        1.232  -4.157   1.424  0.00  0.00    -0.540 NA
ATOM     26  C   LIG    1        2.541  -3.582   1.762  0.00  0.00    +0.190 C 
ATOM     27  C   LIG    1        3.061  -4.227   3.050  0.00  0.00    +0.190 C 
BRANCH  25  28
ATOM     28  C   LIG    1        0.664  -3.509   0.234  0.00  0.00    +0.240 C 
BRANCH  28  29
ATOM     29  C   LIG    1        0.349  -2.069   0.548  0.00  0.00    -0.070 A 
ATOM     30  C   LIG    1       -0.895  -1.728   1.044  0.00  0.00    +0.050 A 
ATOM     31  C   LIG    1       -1.189  -0.408   1.334  0.00  0.00    +0.040 A 
ATOM     32  C   LIG    1       -0.236   0.575   1.128  0.00  0.00    +0.030 A 
ATOM     33  O   LIG    1       -0.270   1.925   1.328  0.00  0.00    -0.310 OA
ATOM     34  C   LIG    1        1.106   2.348   1.333  0.00  0.00    +0.430 C 
ATOM     35  O   LIG    1        1.769   1.366   0.515  0.00  0.00    -0.310 OA
ATOM     36  C   LIG    1        1.018   0.231   0.628  0.00  0.00    +0.030 A 
ATOM     37  C   LIG    1        1.306  -1.093   0.340  0.00  0.00    +0.030 A 
ENDBRANCH  28  29
ENDBRANCH  25  28
ENDBRANCH  21  22
ENDBRANCH   2  21
TORSDOF 7
