REMARK  Name = ZINCpe00000VVGYz.0
REMARK                            x       y       z     vdW  Elec       q    Type
REMARK                         _______ _______ _______ _____ _____    ______ ____
ROOT
ATOM      1  C   LIG    1        5.983   1.288   1.267  0.00  0.00    +0.010 C 
ATOM      2  C   LIG    1        6.146   2.317   2.388  0.00  0.00    +0.100 C 
ENDROOT
BRANCH   1   3
ATOM      3  C   LIG    1        4.574   0.753   1.278  0.00  0.00    +0.540 C 
ATOM      4  N   LIG    1        3.595   1.419   0.633  0.00  0.00    -0.680 N 
ATOM      5  H   LIG    1        3.798   2.242   0.162  0.00  0.00    +0.410 HD
ATOM      6  C   LIG    1        2.335   0.940   0.643  0.00  0.00    +0.690 C 
ATOM      7  N   LIG    1        1.357   1.606  -0.002  0.00  0.00    -0.730 N 
ATOM      8  H   LIG    1        1.559   2.429  -0.473  0.00  0.00    +0.400 HD
ATOM      9  O   LIG    1        2.082  -0.091   1.233  0.00  0.00    -0.520 OA
ATOM     10  O   LIG    1        4.321  -0.276   1.867  0.00  0.00    -0.450 OA
BRANCH   7  11
ATOM     11  C   LIG    1       -0.013   1.086   0.008  0.00  0.00    +0.240 C 
ATOM     12  C   LIG    1       -0.763   1.597   1.255  0.00  0.00    +0.010 C 
ATOM     13  C   LIG    1       -1.531   2.845   0.750  0.00  0.00    +0.010 C 
ATOM     14  C   LIG    1       -1.978   2.421  -0.670  0.00  0.00    +0.010 C 
ATOM     15  C   LIG    1       -0.784   1.609  -1.216  0.00  0.00    +0.020 C 
ENDBRANCH   7  11
ENDBRANCH   1   3
BRANCH   1  16
ATOM     16  S   LIG    1        7.147  -0.073   1.525  0.00  0.00    +0.110 S 
BRANCH  16  23
ATOM     17  N   LIG    1        9.927   0.227   1.415  0.00  0.00    -0.530 N 
ATOM     18  C   LIG    1       10.839   1.194   1.193  0.00  0.00    +0.650 A 
ATOM     19  N   LIG    1       10.168   2.344   0.970  0.00  0.00    -0.540 N 
ATOM     20  H   LIG    1       10.561   3.211   0.785  0.00  0.00    +0.460 HD
ATOM     21  N   LIG    1        8.800   2.054   1.056  0.00  0.00    -0.280 NA
ATOM     22  O   LIG    1       12.049   1.057   1.198  0.00  0.00    -0.540 OA
ATOM     23  C   LIG    1        8.672   0.785   1.319  0.00  0.00    +0.240 A 
BRANCH  17  24
ATOM     24  C   LIG    1       10.220  -1.178   1.705  0.00  0.00    +0.340 C 
BRANCH  24  25
ATOM     25  C   LIG    1       10.299  -1.964   0.395  0.00  0.00    +0.020 C 
BRANCH  25  26
ATOM     26  C   LIG    1       10.606  -3.432   0.698  0.00  0.00    +0.180 C 
BRANCH  26  28
ATOM     27  C   LIG    1       10.963  -5.556  -0.355  0.00  0.00    +0.200 C 
ATOM     28  O   LIG    1       10.679  -4.166  -0.526  0.00  0.00    -0.390 OA
ENDBRANCH  26  28
ENDBRANCH  25  26
ENDBRANCH  24  25
ENDBRANCH  17  24
ENDBRANCH  16  23
ENDBRANCH   1  16
TORSDOF 8
