REMARK  Name = ZINCrD00000e1Xn5.0
REMARK                            x       y       z     vdW  Elec       q    Type
REMARK                         _______ _______ _______ _____ _____    ______ ____
ROOT
ATOM      1  C   LIG    1       -0.553   5.270  -4.873  0.00  0.00    +0.160 A 
ATOM      2  C   LIG    1       -0.938   5.875  -6.053  0.00  0.00    -0.050 A 
ATOM      3  C   LIG    1       -1.051   7.257  -6.101  0.00  0.00    +0.100 A 
ATOM      4  C   LIG    1       -0.772   7.986  -4.956  0.00  0.00    -0.160 A 
ATOM      5  C   LIG    1       -0.888   9.486  -4.996  0.00  0.00    +0.080 C 
ATOM      6  C   LIG    1       -1.038  10.048  -3.582  0.00  0.00    +0.020 C 
ATOM      7  C   LIG    1        0.078   9.472  -2.701  0.00  0.00    +0.290 C 
ATOM      8  N   LIG    1       -0.109   8.016  -2.630  0.00  0.00    -0.550 N 
ATOM      9  C   LIG    1       -0.009   7.370  -1.452  0.00  0.00    +0.530 C 
ATOM     10  O   LIG    1        0.150   7.998  -0.427  0.00  0.00    -0.520 OA
ATOM     11  C   LIG    1       -0.388   7.312  -3.805  0.00  0.00    +0.370 A 
ATOM     12  N   LIG    1       -0.295   5.990  -3.799  0.00  0.00    -0.500 NA
ENDROOT
BRANCH   9  13
ATOM     13  C   LIG    1       -0.093   5.866  -1.409  0.00  0.00    +0.040 C 
ATOM     14  C   LIG    1       -1.553   5.432  -1.559  0.00  0.00    +0.050 C 
BRANCH  13  15
ATOM     15  C   LIG    1        0.453   5.363  -0.071  0.00  0.00    +0.080 C 
BRANCH  15  16
ATOM     16  C   LIG    1        0.483   3.856  -0.075  0.00  0.00    -0.070 A 
ATOM     17  C   LIG    1        1.608   3.188  -0.522  0.00  0.00    +0.000 A 
ATOM     18  C   LIG    1        1.635   1.806  -0.525  0.00  0.00    +0.010 A 
ATOM     19  C   LIG    1        0.538   1.092  -0.082  0.00  0.00    -0.010 A 
ATOM     20  C   LIG    1       -0.589   1.760   0.359  0.00  0.00    +0.000 A 
ATOM     21  C   LIG    1       -0.614   3.142   0.369  0.00  0.00    +0.010 A 
ENDBRANCH  15  16
ENDBRANCH  13  15
ENDBRANCH   9  13
BRANCH   1  22
ATOM     22  C   LIG    1       -0.425   3.770  -4.812  0.00  0.00    +0.130 C 
BRANCH  22  23
ATOM     23  C   LIG    1        0.976   3.397  -4.324  0.00  0.00    +0.110 C 
BRANCH  23  24
ATOM     24  C   LIG    1        1.104   1.896  -4.263  0.00  0.00    +0.460 C 
ATOM     25  O   LIG    1        0.170   1.197  -4.578  0.00  0.00    -0.510 OA
BRANCH  24  27
ATOM     26  C   LIG    1        2.306  -0.114  -3.826  0.00  0.00    +0.250 C 
ATOM     27  O   LIG    1        2.255   1.337  -3.860  0.00  0.00    -0.360 OA
ENDBRANCH  24  27
ENDBRANCH  23  24
ENDBRANCH  22  23
ENDBRANCH   1  22
TORSDOF 7
