REMARK  Name = ZINCrD000000Bh3M.0
REMARK                            x       y       z     vdW  Elec       q    Type
REMARK                         _______ _______ _______ _____ _____    ______ ____
ROOT
ATOM      1  C   LIG    1        1.399   1.712  -0.002  0.00  0.00    +0.000 C 
ATOM      2  C   LIG    1        1.331   3.237  -0.005  0.00  0.00    +0.040 C 
ATOM      3  C   LIG    1       -0.131   3.734   0.002  0.00  0.00    +0.100 C 
ATOM      4  C   LIG    1       -0.774   3.079   1.215  0.00  0.00    -0.080 A 
ATOM      5  C   LIG    1       -1.373   3.753   2.240  0.00  0.00    +0.010 A 
ATOM      6  C   LIG    1       -1.921   3.026   3.289  0.00  0.00    +0.000 A 
ATOM      7  C   LIG    1       -1.859   1.645   3.292  0.00  0.00    +0.000 A 
ATOM      8  C   LIG    1       -1.248   0.966   2.246  0.00  0.00    +0.020 A 
ATOM      9  C   LIG    1       -0.703   1.668   1.232  0.00  0.00    -0.080 A 
ATOM     10  C   LIG    1       -0.788   3.073  -1.199  0.00  0.00    -0.080 A 
ATOM     11  C   LIG    1       -1.399   3.742  -2.220  0.00  0.00    +0.010 A 
ATOM     12  C   LIG    1       -1.960   3.010  -3.260  0.00  0.00    +0.000 A 
ATOM     13  C   LIG    1       -1.898   1.629  -3.257  0.00  0.00    +0.000 A 
ATOM     14  C   LIG    1       -1.274   0.955  -2.215  0.00  0.00    +0.030 A 
ATOM     15  C   LIG    1       -0.726   1.681  -1.196  0.00  0.00    -0.080 A 
ATOM     16  C   LIG    1       -0.013   1.086   0.008  0.00  0.00    +0.110 C 
ENDROOT
BRANCH   1  17
ATOM     17  C   LIG    1        2.146   1.241  -1.252  0.00  0.00    +0.280 C 
BRANCH  17  20
ATOM     18  O   LIG    1        3.999   0.768  -3.153  0.00  0.00    -0.520 OA
ATOM     19  C   LIG    1        4.376   1.440  -2.213  0.00  0.00    +0.560 C 
ATOM     20  N   LIG    1        3.526   1.733  -1.210  0.00  0.00    -0.720 N 
ATOM     21  H   LIG    1        3.827   2.270  -0.460  0.00  0.00    +0.400 HD
BRANCH  19  22
ATOM     22  C   LIG    1        5.769   1.938  -2.171  0.00  0.00    -0.100 C 
ATOM     23  C   LIG    1        6.222   2.718  -1.101  0.00  0.00    +0.080 C 
ATOM     24  C   LIG    1        7.531   3.157  -1.100  0.00  0.00    +0.260 C 
ATOM     25  N   LIG    1        8.347   2.858  -2.093  0.00  0.00    -0.110 NA
ATOM     26  C   LIG    1        7.959   2.129  -3.123  0.00  0.00    +0.260 C 
ATOM     27  O   LIG    1        9.680   3.334  -2.053  0.00  0.00    -0.530 OA
ATOM     28  C   LIG    1        6.669   1.645  -3.202  0.00  0.00    +0.120 C 
ENDBRANCH  19  22
ENDBRANCH  17  20
ENDBRANCH   1  17
TORSDOF 3
