REMARK  Name = ZINCrg000000sMFz.0
REMARK                            x       y       z     vdW  Elec       q    Type
REMARK                         _______ _______ _______ _____ _____    ______ ____
ROOT
ATOM      1  C   LIG    1       -0.729   1.579   1.267  0.00  0.00    +0.040 C 
ENDROOT
BRANCH   1   4
ATOM      2  N   LIG    1       -0.453   1.393   3.718  0.00  0.00    -0.720 N 
ATOM      3  H   LIG    1       -1.248   1.939   3.817  0.00  0.00    +0.400 HD
ATOM      4  C   LIG    1        0.000   1.080   2.488  0.00  0.00    +0.520 C 
ATOM      5  O   LIG    1        0.994   0.397   2.363  0.00  0.00    -0.530 OA
BRANCH   2  11
ATOM      6  C   LIG    1       -1.317  -3.009   7.580  0.00  0.00    +0.360 C 
ATOM      7  N   LIG    1       -0.911  -2.172   6.448  0.00  0.00    -0.370 N 
ATOM      8  N   LIG    1       -0.872  -2.565   5.102  0.00  0.00    -0.300 NA
ATOM      9  C   LIG    1       -0.460  -1.546   4.388  0.00  0.00    +0.250 A 
ATOM     10  C   LIG    1       -0.227  -0.479   5.253  0.00  0.00    -0.260 A 
ATOM     11  C   LIG    1        0.256   0.907   4.905  0.00  0.00    +0.330 C 
ATOM     12  C   LIG    1       -0.033   1.833   6.093  0.00  0.00    +0.020 C 
ATOM     13  C   LIG    1        0.490   1.190   7.381  0.00  0.00    +0.040 C 
ATOM     14  C   LIG    1       -0.380  -0.021   7.739  0.00  0.00    +0.110 C 
ATOM     15  C   LIG    1       -0.510  -0.892   6.514  0.00  0.00    +0.090 A 
ENDBRANCH   2  11
ENDBRANCH   1   4
BRANCH   1  16
ATOM     16  C   LIG    1       -0.013   1.086   0.008  0.00  0.00    +0.350 C 
BRANCH  16  17
ATOM     17  N   LIG    1       -0.721   1.571  -1.179  0.00  0.00    -0.400 N 
ATOM     18  N   LIG    1       -1.740   0.789  -1.726  0.00  0.00    -0.510 N 
ATOM     19  H   LIG    1       -1.957  -0.059  -1.309  0.00  0.00    +0.430 HD
ATOM     20  C   LIG    1       -2.430   1.177  -2.816  0.00  0.00    +0.560 A 
ATOM     21  C   LIG    1       -2.107   2.469  -3.460  0.00  0.00    -0.110 A 
ATOM     22  C   LIG    1       -2.789   2.911  -4.585  0.00  0.00    +0.090 A 
ATOM     23  C   LIG    1       -2.451   4.127  -5.155  0.00  0.00    +0.040 A 
ATOM     24  C   LIG    1       -1.443   4.902  -4.612  0.00  0.00    +0.040 A 
ATOM     25  C   LIG    1       -0.753   4.475  -3.490  0.00  0.00    +0.090 A 
ATOM     26  C   LIG    1       -1.079   3.259  -2.908  0.00  0.00    -0.110 A 
ATOM     27  O   LIG    1       -3.310   0.471  -3.267  0.00  0.00    -0.510 OA
ATOM     28  C   LIG    1       -0.374   2.761  -1.706  0.00  0.00    +0.560 A 
ATOM     29  O   LIG    1        0.515   3.419  -1.201  0.00  0.00    -0.510 OA
ENDBRANCH  16  17
ENDBRANCH   1  16
TORSDOF 4
