REMARK  Name = ZINCBI0000000jXN.0
REMARK                            x       y       z     vdW  Elec       q    Type
REMARK                         _______ _______ _______ _____ _____    ______ ____
ROOT
ATOM      1  N   LIG    1        5.640   6.334   0.707  0.00  0.00    -0.660 N 
ATOM      2  H   LIG    1        4.924   5.812   1.100  0.00  0.00    +0.420 HD
ATOM      3  C   LIG    1        6.755   5.721   0.262  0.00  0.00    +0.580 C 
ATOM      4  O   LIG    1        7.687   6.382  -0.155  0.00  0.00    -0.520 OA
ENDROOT
BRANCH   3   5
ATOM      5  C   LIG    1        6.844   4.250   0.280  0.00  0.00    -0.190 A 
ATOM      6  C   LIG    1        5.826   3.493   0.858  0.00  0.00    +0.110 A 
ATOM      7  C   LIG    1        5.902   2.111   0.878  0.00  0.00    +0.050 A 
ATOM      8  C   LIG    1        6.988   1.460   0.324  0.00  0.00    +0.140 A 
ATOM      9  C   LIG    1        8.017   2.199  -0.261  0.00  0.00    -0.200 A 
ATOM     10  C   LIG    1        9.184   1.526  -0.865  0.00  0.00    +0.440 A 
ATOM     11  O   LIG    1        9.406   0.344  -0.679  0.00  0.00    -0.440 OA
ATOM     12  C   LIG    1       10.069   2.356  -1.706  0.00  0.00    -0.180 A 
ATOM     13  C   LIG    1       11.035   1.772  -2.526  0.00  0.00    +0.120 A 
ATOM     14  C   LIG    1       11.843   2.574  -3.303  0.00  0.00    +0.020 A 
ATOM     15  C   LIG    1       11.691   3.953  -3.281  0.00  0.00    +0.070 A 
ATOM     16  C   LIG    1       10.742   4.544  -2.472  0.00  0.00    +0.050 A 
ATOM     17  F   LIG    1       10.610   5.888  -2.457  0.00  0.00    -0.130 F 
ATOM     18  C   LIG    1        9.919   3.753  -1.672  0.00  0.00    +0.180 A 
ATOM     19  N   LIG    1        8.971   4.335  -0.855  0.00  0.00    -0.620 N 
ATOM     20  H   LIG    1        9.022   5.287  -0.677  0.00  0.00    +0.440 HD
ATOM     21  F   LIG    1        4.907   1.392   1.444  0.00  0.00    -0.130 F 
ATOM     22  C   LIG    1        7.957   3.602  -0.286  0.00  0.00    +0.280 A 
ENDBRANCH   3   5
BRANCH   1  27
ATOM     23  C   LIG    1        6.503   9.912   0.667  0.00  0.00    +0.120 A 
ATOM     24  C   LIG    1        5.263  10.476   0.393  0.00  0.00    -0.050 A 
ATOM     25  C   LIG    1        4.157   9.665   0.224  0.00  0.00    +0.060 A 
ATOM     26  C   LIG    1        4.281   8.293   0.322  0.00  0.00    -0.030 A 
ATOM     27  C   LIG    1        5.517   7.723   0.602  0.00  0.00    +0.160 A 
ATOM     28  C   LIG    1        6.630   8.534   0.772  0.00  0.00    +0.000 A 
BRANCH  23  32
ATOM     29  N   LIG    1        9.162  12.765   2.102  0.00  0.00    -0.530 NA
ATOM     30  C   LIG    1        8.525  13.007   0.800  0.00  0.00    +0.200 C 
ATOM     31  C   LIG    1        7.263  12.149   0.685  0.00  0.00    +0.210 C 
ATOM     32  N   LIG    1        7.621  10.732   0.838  0.00  0.00    -0.490 N 
ATOM     33  C   LIG    1        8.258  10.490   2.139  0.00  0.00    +0.210 C 
ATOM     34  C   LIG    1        9.521  11.347   2.254  0.00  0.00    +0.180 C 
BRANCH  29  35
ATOM     35  C   LIG    1       10.338  13.627   2.281  0.00  0.00    +0.190 C 
BRANCH  35  36
ATOM     36  C   LIG    1       10.825  13.531   3.729  0.00  0.00    +0.260 C 
BRANCH  36  38
ATOM     37  C   LIG    1       12.395  14.395   5.323  0.00  0.00    +0.320 C 
ATOM     38  N   LIG    1       12.000  14.393   3.908  0.00  0.00    -0.390 N 
ATOM     39  C   LIG    1       13.110  13.885   3.091  0.00  0.00    +0.320 C 
ATOM     40  H   LIG    1       11.775  15.334   3.621  0.00  0.00    +0.430 HD
ENDBRANCH  36  38
ENDBRANCH  35  36
ENDBRANCH  29  35
ENDBRANCH  23  32
ENDBRANCH   1  27
TORSDOF 6
