REMARK  Name = ZINCpk00000xIbch.0
REMARK                            x       y       z     vdW  Elec       q    Type
REMARK                         _______ _______ _______ _____ _____    ______ ____
ROOT
ATOM      1  C   LIG    1       -1.140   3.177   0.029  0.00  0.00    +0.030 A 
ATOM      2  N   LIG    1        0.017   3.798   0.021  0.00  0.00    -0.130 NA
ATOM      3  N   LIG    1        1.134   3.166   0.008  0.00  0.00    -0.340 N 
ATOM      4  C   LIG    1        1.188   1.821   0.001  0.00  0.00    +0.480 A 
ATOM      5  C   LIG    1       -0.013   1.076   0.008  0.00  0.00    -0.030 A 
ATOM      6  O   LIG    1        2.265   1.249  -0.013  0.00  0.00    -0.530 OA
ATOM      7  C   LIG    1       -1.190   1.763   0.017  0.00  0.00    +0.130 A 
ENDROOT
BRANCH   1   8
ATOM      8  C   LIG    1       -2.398   3.960   0.044  0.00  0.00    +0.560 C 
ATOM      9  O   LIG    1       -3.474   3.386   0.051  0.00  0.00    -0.530 OA
BRANCH   8  16
ATOM     10  C   LIG    1       -2.433   8.222   0.077  0.00  0.00    +0.340 C 
ATOM     11  N   LIG    1       -3.607   7.346   0.077  0.00  0.00    -0.480 N 
ATOM     12  C   LIG    1       -4.869   7.852   0.085  0.00  0.00    +0.250 A 
ATOM     13  C   LIG    1       -5.866   6.975   0.090  0.00  0.00    -0.080 A 
ATOM     14  S   LIG    1       -5.092   5.381   0.076  0.00  0.00    +0.180 S 
ATOM     15  C   LIG    1       -3.485   5.998   0.064  0.00  0.00    +0.370 A 
ATOM     16  N   LIG    1       -2.354   5.294   0.050  0.00  0.00    -0.590 NA
ENDBRANCH   8  16
ENDBRANCH   1   8
BRANCH   3  17
ATOM     17  C   LIG    1        2.385   3.929   0.000  0.00  0.00    +0.360 C 
BRANCH  17  18
ATOM     18  C   LIG    1        2.807   4.202  -1.445  0.00  0.00    +0.200 C 
BRANCH  18  19
ATOM     19  O   LIG    1        1.843   5.050  -2.071  0.00  0.00    -0.300 OA
BRANCH  19  20
ATOM     20  C   LIG    1        2.070   5.391  -3.366  0.00  0.00    +0.130 A 
ATOM     21  C   LIG    1        3.201   4.924  -4.020  0.00  0.00    -0.080 A 
ATOM     22  C   LIG    1        3.427   5.268  -5.339  0.00  0.00    +0.050 A 
ATOM     23  C   LIG    1        2.532   6.086  -6.004  0.00  0.00    -0.040 A 
ATOM     24  C   LIG    1        1.407   6.558  -5.353  0.00  0.00    +0.050 A 
ATOM     25  C   LIG    1        1.174   6.213  -4.036  0.00  0.00    -0.020 A 
ENDBRANCH  19  20
ENDBRANCH  18  19
ENDBRANCH  17  18
ENDBRANCH   3  17
TORSDOF 6
