REMARK  Name = ZINCrD0000075rhG.0
REMARK                            x       y       z     vdW  Elec       q    Type
REMARK                         _______ _______ _______ _____ _____    ______ ____
ROOT
ATOM      1  O   LIG    1        4.902   0.423  -1.239  0.00  0.00    -0.330 OA
ENDROOT
BRANCH   1   2
ATOM      2  C   LIG    1        4.618   1.728  -1.103  0.00  0.00    +0.490 C 
ATOM      3  O   LIG    1        5.120   2.537  -1.846  0.00  0.00    -0.490 OA
BRANCH   2   4
ATOM      4  C   LIG    1        3.672   2.184  -0.022  0.00  0.00    -0.040 C 
ATOM      5  C   LIG    1        4.329   2.300   1.364  0.00  0.00    +0.070 C 
ATOM      6  C   LIG    1        4.680   3.751   0.987  0.00  0.00    +0.030 C 
ATOM      7  C   LIG    1        3.480   3.709   0.026  0.00  0.00    +0.070 C 
BRANCH   4   8
ATOM      8  C   LIG    1        2.377   1.412  -0.013  0.00  0.00    -0.090 A 
ATOM      9  C   LIG    1        1.171   2.087   0.002  0.00  0.00    +0.060 A 
ATOM     10  C   LIG    1       -0.017   1.380   0.010  0.00  0.00    -0.020 A 
ATOM     11  C   LIG    1        0.002  -0.004   0.002  0.00  0.00    +0.100 A 
ATOM     12  C   LIG    1        1.211  -0.679  -0.013  0.00  0.00    -0.010 A 
ATOM     13  F   LIG    1       -1.158  -0.696   0.010  0.00  0.00    -0.140 F 
ATOM     14  C   LIG    1        2.397   0.030  -0.021  0.00  0.00    +0.080 A 
ENDBRANCH   4   8
ENDBRANCH   2   4
ENDBRANCH   1   2
BRANCH   1  15
ATOM     15  C   LIG    1        5.821   0.057  -2.302  0.00  0.00    +0.250 C 
BRANCH  15  17
ATOM     16  O   LIG    1        5.441  -2.125  -1.487  0.00  0.00    -0.510 OA
ATOM     17  C   LIG    1        6.019  -1.437  -2.302  0.00  0.00    +0.520 C 
ATOM     18  N   LIG    1        6.836  -2.009  -3.208  0.00  0.00    -0.610 N 
ATOM     19  C   LIG    1        7.056  -3.465  -3.231  0.00  0.00    +0.290 C 
ATOM     20  C   LIG    1        6.503  -3.997  -4.558  0.00  0.00    +0.070 C 
ATOM     21  C   LIG    1        6.983  -3.156  -5.712  0.00  0.00    -0.070 A 
ATOM     22  C   LIG    1        6.933  -3.718  -6.982  0.00  0.00    +0.000 A 
ATOM     23  C   LIG    1        7.346  -2.999  -8.084  0.00  0.00    +0.010 A 
ATOM     24  C   LIG    1        7.812  -1.707  -7.927  0.00  0.00    +0.010 A 
ATOM     25  C   LIG    1        7.866  -1.148  -6.667  0.00  0.00    +0.020 A 
ATOM     26  C   LIG    1        7.455  -1.872  -5.556  0.00  0.00    -0.100 A 
ATOM     27  C   LIG    1        7.549  -1.205  -4.207  0.00  0.00    +0.330 C 
ENDBRANCH  15  17
ENDBRANCH   1  15
TORSDOF 5
