REMARK  Name = ZINCrH000004vIZT.0
REMARK                            x       y       z     vdW  Elec       q    Type
REMARK                         _______ _______ _______ _____ _____    ______ ____
ROOT
ATOM      1  S   LIG    1       -5.109   0.691   1.061  0.00  0.00    +2.700 S 
ATOM      2  O   LIG    1       -5.069   1.536  -0.080  0.00  0.00    -0.940 OA
ATOM      3  O   LIG    1       -3.963   0.025   1.575  0.00  0.00    -0.930 OA
ENDROOT
BRANCH   1  11
ATOM      4  O   LIG    1      -10.320  -2.239  -3.187  0.00  0.00    -0.510 OA
ATOM      5  C   LIG    1       -9.744  -2.238  -2.120  0.00  0.00    +0.520 C 
ATOM      6  C   LIG    1      -10.311  -3.021  -0.967  0.00  0.00    +0.090 C 
ATOM      7  C   LIG    1       -9.175  -3.607  -0.127  0.00  0.00    +0.110 C 
ATOM      8  C   LIG    1       -8.164  -2.531   0.173  0.00  0.00    -0.070 A 
ATOM      9  C   LIG    1       -7.485  -2.532   1.375  0.00  0.00    +0.080 A 
ATOM     10  C   LIG    1       -6.548  -1.555   1.642  0.00  0.00    -0.020 A 
ATOM     11  C   LIG    1       -6.297  -0.562   0.712  0.00  0.00    -0.630 A 
ATOM     12  C   LIG    1       -6.976  -0.553  -0.491  0.00  0.00    +0.110 A 
ATOM     13 BR   LIG    1       -5.616  -1.565   3.287  0.00  0.00    -0.010 Br
ATOM     14  C   LIG    1       -7.912  -1.541  -0.766  0.00  0.00    +0.160 A 
ATOM     15  N   LIG    1       -8.604  -1.536  -1.981  0.00  0.00    -0.660 N 
ATOM     16  H   LIG    1       -8.258  -1.027  -2.731  0.00  0.00    +0.420 HD
ENDBRANCH   1  11
BRANCH   1  17
ATOM     17  N   LIG    1       -5.713   1.607   2.301  0.00  0.00    -1.000 NA
ATOM     18  C   LIG    1       -5.397   1.433   3.731  0.00  0.00    +0.280 C 
ATOM     19  C   LIG    1       -5.665   2.823   4.366  0.00  0.00    +0.040 C 
ATOM     20  C   LIG    1       -6.914   3.289   3.572  0.00  0.00    +0.040 C 
ATOM     21  C   LIG    1       -6.657   2.724   2.160  0.00  0.00    +0.250 C 
BRANCH  21  22
ATOM     22  C   LIG    1       -7.970   2.223   1.553  0.00  0.00    +0.050 C 
BRANCH  22  23
ATOM     23  C   LIG    1       -8.880   3.394   1.288  0.00  0.00    -0.080 A 
ATOM     24  C   LIG    1       -9.841   3.747   2.217  0.00  0.00    +0.010 A 
ATOM     25  C   LIG    1      -10.673   4.824   1.976  0.00  0.00    +0.000 A 
ATOM     26  C   LIG    1      -10.551   5.542   0.802  0.00  0.00    +0.000 A 
ATOM     27  C   LIG    1       -9.594   5.186  -0.130  0.00  0.00    +0.000 A 
ATOM     28  C   LIG    1       -8.758   4.112   0.113  0.00  0.00    +0.000 A 
ENDBRANCH  22  23
ENDBRANCH  21  22
ENDBRANCH   1  17
TORSDOF 4
