REMARK  Name = ZINCpk00000y6xr5.0
REMARK                            x       y       z     vdW  Elec       q    Type
REMARK                         _______ _______ _______ _____ _____    ______ ____
ROOT
ATOM      1  C   LIG    1       -2.597  -1.968   1.680  0.00  0.00    +0.170 C 
ATOM      2  C   LIG    1       -2.109  -0.574   1.207  0.00  0.00    +0.100 C 
ATOM      3  C   LIG    1       -1.200  -0.914   0.008  0.00  0.00    +0.340 C 
ATOM      4  N   LIG    1       -0.769  -2.310   0.169  0.00  0.00    -0.610 N 
ATOM      5  C   LIG    1        0.021  -2.992  -0.684  0.00  0.00    +0.500 C 
ATOM      6  O   LIG    1        0.440  -2.452  -1.686  0.00  0.00    -0.510 OA
ATOM      7  C   LIG    1       -1.344  -2.841   1.418  0.00  0.00    +0.250 C 
ENDROOT
BRANCH   3   8
ATOM      8  C   LIG    1        0.002  -0.004   0.002  0.00  0.00    +0.170 A 
ATOM      9  N   LIG    1       -0.016   1.301   0.009  0.00  0.00    -0.280 NA
ATOM     10  N   LIG    1        1.189   1.750   0.000  0.00  0.00    -0.290 NA
ATOM     11  C   LIG    1        2.030   0.752  -0.013  0.00  0.00    +0.180 A 
ATOM     12  C   LIG    1        3.534   0.852  -0.027  0.00  0.00    +0.200 C 
ATOM     13  N   LIG    1        1.301  -0.390  -0.013  0.00  0.00    -0.560 N 
ATOM     14  H   LIG    1        1.640  -1.298  -0.021  0.00  0.00    +0.420 HD
ENDBRANCH   3   8
BRANCH   1  16
ATOM     15  C   LIG    1       -4.612  -3.265   1.604  0.00  0.00    +0.210 C 
ATOM     16  O   LIG    1       -3.706  -2.416   0.897  0.00  0.00    -0.370 OA
ENDBRANCH   1  16
BRANCH   5  17
ATOM     17  C   LIG    1        0.385  -4.425  -0.392  0.00  0.00    +0.380 C 
BRANCH  17  18
ATOM     18  N   LIG    1        1.245  -4.938  -1.462  0.00  0.00    -0.400 N 
ATOM     19  N   LIG    1        0.801  -5.577  -2.624  0.00  0.00    -0.240 NA
ATOM     20  C   LIG    1        1.818  -5.906  -3.369  0.00  0.00    +0.280 A 
ATOM     21  C   LIG    1        3.032  -5.479  -2.681  0.00  0.00    -0.180 A 
ATOM     22  C   LIG    1        4.397  -5.560  -2.978  0.00  0.00    +0.100 A 
ATOM     23  C   LIG    1        5.309  -5.050  -2.100  0.00  0.00    -0.030 A 
ATOM     24  C   LIG    1        4.895  -4.452  -0.916  0.00  0.00    +0.070 A 
ATOM     25  C   LIG    1        3.568  -4.362  -0.605  0.00  0.00    -0.030 A 
ATOM     26  C   LIG    1        2.614  -4.873  -1.481  0.00  0.00    +0.140 A 
ENDBRANCH  17  18
ENDBRANCH   5  17
TORSDOF 4
