REMARK  Name = ZINCpk00000y6xr5.1
REMARK                            x       y       z     vdW  Elec       q    Type
REMARK                         _______ _______ _______ _____ _____    ______ ____
ROOT
ATOM      1  C   LIG    1        7.729   3.742  -1.409  0.00  0.00    +0.180 C 
ATOM      2  C   LIG    1        7.471   3.198  -2.839  0.00  0.00    +0.080 C 
ATOM      3  C   LIG    1        5.960   3.441  -3.034  0.00  0.00    +0.350 C 
ATOM      4  N   LIG    1        5.358   3.545  -1.697  0.00  0.00    -0.600 N 
ATOM      5  C   LIG    1        4.056   3.777  -1.437  0.00  0.00    +0.510 C 
ATOM      6  O   LIG    1        3.272   3.921  -2.351  0.00  0.00    -0.510 OA
ATOM      7  C   LIG    1        6.416   3.358  -0.687  0.00  0.00    +0.260 C 
ENDROOT
BRANCH   3   8
ATOM      8  C   LIG    1        5.348   2.286  -3.784  0.00  0.00    +0.230 A 
ATOM      9  N   LIG    1        5.106   1.101  -3.288  0.00  0.00    -0.300 NA
ATOM     10  N   LIG    1        4.537   0.338  -4.320  0.00  0.00    -0.480 N 
ATOM     11  H   LIG    1        4.246  -0.587  -4.267  0.00  0.00    +0.440 HD
ATOM     12  C   LIG    1        4.475   1.141  -5.396  0.00  0.00    +0.290 A 
ATOM     13  C   LIG    1        3.936   0.765  -6.752  0.00  0.00    +0.190 C 
ATOM     14  N   LIG    1        4.960   2.309  -5.059  0.00  0.00    -0.530 NA
ENDBRANCH   3   8
BRANCH   1  16
ATOM     15  C   LIG    1        8.767   5.649  -0.394  0.00  0.00    +0.210 C 
ATOM     16  O   LIG    1        7.905   5.160  -1.424  0.00  0.00    -0.370 OA
ENDBRANCH   1  16
BRANCH   5  17
ATOM     17  C   LIG    1        3.575   3.859  -0.012  0.00  0.00    +0.370 C 
BRANCH  17  18
ATOM     18  N   LIG    1        2.133   4.117   0.003  0.00  0.00    -0.390 N 
ATOM     19  N   LIG    1        1.536   5.382   0.015  0.00  0.00    -0.240 NA
ATOM     20  C   LIG    1        0.239   5.264   0.027  0.00  0.00    +0.280 A 
ATOM     21  C   LIG    1       -0.080   3.840   0.022  0.00  0.00    -0.180 A 
ATOM     22  C   LIG    1       -1.273   3.110   0.030  0.00  0.00    +0.090 A 
ATOM     23  C   LIG    1       -1.230   1.745   0.017  0.00  0.00    -0.030 A 
ATOM     24  C   LIG    1       -0.013   1.076   0.008  0.00  0.00    +0.060 A 
ATOM     25  C   LIG    1        1.166   1.767   0.000  0.00  0.00    -0.020 A 
ATOM     26  C   LIG    1        1.153   3.159   0.007  0.00  0.00    +0.140 A 
ENDBRANCH  17  18
ENDBRANCH   5  17
TORSDOF 4
