REMARK  Name = ZINCrg000000tzNe.1
REMARK                            x       y       z     vdW  Elec       q    Type
REMARK                         _______ _______ _______ _____ _____    ______ ____
ROOT
ATOM      1  C   LIG    1        0.023  -0.715   1.210  0.00  0.00    -0.180 A 
ATOM      2  C   LIG    1        0.042  -2.111   1.190  0.00  0.00    +0.180 A 
ATOM      3  C   LIG    1        0.039  -2.780  -0.015  0.00  0.00    -0.700 A 
ATOM      4  C   LIG    1        0.018  -2.075  -1.207  0.00  0.00    +0.170 A 
ATOM      5  C   LIG    1       -0.006  -0.694  -1.201  0.00  0.00    -0.020 A 
ATOM      6  C   LIG    1        0.002  -0.004   0.002  0.00  0.00    +0.230 A 
ENDROOT
BRANCH   1   8
ATOM      7  O   LIG    1        0.011   1.224   2.510  0.00  0.00    -0.520 OA
ATOM      8  C   LIG    1        0.026   0.009   2.496  0.00  0.00    +0.560 C 
ATOM      9  N   LIG    1        0.047  -0.678   3.655  0.00  0.00    -0.520 N 
ATOM     10  H   LIG    1        0.059  -1.648   3.644  0.00  0.00    +0.430 HD
BRANCH   9  11
ATOM     11  N   LIG    1        0.050   0.008   4.877  0.00  0.00    -0.520 N 
ATOM     12  H   LIG    1        0.038   0.978   4.888  0.00  0.00    +0.430 HD
ATOM     13  C   LIG    1        0.070  -0.679   6.036  0.00  0.00    +0.540 C 
ATOM     14  O   LIG    1        0.086  -1.891   6.022  0.00  0.00    -0.530 OA
BRANCH  13  15
ATOM     15  C   LIG    1        0.074   0.060   7.350  0.00  0.00    -0.060 C 
ATOM     16  C   LIG    1        1.347  -0.009   8.195  0.00  0.00    +0.060 C 
ATOM     17  C   LIG    1        0.097  -0.777   8.630  0.00  0.00    +0.080 C 
ENDBRANCH  13  15
ENDBRANCH   9  11
ENDBRANCH   1   8
BRANCH   3  18
ATOM     18  S   LIG    1        0.061  -4.542  -0.040  0.00  0.00    +2.700 S 
ATOM     19  O   LIG    1        0.623  -4.953   1.199  0.00  0.00    -0.950 OA
ATOM     20  O   LIG    1        0.599  -4.919  -1.300  0.00  0.00    -0.950 OA
BRANCH  18  21
ATOM     21  N   LIG    1       -1.514  -5.053  -0.031  0.00  0.00    -1.110 NA
ATOM     22  H   LIG    1       -1.859  -5.550   0.727  0.00  0.00    +0.420 HD
BRANCH  21  23
ATOM     23  C   LIG    1       -2.387  -4.753  -1.169  0.00  0.00    +0.330 C 
BRANCH  23  24
ATOM     24  C   LIG    1       -3.621  -5.616  -1.096  0.00  0.00    -0.110 A 
ATOM     25  C   LIG    1       -3.636  -6.852  -1.714  0.00  0.00    +0.030 A 
ATOM     26  C   LIG    1       -4.766  -7.646  -1.643  0.00  0.00    +0.010 A 
ATOM     27  C   LIG    1       -5.884  -7.198  -0.964  0.00  0.00    +0.010 A 
ATOM     28  C   LIG    1       -5.870  -5.960  -0.351  0.00  0.00    +0.000 A 
ATOM     29  C   LIG    1       -4.738  -5.168  -0.417  0.00  0.00    +0.020 A 
ENDBRANCH  23  24
ENDBRANCH  21  23
ENDBRANCH  18  21
ENDBRANCH   3  18
BRANCH   6  30
ATOM     30  O   LIG    1       -0.016   1.352   0.009  0.00  0.00    -0.470 OA
ATOM     31  H   LIG    1        0.862   1.758   0.003  0.00  0.00    +0.410 HD
ENDBRANCH   6  30
TORSDOF 8
