REMARK  Name = ZINCpe00000MJLrS.0
REMARK                            x       y       z     vdW  Elec       q    Type
REMARK                         _______ _______ _______ _____ _____    ______ ____
ROOT
ATOM      1  C   LIG    1        4.049  -0.268   1.145  0.00  0.00    +0.240 C 
ATOM      2  N   LIG    1        3.732   0.385   2.427  0.00  0.00    -0.720 N 
ATOM      3  H   LIG    1        2.848   0.595   2.767  0.00  0.00    +0.440 HD
ATOM      4  C   LIG    1        4.907   0.632   3.034  0.00  0.00    +0.700 C 
ATOM      5  N   LIG    1        5.953   0.222   2.308  0.00  0.00    -0.580 N 
ATOM      6  O   LIG    1        5.006   1.168   4.120  0.00  0.00    -0.540 OA
ATOM      7  C   LIG    1        5.563  -0.338   1.146  0.00  0.00    +0.530 C 
ATOM      8  O   LIG    1        6.275  -0.803   0.282  0.00  0.00    -0.460 OA
ENDROOT
BRANCH   1   9
ATOM      9  C   LIG    1        3.550   0.578  -0.028  0.00  0.00    +0.170 C 
BRANCH   9  12
ATOM     10  N   LIG    1       -0.015   1.283   0.009  0.00  0.00    -0.290 N 
ATOM     11  C   LIG    1        1.264   1.724  -0.001  0.00  0.00    +0.160 A 
ATOM     12  C   LIG    1        2.044   0.619  -0.014  0.00  0.00    -0.030 A 
ATOM     13  N   LIG    1        1.215  -0.431  -0.012  0.00  0.00    -0.260 NA
ATOM     14  N   LIG    1        0.002  -0.004   0.002  0.00  0.00    -0.080 NA
BRANCH  10  15
ATOM     15  C   LIG    1       -1.214   2.125   0.020  0.00  0.00    +0.350 C 
BRANCH  15  16
ATOM     16  C   LIG    1       -2.113   1.747  -1.159  0.00  0.00    +0.180 C 
BRANCH  16  18
ATOM     17  C   LIG    1       -4.194   2.296  -2.215  0.00  0.00    +0.220 C 
ATOM     18  O   LIG    1       -3.282   2.569  -1.149  0.00  0.00    -0.390 OA
ENDBRANCH  16  18
ENDBRANCH  15  16
ENDBRANCH  10  15
ENDBRANCH   9  12
ENDBRANCH   1   9
BRANCH   5  19
ATOM     19  C   LIG    1        7.350   0.363   2.726  0.00  0.00    +0.320 C 
BRANCH  19  20
ATOM     20  C   LIG    1        7.775  -0.878   3.513  0.00  0.00    +0.060 C 
BRANCH  20  21
ATOM     21  C   LIG    1        9.213  -0.732   3.942  0.00  0.00    -0.090 A 
ATOM     22  C   LIG    1       10.228  -1.193   3.126  0.00  0.00    +0.010 A 
ATOM     23  C   LIG    1       11.547  -1.055   3.517  0.00  0.00    +0.000 A 
ATOM     24  C   LIG    1       11.849  -0.466   4.731  0.00  0.00    +0.000 A 
ATOM     25  C   LIG    1       10.833  -0.010   5.550  0.00  0.00    +0.000 A 
ATOM     26  C   LIG    1        9.515  -0.143   5.156  0.00  0.00    +0.010 A 
ENDBRANCH  20  21
ENDBRANCH  19  20
ENDBRANCH   5  19
TORSDOF 8
