REMARK  Name = ZINCvU00000009cZ.0
REMARK                            x       y       z     vdW  Elec       q    Type
REMARK                         _______ _______ _______ _____ _____    ______ ____
ROOT
ATOM      1  C   LIG    1       -4.895   3.495  -0.318  0.00  0.00    +0.260 C 
ENDROOT
BRANCH   1   2
ATOM      2  C   LIG    1       -5.125   3.681   1.160  0.00  0.00    -0.120 A 
ATOM      3  C   LIG    1       -4.713   2.709   2.052  0.00  0.00    +0.040 A 
ATOM      4  C   LIG    1       -4.920   2.881   3.408  0.00  0.00    +0.010 A 
ATOM      5  C   LIG    1       -5.547   4.023   3.871  0.00  0.00    +0.030 A 
ATOM      6  C   LIG    1       -5.964   4.993   2.979  0.00  0.00    +0.010 A 
ATOM      7  C   LIG    1       -5.753   4.822   1.623  0.00  0.00    +0.030 A 
ENDBRANCH   1   2
BRANCH   1   8
ATOM      8  C   LIG    1       -6.019   2.678  -0.902  0.00  0.00    +0.530 C 
ATOM      9  N   LIG    1       -7.274   3.170  -0.914  0.00  0.00    -0.660 N 
ATOM     10  H   LIG    1       -7.441   4.078  -0.617  0.00  0.00    +0.420 HD
ATOM     11  O   LIG    1       -5.794   1.579  -1.361  0.00  0.00    -0.480 OA
BRANCH   9  12
ATOM     12  C   LIG    1       -8.334   2.372  -1.356  0.00  0.00    +0.180 A 
ATOM     13  C   LIG    1       -9.411   2.948  -2.017  0.00  0.00    +0.020 A 
ATOM     14  C   LIG    1      -10.454   2.156  -2.457  0.00  0.00    -0.000 A 
ATOM     15  C   LIG    1      -10.433   0.791  -2.229  0.00  0.00    +0.030 A 
ATOM     16  C   LIG    1       -9.364   0.215  -1.566  0.00  0.00    -0.000 A 
ATOM     17 CL   LIG    1       -9.340  -1.498  -1.282  0.00  0.00    -0.050 Cl
ATOM     18 CL   LIG    1      -11.797   2.875  -3.290  0.00  0.00    -0.050 Cl
ATOM     19  C   LIG    1       -8.315   1.002  -1.128  0.00  0.00    +0.040 A 
ENDBRANCH   9  12
ENDBRANCH   1   8
BRANCH   1  20
ATOM     20  O   LIG    1       -3.635   2.804  -0.528  0.00  0.00    -0.320 OA
BRANCH  20  21
ATOM     21  C   LIG    1       -2.533   3.568  -0.661  0.00  0.00    +0.520 C 
ATOM     22  O   LIG    1       -2.623   4.779  -0.602  0.00  0.00    -0.490 OA
BRANCH  21  26
ATOM     23  C   LIG    1        1.249   1.755  -1.284  0.00  0.00    +0.310 A 
ATOM     24  C   LIG    1        0.115   0.959  -1.147  0.00  0.00    -0.050 A 
ATOM     25  C   LIG    1       -1.115   1.544  -0.950  0.00  0.00    +0.190 A 
ATOM     26  C   LIG    1       -1.220   2.936  -0.877  0.00  0.00    -0.180 A 
ATOM     27  C   LIG    1       -0.075   3.728  -1.015  0.00  0.00    +0.220 A 
ATOM     28  C   LIG    1        1.142   3.142  -1.216  0.00  0.00    -0.130 A 
BRANCH  23  29
ATOM     29  N   LIG    1        2.491   1.165  -1.489  0.00  0.00    -0.840 N 
ATOM     30  H   LIG    1        3.272   1.719  -1.639  0.00  0.00    +0.420 HD
ATOM     31  H   LIG    1        2.575   0.198  -1.481  0.00  0.00    +0.420 HD
ENDBRANCH  23  29
BRANCH  28  32
ATOM     32  N   LIG    1        2.351   3.983  -1.363  0.00  0.00    +0.040 N 
ATOM     33  O   LIG    1        3.219   3.669  -2.158  0.00  0.00    -0.180 OA
ATOM     34  O   LIG    1        2.478   4.990  -0.689  0.00  0.00    -0.140 OA
ENDBRANCH  28  32
ENDBRANCH  21  26
ENDBRANCH  20  21
ENDBRANCH   1  20
TORSDOF 8
