REMARK  Name = ZINCqH0000051C7l.0
REMARK                            x       y       z     vdW  Elec       q    Type
REMARK                         _______ _______ _______ _____ _____    ______ ____
ROOT
ATOM      1  O   LIG    1       -2.610   1.451  -2.055  0.00  0.00    -0.510 OA
ATOM      2  C   LIG    1       -1.645   0.785  -1.736  0.00  0.00    +0.570 C 
ATOM      3  N   LIG    1       -0.409   1.319  -1.791  0.00  0.00    -0.600 N 
ENDROOT
BRANCH   2   4
ATOM      4  C   LIG    1       -1.827  -0.610  -1.287  0.00  0.00    -0.130 A 
ATOM      5  C   LIG    1       -1.119  -1.088  -0.181  0.00  0.00    +0.070 A 
ATOM      6  C   LIG    1       -1.295  -2.388   0.238  0.00  0.00    +0.000 A 
ATOM      7  C   LIG    1       -2.169  -3.228  -0.444  0.00  0.00    +0.180 A 
ATOM      8  C   LIG    1       -2.872  -2.757  -1.548  0.00  0.00    +0.040 A 
ATOM      9  C   LIG    1       -2.704  -1.457  -1.970  0.00  0.00    +0.110 A 
BRANCH   7  10
ATOM     10  N   LIG    1       -2.341  -4.549  -0.019  0.00  0.00    -0.340 N 
ATOM     11  C   LIG    1       -1.731  -5.149   1.022  0.00  0.00    +0.500 A 
ATOM     12  N   LIG    1       -2.163  -6.383   1.088  0.00  0.00    -0.530 NA
ATOM     13  C   LIG    1       -3.037  -6.609   0.108  0.00  0.00    +0.440 A 
ATOM     14  N   LIG    1       -3.179  -5.517  -0.597  0.00  0.00    -0.310 NA
ENDBRANCH   7  10
ENDBRANCH   2   4
BRANCH   3  15
ATOM     15  C   LIG    1       -0.212   2.652  -2.365  0.00  0.00    +0.390 C 
BRANCH  15  16
ATOM     16  C   LIG    1       -0.069   2.540  -3.861  0.00  0.00    -0.200 A 
ATOM     17  C   LIG    1       -1.060   2.689  -4.741  0.00  0.00    +0.030 A 
ATOM     18  C   LIG    1       -0.689   2.541  -6.067  0.00  0.00    +0.000 A 
ATOM     19  C   LIG    1        0.602   2.271  -6.263  0.00  0.00    -0.050 A 
ATOM     20  S   LIG    1        1.431   2.199  -4.713  0.00  0.00    +0.100 S 
ENDBRANCH  15  16
ENDBRANCH   3  15
BRANCH   3  21
ATOM     21  C   LIG    1        0.738   0.565  -1.278  0.00  0.00    +0.380 C 
BRANCH  21  22
ATOM     22  C   LIG    1        1.465   1.395  -0.251  0.00  0.00    -0.040 A 
ATOM     23  C   LIG    1        1.282   1.337   1.080  0.00  0.00    -0.040 A 
ATOM     24  C   LIG    1        2.164   2.280   1.656  0.00  0.00    -0.060 A 
ATOM     25  C   LIG    1        2.834   2.857   0.643  0.00  0.00    +0.180 A 
ATOM     26  O   LIG    1        2.411   2.313  -0.510  0.00  0.00    -0.170 OA
ENDBRANCH  21  22
ENDBRANCH   3  21
TORSDOF 6
