REMARK  Name = ZINCfA000000baQf.0
REMARK                            x       y       z     vdW  Elec       q    Type
REMARK                         _______ _______ _______ _____ _____    ______ ____
ROOT
ATOM      1  C   LIG    1        1.874   1.540  -1.205  0.00  0.00    +0.230 C 
ATOM      2  C   LIG    1        1.988   1.502   0.321  0.00  0.00    +0.100 C 
ENDROOT
BRANCH   1   3
ATOM      3  C   LIG    1        0.712   2.414  -1.601  0.00  0.00    -0.130 A 
ATOM      4  C   LIG    1        0.855   3.789  -1.611  0.00  0.00    -0.010 A 
ATOM      5  C   LIG    1       -0.209   4.595  -1.973  0.00  0.00    +0.050 A 
ATOM      6  C   LIG    1       -1.418   4.027  -2.327  0.00  0.00    +0.020 A 
ATOM      7  C   LIG    1       -1.562   2.647  -2.321  0.00  0.00    +0.130 A 
ATOM      8  C   LIG    1       -0.495   1.841  -1.952  0.00  0.00    +0.020 A 
BRANCH   7   9
ATOM      9  O   LIG    1       -2.749   2.085  -2.673  0.00  0.00    -0.490 OA
ATOM     10  H   LIG    1       -3.358   1.956  -1.933  0.00  0.00    +0.400 HD
ENDBRANCH   7   9
ENDBRANCH   1   3
BRANCH   1  11
ATOM     11  N   LIG    1        3.113   2.085  -1.775  0.00  0.00    -0.500 N 
ATOM     12  H   LIG    1        3.305   2.986  -1.363  0.00  0.00    +0.420 HD
ATOM     13  H   LIG    1        3.008   2.187  -2.773  0.00  0.00    +0.430 HD
BRANCH  11  14
ATOM     14  C   LIG    1        4.227   1.169  -1.490  0.00  0.00    +0.300 C 
BRANCH  14  17
ATOM     15  C   LIG    1        5.819  -0.418  -3.194  0.00  0.00    +0.090 C 
ATOM     16  C   LIG    1        6.202   1.013  -2.917  0.00  0.00    -0.030 C 
ATOM     17  C   LIG    1        5.498   1.728  -2.075  0.00  0.00    -0.130 C 
ATOM     18  C   LIG    1        7.395   1.621  -3.609  0.00  0.00    +0.110 C 
ENDBRANCH  14  17
ENDBRANCH  11  14
ENDBRANCH   1  11
TORSDOF 5
