REMARK  Name = ZINCqH00000087rI.0
REMARK                            x       y       z     vdW  Elec       q    Type
REMARK                         _______ _______ _______ _____ _____    ______ ____
ROOT
ATOM      1  N   LIG    1       -6.203  -1.812   0.036  0.00  0.00    -0.600 N 
ATOM      2  C   LIG    1       -5.021  -2.453  -0.042  0.00  0.00    +0.570 C 
ATOM      3  O   LIG    1       -4.985  -3.668  -0.011  0.00  0.00    -0.530 OA
ATOM      4  C   LIG    1       -6.254  -0.352  -0.081  0.00  0.00    +0.290 C 
ENDROOT
BRANCH   2   5
ATOM      5  C   LIG    1       -3.769  -1.681  -0.166  0.00  0.00    -0.160 A 
ATOM      6  C   LIG    1       -2.582  -2.178   0.380  0.00  0.00    +0.120 A 
ATOM      7  C   LIG    1       -1.417  -1.454   0.263  0.00  0.00    +0.000 A 
ATOM      8  C   LIG    1       -1.420  -0.230  -0.396  0.00  0.00    +0.130 A 
ATOM      9  C   LIG    1       -2.599   0.271  -0.935  0.00  0.00    -0.060 A 
ATOM     10  C   LIG    1       -3.768  -0.450  -0.828  0.00  0.00    +0.090 A 
BRANCH   8  11
ATOM     11  O   LIG    1       -0.269   0.481  -0.509  0.00  0.00    -0.320 OA
BRANCH  11  12
ATOM     12  C   LIG    1       -0.343   1.730  -1.198  0.00  0.00    +0.600 C 
ATOM     13  F   LIG    1       -1.243   2.574  -0.538  0.00  0.00    -0.200 F 
ATOM     14  F   LIG    1       -0.782   1.515  -2.509  0.00  0.00    -0.200 F 
ENDBRANCH  11  12
ENDBRANCH   8  11
ENDBRANCH   2   5
BRANCH   1  15
ATOM     15  C   LIG    1       -7.438  -2.574   0.238  0.00  0.00    +0.340 C 
BRANCH  15  18
ATOM     16  N   LIG    1       -8.793  -3.386   2.142  0.00  0.00    -0.670 N 
ATOM     17  H   LIG    1       -9.440  -3.719   1.500  0.00  0.00    +0.410 HD
ATOM     18  C   LIG    1       -7.704  -2.717   1.715  0.00  0.00    +0.500 C 
ATOM     19  O   LIG    1       -6.937  -2.230   2.519  0.00  0.00    -0.510 OA
BRANCH  16  25
ATOM     20  C   LIG    1       -9.631  -4.758   3.955  0.00  0.00    -0.110 A 
ATOM     21  C   LIG    1       -9.820  -4.965   5.314  0.00  0.00    +0.010 A 
ATOM     22  C   LIG    1       -9.384  -4.019   6.224  0.00  0.00    +0.010 A 
ATOM     23  C   LIG    1       -8.756  -2.869   5.785  0.00  0.00    +0.030 A 
ATOM     24  C   LIG    1       -8.559  -2.657   4.433  0.00  0.00    +0.040 A 
ATOM     25  C   LIG    1       -8.992  -3.599   3.513  0.00  0.00    +0.170 A 
BRANCH  20  27
ATOM     26  C   LIG    1      -10.932  -7.234   3.847  0.00  0.00    +0.150 C 
ATOM     27  S   LIG    1      -10.191  -5.957   2.792  0.00  0.00    -0.120 S 
ENDBRANCH  20  27
ENDBRANCH  16  25
ENDBRANCH  15  18
ENDBRANCH   1  15
TORSDOF 7
