REMARK  Name = ZINCpk00000xL0rA.0
REMARK                            x       y       z     vdW  Elec       q    Type
REMARK                         _______ _______ _______ _____ _____    ______ ____
ROOT
ATOM      1  C   LIG    1       -0.966   1.254  -1.335  0.00  0.00    +0.220 C 
ATOM      2  C   LIG    1       -0.219   0.512  -0.207  0.00  0.00    +0.060 C 
ATOM      3  C   LIG    1       -0.878   1.072   1.081  0.00  0.00    +0.040 C 
ATOM      4  C   LIG    1       -2.350   1.253   0.617  0.00  0.00    +0.270 C 
ATOM      5  N   LIG    1       -2.253   1.702  -0.784  0.00  0.00    -0.600 N 
ATOM      6  C   LIG    1       -3.190   2.407  -1.449  0.00  0.00    +0.590 C 
ATOM      7  O   LIG    1       -4.239   2.689  -0.904  0.00  0.00    -0.520 OA
ENDROOT
BRANCH   6   8
ATOM      8  C   LIG    1       -2.941   2.836  -2.839  0.00  0.00    -0.150 A 
ATOM      9  C   LIG    1       -1.691   2.626  -3.426  0.00  0.00    +0.040 A 
ATOM     10  C   LIG    1       -1.466   3.029  -4.725  0.00  0.00    +0.000 A 
ATOM     11  C   LIG    1       -2.472   3.643  -5.451  0.00  0.00    +0.050 A 
ATOM     12  C   LIG    1       -3.713   3.857  -4.883  0.00  0.00    -0.010 A 
ATOM     13  C   LIG    1       -3.959   3.453  -3.579  0.00  0.00    +0.170 A 
BRANCH  13  14
ATOM     14  O   LIG    1       -5.178   3.658  -3.021  0.00  0.00    -0.480 OA
ATOM     15  H   LIG    1       -5.266   4.508  -2.568  0.00  0.00    +0.400 HD
ENDBRANCH  13  14
ENDBRANCH   6   8
BRANCH   1  18
ATOM     16  N   LIG    1       -0.149  -0.221  -3.144  0.00  0.00    -0.720 N 
ATOM     17  H   LIG    1        0.756  -0.011  -2.864  0.00  0.00    +0.400 HD
ATOM     18  C   LIG    1       -1.198   0.322  -2.496  0.00  0.00    +0.500 C 
ATOM     19  O   LIG    1       -2.329   0.060  -2.847  0.00  0.00    -0.510 OA
BRANCH  16  20
ATOM     20  C   LIG    1       -0.374  -1.127  -4.273  0.00  0.00    +0.350 C 
BRANCH  20  26
ATOM     21  C   LIG    1        3.479  -0.393  -7.194  0.00  0.00    +0.180 C 
ATOM     22  C   LIG    1        2.767  -1.257  -6.186  0.00  0.00    +0.320 A 
ATOM     23  N   LIG    1        3.322  -2.391  -5.807  0.00  0.00    -0.510 NA
ATOM     24  C   LIG    1        2.726  -3.176  -4.923  0.00  0.00    +0.330 A 
ATOM     25  C   LIG    1        1.507  -2.788  -4.392  0.00  0.00    -0.070 A 
ATOM     26  C   LIG    1        0.952  -1.591  -4.818  0.00  0.00    +0.160 A 
ATOM     27  N   LIG    1        1.606  -0.859  -5.705  0.00  0.00    -0.500 NA
ENDBRANCH  20  26
ENDBRANCH  16  20
ENDBRANCH   1  18
TORSDOF 5
