REMARK  Name = ZINCrH00000No4z3.0
REMARK                            x       y       z     vdW  Elec       q    Type
REMARK                         _______ _______ _______ _____ _____    ______ ____
ROOT
ATOM      1  C   LIG    1       -4.091   1.496  -3.647  0.00  0.00    +0.190 A 
ATOM      2  C   LIG    1       -5.268   1.259  -4.294  0.00  0.00    -0.080 A 
ATOM      3  C   LIG    1       -6.480   1.326  -3.584  0.00  0.00    +0.060 A 
ATOM      4  C   LIG    1       -6.485   1.622  -2.269  0.00  0.00    +0.040 A 
ATOM      5  N   LIG    1       -5.311   1.863  -1.602  0.00  0.00    -0.350 N 
ATOM      6  C   LIG    1       -5.042   2.172  -0.298  0.00  0.00    +0.170 A 
ATOM      7  C   LIG    1       -3.672   2.307  -0.195  0.00  0.00    +0.060 A 
ATOM      8  N   LIG    1       -3.139   2.074  -1.408  0.00  0.00    -0.430 NA
ATOM      9  C   LIG    1       -7.793   1.689  -1.525  0.00  0.00    +0.130 C 
ATOM     10  C   LIG    1       -4.109   1.806  -2.266  0.00  0.00    +0.210 A 
ENDROOT
BRANCH   7  11
ATOM     11  C   LIG    1       -2.921   2.642   1.037  0.00  0.00    -0.060 A 
ATOM     12  C   LIG    1       -2.351   3.909   1.199  0.00  0.00    -0.020 A 
ATOM     13  C   LIG    1       -1.663   4.174   2.371  0.00  0.00    -0.040 A 
ATOM     14  C   LIG    1       -1.558   3.186   3.332  0.00  0.00    +0.270 A 
ATOM     15  N   LIG    1       -2.102   1.998   3.150  0.00  0.00    -0.490 NA
ATOM     16  C   LIG    1       -2.487   4.960   0.128  0.00  0.00    +0.100 C 
ATOM     17  C   LIG    1       -2.765   1.698   2.052  0.00  0.00    +0.160 A 
ATOM     18  C   LIG    1       -3.368   0.326   1.894  0.00  0.00    +0.130 C 
ENDBRANCH   7  11
BRANCH   1  20
ATOM     19  C   LIG    1       -2.977   1.115  -5.713  0.00  0.00    +0.250 C 
ATOM     20  O   LIG    1       -2.912   1.434  -4.322  0.00  0.00    -0.290 OA
ENDBRANCH   1  20
BRANCH   6  21
ATOM     21  N   LIG    1       -5.972   2.325   0.730  0.00  0.00    -0.590 N 
ATOM     22  H   LIG    1       -6.863   2.629   0.369  0.00  0.00    +0.350 HD
BRANCH  21  23
ATOM     23  C   LIG    1       -5.475   3.251   1.756  0.00  0.00    +0.210 C 
BRANCH  23  24
ATOM     24  C   LIG    1       -6.614   3.612   2.712  0.00  0.00    -0.040 C 
ATOM     25  C   LIG    1       -6.134   4.612   3.792  0.00  0.00    +0.010 C 
ATOM     26  C   LIG    1       -6.799   4.115   5.090  0.00  0.00    +0.200 C 
ATOM     27  O   LIG    1       -7.611   2.980   4.747  0.00  0.00    -0.380 OA
ATOM     28  C   LIG    1       -7.028   2.386   3.567  0.00  0.00    +0.230 C 
ENDBRANCH  23  24
ENDBRANCH  21  23
ENDBRANCH   6  21
TORSDOF 5
