REMARK  Name = ZINCrD000006OIxk.0
REMARK                            x       y       z     vdW  Elec       q    Type
REMARK                         _______ _______ _______ _____ _____    ______ ____
ROOT
ATOM      1  N   LIG    1       -5.098   3.878   0.221  0.00  0.00    -0.490 N 
ATOM      2  C   LIG    1       -5.934   3.466  -0.914  0.00  0.00    +0.190 C 
ATOM      3  C   LIG    1       -7.290   4.174  -0.829  0.00  0.00    +0.300 C 
ATOM      4  N   LIG    1       -7.055   5.622  -0.724  0.00  0.00    -0.600 N 
ATOM      5  C   LIG    1       -6.120   6.103   0.304  0.00  0.00    +0.310 C 
ATOM      6  C   LIG    1       -7.681   6.486  -1.548  0.00  0.00    +0.590 C 
ATOM      7  O   LIG    1       -7.545   7.683  -1.390  0.00  0.00    -0.520 OA
ATOM      8  C   LIG    1       -4.809   5.318   0.174  0.00  0.00    +0.190 C 
ENDROOT
BRANCH   6   9
ATOM      9  C   LIG    1       -8.531   5.976  -2.646  0.00  0.00    +0.130 A 
ATOM     10  N   LIG    1       -9.737   5.500  -2.386  0.00  0.00    -0.450 NA
ATOM     11  C   LIG    1      -10.537   5.033  -3.327  0.00  0.00    +0.240 A 
ATOM     12  C   LIG    1      -10.172   5.010  -4.644  0.00  0.00    +0.020 A 
ATOM     13  C   LIG    1       -8.905   5.499  -5.005  0.00  0.00    -0.030 A 
ATOM     14  C   LIG    1       -8.458   5.509  -6.334  0.00  0.00    +0.030 A 
ATOM     15  C   LIG    1       -7.225   6.011  -6.623  0.00  0.00    +0.040 A 
ATOM     16  C   LIG    1       -6.395   6.500  -5.616  0.00  0.00    +0.020 A 
ATOM     17  C   LIG    1       -6.796   6.500  -4.313  0.00  0.00    +0.040 A 
ATOM     18  C   LIG    1       -8.061   6.002  -3.979  0.00  0.00    -0.080 A 
ENDBRANCH   6   9
BRANCH   1  22
ATOM     19  C   LIG    1       -1.590   1.663   0.368  0.00  0.00    -0.200 A 
ATOM     20  C   LIG    1       -1.536   3.062   0.323  0.00  0.00    +0.090 A 
ATOM     21  C   LIG    1       -2.692   3.787   0.270  0.00  0.00    -0.060 A 
ATOM     22  C   LIG    1       -3.924   3.137   0.270  0.00  0.00    +0.150 A 
ATOM     23  C   LIG    1       -3.983   1.746   0.319  0.00  0.00    -0.030 A 
ATOM     24  C   LIG    1       -2.831   1.014   0.368  0.00  0.00    +0.110 A 
BRANCH  19  26
ATOM     25  C   LIG    1        0.985   1.580   0.414  0.00  0.00    +0.060 C 
ATOM     26  C   LIG    1       -0.350   0.880   0.420  0.00  0.00    +0.390 C 
ATOM     27  O   LIG    1       -0.399  -0.331   0.463  0.00  0.00    -0.460 OA
ENDBRANCH  19  26
ENDBRANCH   1  22
TORSDOF 3
