REMARK  Name = ZINCrH00000tj0TX.0
REMARK                            x       y       z     vdW  Elec       q    Type
REMARK                         _______ _______ _______ _____ _____    ______ ____
ROOT
ATOM      1  C   LIG    1        0.718  -0.497  -1.257  0.00  0.00    +0.160 C 
ENDROOT
BRANCH   1  10
ATOM      2  N   LIG    1       -0.222  -2.794  -1.818  0.00  0.00    -0.480 N 
ATOM      3  C   LIG    1        0.161  -4.105  -1.619  0.00  0.00    +0.050 A 
ATOM      4  C   LIG    1       -0.394  -5.334  -1.948  0.00  0.00    +0.010 A 
ATOM      5  C   LIG    1        0.260  -6.496  -1.595  0.00  0.00    +0.030 A 
ATOM      6  C   LIG    1        1.466  -6.443  -0.912  0.00  0.00    +0.000 A 
ATOM      7  C   LIG    1        2.027  -5.242  -0.579  0.00  0.00    +0.070 A 
ATOM      8  C   LIG    1        1.383  -4.053  -0.928  0.00  0.00    +0.050 A 
ATOM      9  N   LIG    1        1.680  -2.740  -0.750  0.00  0.00    -0.490 NA
ATOM     10  C   LIG    1        0.739  -2.004  -1.265  0.00  0.00    +0.290 A 
BRANCH   2  11
ATOM     11  C   LIG    1       -1.436  -2.337  -2.497  0.00  0.00    +0.350 C 
BRANCH  11  13
ATOM     12  C   LIG    1       -1.427  -3.133  -4.805  0.00  0.00    +0.060 C 
ATOM     13  C   LIG    1       -1.155  -2.163  -3.967  0.00  0.00    -0.160 C 
ATOM     14  C   LIG    1       -0.560  -0.874  -4.474  0.00  0.00    +0.090 C 
ENDBRANCH  11  13
ENDBRANCH   2  11
ENDBRANCH   1  10
BRANCH   1  15
ATOM     15  C   LIG    1        0.002  -0.004   0.002  0.00  0.00    +0.020 C 
BRANCH  15  16
ATOM     16  C   LIG    1       -0.019   1.526   0.010  0.00  0.00    +0.270 C 
BRANCH  16  17
ATOM     17  N   LIG    1       -0.704   1.998   1.216  0.00  0.00    -0.730 N 
ATOM     18  H   LIG    1       -1.058   1.359   1.854  0.00  0.00    +0.400 HD
ATOM     19  C   LIG    1       -0.843   3.320   1.438  0.00  0.00    +0.520 C 
ATOM     20  O   LIG    1       -0.401   4.119   0.639  0.00  0.00    -0.510 OA
BRANCH  19  21
ATOM     21  C   LIG    1       -1.549   3.806   2.677  0.00  0.00    +0.220 C 
BRANCH  21  22
ATOM     22  O   LIG    1       -1.568   5.235   2.685  0.00  0.00    -0.290 OA
BRANCH  22  23
ATOM     23  C   LIG    1       -2.172   5.838   3.743  0.00  0.00    +0.130 A 
ATOM     24  C   LIG    1       -2.739   5.071   4.750  0.00  0.00    -0.080 A 
ATOM     25  C   LIG    1       -3.348   5.686   5.827  0.00  0.00    +0.050 A 
ATOM     26  C   LIG    1       -3.401   7.066   5.896  0.00  0.00    -0.030 A 
ATOM     27  C   LIG    1       -2.841   7.833   4.891  0.00  0.00    +0.050 A 
ATOM     28  C   LIG    1       -2.227   7.223   3.815  0.00  0.00    -0.020 A 
ENDBRANCH  22  23
ENDBRANCH  21  22
ENDBRANCH  19  21
ENDBRANCH  16  17
ENDBRANCH  15  16
ENDBRANCH   1  15
TORSDOF 9
