REMARK  Name = ZINCnE000001H2S1.0
REMARK                            x       y       z     vdW  Elec       q    Type
REMARK                         _______ _______ _______ _____ _____    ______ ____
ROOT
ATOM      1  S   LIG    1        1.232  -2.441  -0.024  0.00  0.00    +2.610 S 
ATOM      2  O   LIG    1       -0.125  -2.860  -0.048  0.00  0.00    -1.020 OA
ATOM      3  O   LIG    1        2.150  -2.835   0.987  0.00  0.00    -1.000 OA
ENDROOT
BRANCH   1   4
ATOM      4  C   LIG    1        1.208  -0.679  -0.014  0.00  0.00    -0.580 A 
ATOM      5  C   LIG    1        0.002  -0.004   0.002  0.00  0.00    +0.120 A 
ATOM      6  C   LIG    1       -0.017   1.378   0.010  0.00  0.00    +0.020 A 
ATOM      7  C   LIG    1        1.171   2.086   0.002  0.00  0.00    +0.050 A 
ATOM      8  C   LIG    1        2.377   1.411  -0.014  0.00  0.00    +0.040 A 
ATOM      9  C   LIG    1        2.396   0.029  -0.022  0.00  0.00    -0.080 A 
BRANCH   9  10
ATOM     10  C   LIG    1        3.711  -0.707  -0.039  0.00  0.00    +0.470 C 
ATOM     11  F   LIG    1        3.785  -1.504  -1.187  0.00  0.00    -0.130 F 
ATOM     12  F   LIG    1        3.808  -1.517   1.097  0.00  0.00    -0.140 F 
ATOM     13  F   LIG    1        4.762   0.217  -0.045  0.00  0.00    -0.190 F 
ENDBRANCH   9  10
ENDBRANCH   1   4
BRANCH   1  14
ATOM     14  N   LIG    1        1.893  -2.913  -1.467  0.00  0.00    -1.030 NA
BRANCH  14  17
ATOM     15  C   LIG    1        2.499  -6.091  -2.725  0.00  0.00    +0.150 A 
ATOM     16  N   LIG    1        2.553  -4.791  -2.886  0.00  0.00    -0.490 NA
ATOM     17  C   LIG    1        2.039  -4.264  -1.754  0.00  0.00    +0.470 A 
ATOM     18  N   LIG    1        1.698  -5.262  -0.983  0.00  0.00    -0.510 NA
ATOM     19  O   LIG    1        1.956  -6.316  -1.525  0.00  0.00    +0.040 OA
BRANCH  15  20
ATOM     20  C   LIG    1        2.957  -7.135  -3.711  0.00  0.00    +0.120 C 
ATOM     21  C   LIG    1        1.773  -8.020  -4.104  0.00  0.00    +0.040 C 
BRANCH  20  23
ATOM     22  C   LIG    1        4.601  -8.974  -4.109  0.00  0.00    +0.030 C 
ATOM     23  C   LIG    1        4.048  -7.996  -3.071  0.00  0.00    +0.020 C 
ENDBRANCH  20  23
ENDBRANCH  15  20
ENDBRANCH  14  17
ENDBRANCH   1  14
TORSDOF 6
