REMARK  Name = ZINCrH00000No4Sk.0
REMARK                            x       y       z     vdW  Elec       q    Type
REMARK                         _______ _______ _______ _____ _____    ______ ____
ROOT
ATOM      1  C   LIG    1       -0.189  -0.180  -0.507  0.00  0.00    +0.630 C 
ATOM      2  N   LIG    1        0.708  -0.988  -0.997  0.00  0.00    -0.790 NA
ATOM      3  H   LIG    1        0.609  -1.947  -0.885  0.00  0.00    +0.340 HD
ENDROOT
BRANCH   1   4
ATOM      4  N   LIG    1       -0.123   1.166  -0.779  0.00  0.00    -0.700 N 
ATOM      5  H   LIG    1       -0.793   1.768  -0.418  0.00  0.00    +0.400 HD
BRANCH   4   6
ATOM      6  C   LIG    1        0.956   1.692  -1.619  0.00  0.00    +0.370 C 
BRANCH   6  12
ATOM      7  C   LIG    1        0.055   3.708  -2.805  0.00  0.00    +0.190 A 
ATOM      8  C   LIG    1       -0.091   5.083  -2.930  0.00  0.00    -0.120 A 
ATOM      9  C   LIG    1        0.516   5.929  -2.022  0.00  0.00    +0.100 A 
ATOM     10  C   LIG    1        1.265   5.409  -0.984  0.00  0.00    -0.120 A 
ATOM     11  C   LIG    1        1.409   4.035  -0.851  0.00  0.00    +0.190 A 
ATOM     12  C   LIG    1        0.801   3.184  -1.761  0.00  0.00    -0.190 A 
BRANCH   7  14
ATOM     13  C   LIG    1       -1.292   3.486  -4.752  0.00  0.00    +0.250 C 
ATOM     14  O   LIG    1       -0.538   2.877  -3.702  0.00  0.00    -0.310 OA
ENDBRANCH   7  14
BRANCH  11  15
ATOM     15  O   LIG    1        2.146   3.524   0.170  0.00  0.00    -0.310 OA
ATOM     16  C   LIG    1        2.744   4.460   1.070  0.00  0.00    +0.250 C 
ENDBRANCH  11  15
ENDBRANCH   6  12
ENDBRANCH   4   6
ENDBRANCH   1   4
BRANCH   1  17
ATOM     17  N   LIG    1       -1.204  -0.674   0.283  0.00  0.00    -0.660 N 
ATOM     18  H   LIG    1       -1.919  -0.088   0.576  0.00  0.00    +0.410 HD
BRANCH  17  19
ATOM     19  C   LIG    1       -1.203  -2.010   0.659  0.00  0.00    +0.310 A 
ATOM     20  N   LIG    1       -2.260  -2.738   0.843  0.00  0.00    -0.490 NA
ATOM     21  C   LIG    1       -2.067  -4.001   1.200  0.00  0.00    +0.130 A 
ATOM     22  C   LIG    1       -0.782  -4.371   1.337  0.00  0.00    -0.080 A 
ATOM     23  S   LIG    1        0.235  -2.979   0.970  0.00  0.00    +0.130 S 
BRANCH  21  24
ATOM     24  C   LIG    1       -3.191  -4.939   1.437  0.00  0.00    -0.030 A 
ATOM     25  C   LIG    1       -2.935  -6.257   1.810  0.00  0.00    +0.070 A 
ATOM     26  C   LIG    1       -3.985  -7.125   2.034  0.00  0.00    -0.010 A 
ATOM     27  C   LIG    1       -5.291  -6.690   1.878  0.00  0.00    +0.110 A 
ATOM     28  C   LIG    1       -5.550  -5.382   1.502  0.00  0.00    -0.020 A 
ATOM     29  F   LIG    1       -6.315  -7.544   2.094  0.00  0.00    -0.140 F 
ATOM     30  C   LIG    1       -4.507  -4.506   1.281  0.00  0.00    +0.080 A 
ENDBRANCH  21  24
ENDBRANCH  17  19
ENDBRANCH   1  17
TORSDOF 8
