REMARK  Name = ZINCrD00000l0uEe.0
REMARK                            x       y       z     vdW  Elec       q    Type
REMARK                         _______ _______ _______ _____ _____    ______ ____
ROOT
ATOM      1  C   LIG    1       -2.106   4.045   0.042  0.00  0.00    +0.500 A 
ATOM      2  C   LIG    1       -0.993   3.188   0.028  0.00  0.00    -0.320 A 
ATOM      3  S   LIG    1        0.732   3.519   0.013  0.00  0.00    +0.150 S 
ATOM      4  C   LIG    1        1.109   1.804   0.001  0.00  0.00    -0.080 A 
ATOM      5  C   LIG    1       -0.013   1.076   0.008  0.00  0.00    +0.040 A 
ATOM      6  C   LIG    1       -1.207   1.806   0.017  0.00  0.00    +0.200 A 
ATOM      7  N   LIG    1       -2.487   1.366   0.021  0.00  0.00    -0.540 NA
ATOM      8  C   LIG    1       -3.492   2.205   0.030  0.00  0.00    +0.550 A 
ATOM      9  N   LIG    1       -3.324   3.515   0.036  0.00  0.00    -0.570 NA
ENDROOT
BRANCH   4  10
ATOM     10  C   LIG    1        2.477   1.243  -0.015  0.00  0.00    -0.040 A 
ATOM     11  C   LIG    1        2.667  -0.140  -0.018  0.00  0.00    +0.080 A 
ATOM     12  C   LIG    1        3.945  -0.658  -0.039  0.00  0.00    -0.010 A 
ATOM     13  C   LIG    1        5.040   0.192  -0.045  0.00  0.00    +0.110 A 
ATOM     14  C   LIG    1        4.857   1.566  -0.036  0.00  0.00    -0.010 A 
ATOM     15  F   LIG    1        6.290  -0.321  -0.058  0.00  0.00    -0.130 F 
ATOM     16  C   LIG    1        3.583   2.094  -0.021  0.00  0.00    +0.060 A 
ENDBRANCH   4  10
BRANCH   1  17
ATOM     17  N   LIG    1       -1.936   5.420   0.048  0.00  0.00    -0.700 N 
ATOM     18  H   LIG    1       -1.042   5.798   0.042  0.00  0.00    +0.410 HD
BRANCH  17  22
ATOM     19  N   LIG    1       -4.520   8.652  -0.629  0.00  0.00    -1.000 NA
ATOM     20  C   LIG    1       -3.951   8.558   0.723  0.00  0.00    +0.310 C 
ATOM     21  C   LIG    1       -2.718   7.650   0.677  0.00  0.00    +0.010 C 
ATOM     22  C   LIG    1       -3.105   6.303   0.063  0.00  0.00    +0.260 C 
ATOM     23  C   LIG    1       -3.600   6.517  -1.369  0.00  0.00    +0.000 C 
ATOM     24  C   LIG    1       -4.843   7.412  -1.347  0.00  0.00    +0.300 C 
BRANCH  19  26
ATOM     25  C   LIG    1       -3.247  10.505  -2.204  0.00  0.00    -0.280 C 
ATOM     26  S   LIG    1       -4.791  10.128  -1.330  0.00  0.00    +2.610 S 
ATOM     27  O   LIG    1       -4.970  11.010  -0.230  0.00  0.00    -0.950 OA
ATOM     28  O   LIG    1       -5.842   9.888  -2.255  0.00  0.00    -0.950 OA
ENDBRANCH  19  26
ENDBRANCH  17  22
ENDBRANCH   1  17
TORSDOF 4
