REMARK  Name = ZINCrg00001JduT6.0
REMARK                            x       y       z     vdW  Elec       q    Type
REMARK                         _______ _______ _______ _____ _____    ______ ____
ROOT
ATOM      1  C   LIG    1       -1.456   1.575   6.914  0.00  0.00    +0.030 A 
ATOM      2  C   LIG    1       -2.793   1.304   7.198  0.00  0.00    +0.050 A 
ATOM      3  C   LIG    1       -3.136   0.731   8.406  0.00  0.00    +0.130 A 
ATOM      4  C   LIG    1       -2.158   0.436   9.338  0.00  0.00    -0.660 A 
ATOM      5  C   LIG    1       -0.830   0.708   9.063  0.00  0.00    +0.130 A 
ATOM      6  C   LIG    1       -0.474   1.276   7.856  0.00  0.00    +0.040 A 
ENDROOT
BRANCH   1   9
ATOM      7  C   LIG    1       -1.165   3.027   3.670  0.00  0.00    +0.200 A 
ATOM      8  N   LIG    1       -1.923   2.527   4.614  0.00  0.00    -0.460 NA
ATOM      9  C   LIG    1       -1.080   2.186   5.615  0.00  0.00    +0.200 A 
ATOM     10  N   LIG    1        0.128   2.497   5.224  0.00  0.00    -0.360 NA
ATOM     11  O   LIG    1        0.096   2.974   4.109  0.00  0.00    +0.110 OA
BRANCH   7  17
ATOM     12  N   LIG    1       -0.749   3.048   1.275  0.00  0.00    -0.530 NA
ATOM     13  C   LIG    1       -1.155   3.577  -0.035  0.00  0.00    +0.170 C 
ATOM     14  C   LIG    1       -1.105   5.106  -0.000  0.00  0.00    +0.240 C 
ATOM     15  O   LIG    1       -1.941   5.582   1.058  0.00  0.00    -0.370 OA
ATOM     16  C   LIG    1       -1.573   5.087   2.349  0.00  0.00    +0.250 C 
ATOM     17  C   LIG    1       -1.628   3.557   2.337  0.00  0.00    +0.240 C 
BRANCH  12  19
ATOM     18  C   LIG    1       -0.013   1.086   0.008  0.00  0.00    +0.040 C 
ATOM     19  C   LIG    1       -0.729   1.579   1.267  0.00  0.00    +0.160 C 
ENDBRANCH  12  19
ENDBRANCH   7  17
ENDBRANCH   1   9
BRANCH   4  20
ATOM     20  S   LIG    1       -2.604  -0.288  10.881  0.00  0.00    +2.700 S 
ATOM     21  O   LIG    1       -1.447  -0.961  11.358  0.00  0.00    -0.950 OA
ATOM     22  O   LIG    1       -3.851  -0.937  10.673  0.00  0.00    -0.950 OA
BRANCH  20  23
ATOM     23  N   LIG    1       -2.893   0.952  11.939  0.00  0.00    -1.110 NA
ATOM     24  H   LIG    1       -2.320   1.073  12.713  0.00  0.00    +0.420 HD
BRANCH  23  25
ATOM     25  C   LIG    1       -4.013   1.867  11.707  0.00  0.00    +0.300 C 
BRANCH  25  26
ATOM     26  C   LIG    1       -4.292   2.666  12.983  0.00  0.00    +0.180 C 
BRANCH  26  27
ATOM     27  O   LIG    1       -3.172   3.505  13.273  0.00  0.00    -0.390 OA
ATOM     28  C   LIG    1       -3.331   4.298  14.452  0.00  0.00    +0.200 C 
ENDBRANCH  26  27
ENDBRANCH  25  26
ENDBRANCH  23  25
ENDBRANCH  20  23
ENDBRANCH   4  20
TORSDOF 8
