REMARK  Name = ZINCrD00000s9ffj.0
REMARK                            x       y       z     vdW  Elec       q    Type
REMARK                         _______ _______ _______ _____ _____    ______ ____
ROOT
ATOM      1  C   LIG    1       -3.389   6.396   1.677  0.00  0.00    +0.150 C 
ATOM      2  C   LIG    1       -2.397   6.901   2.751  0.00  0.00    +0.080 C 
ATOM      3  C   LIG    1       -1.083   6.998   1.944  0.00  0.00    +0.270 C 
ATOM      4  N   LIG    1       -1.228   6.040   0.842  0.00  0.00    -0.610 N 
ATOM      5  C   LIG    1       -2.514   5.694   0.662  0.00  0.00    +0.510 C 
ATOM      6  O   LIG    1       -2.915   4.927  -0.188  0.00  0.00    -0.490 OA
ENDROOT
BRANCH   4   7
ATOM      7  C   LIG    1       -0.115   5.532   0.036  0.00  0.00    +0.310 C 
ATOM      8  C   LIG    1       -0.275   6.004  -1.410  0.00  0.00    +0.030 C 
BRANCH   7   9
ATOM      9  C   LIG    1       -0.114   4.025   0.076  0.00  0.00    -0.100 A 
ATOM     10  C   LIG    1       -0.399   3.365   1.257  0.00  0.00    +0.050 A 
ATOM     11  C   LIG    1       -0.398   1.983   1.294  0.00  0.00    -0.010 A 
ATOM     12  C   LIG    1       -0.111   1.260   0.148  0.00  0.00    +0.100 A 
ATOM     13  C   LIG    1        0.179   1.923  -1.032  0.00  0.00    -0.010 A 
ATOM     14  F   LIG    1       -0.110  -0.090   0.184  0.00  0.00    -0.140 F 
ATOM     15  C   LIG    1        0.173   3.304  -1.069  0.00  0.00    +0.060 A 
ENDBRANCH   7   9
ENDBRANCH   4   7
BRANCH   1  16
ATOM     16  O   LIG    1       -4.069   7.496   1.068  0.00  0.00    -0.290 OA
BRANCH  16  21
ATOM     17  C   LIG    1       -7.234   5.819   0.384  0.00  0.00    -0.100 A 
ATOM     18  C   LIG    1       -7.989   6.890  -0.097  0.00  0.00    +0.010 A 
ATOM     19  C   LIG    1       -7.426   8.147  -0.182  0.00  0.00    +0.050 A 
ATOM     20  C   LIG    1       -6.117   8.351   0.213  0.00  0.00    +0.020 A 
ATOM     21  C   LIG    1       -5.357   7.291   0.687  0.00  0.00    +0.120 A 
ATOM     22  C   LIG    1       -5.912   6.026   0.776  0.00  0.00    +0.000 A 
BRANCH  17  25
ATOM     23  N   LIG    1       -9.112   4.274   0.097  0.00  0.00    -0.730 N 
ATOM     24  H   LIG    1       -9.639   5.017  -0.238  0.00  0.00    +0.400 HD
ATOM     25  C   LIG    1       -7.834   4.471   0.477  0.00  0.00    +0.560 C 
ATOM     26  O   LIG    1       -7.175   3.540   0.896  0.00  0.00    -0.530 OA
BRANCH  23  28
ATOM     27  C   LIG    1      -11.155   2.990  -0.301  0.00  0.00    +0.030 C 
ATOM     28  C   LIG    1       -9.707   2.939   0.189  0.00  0.00    +0.250 C 
ENDBRANCH  23  28
ENDBRANCH  17  25
ENDBRANCH  16  21
ENDBRANCH   1  16
TORSDOF 6
