REMARK  Name = ZINCpk00000e9bTi.0
REMARK                            x       y       z     vdW  Elec       q    Type
REMARK                         _______ _______ _______ _____ _____    ______ ____
ROOT
ATOM      1  C   LIG    1       -2.541   0.346  -5.437  0.00  0.00    +0.510 C 
ATOM      2  O   LIG    1       -2.362   1.465  -5.875  0.00  0.00    -0.490 OA
ENDROOT
BRANCH   1   3
ATOM      3  C   LIG    1       -2.951  -0.746  -6.345  0.00  0.00    -0.100 A 
ATOM      4  C   LIG    1       -3.151  -2.034  -5.845  0.00  0.00    +0.100 A 
ATOM      5  C   LIG    1       -3.539  -3.050  -6.694  0.00  0.00    +0.050 A 
ATOM      6  C   LIG    1       -3.720  -2.800  -8.042  0.00  0.00    +0.070 A 
ATOM      7  C   LIG    1       -3.518  -1.522  -8.550  0.00  0.00    +0.120 A 
ATOM      8  C   LIG    1       -3.134  -0.494  -7.705  0.00  0.00    +0.120 A 
BRANCH   7   9
ATOM      9  N   LIG    1       -3.702  -1.274  -9.918  0.00  0.00    -0.330 N 
ATOM     10  C   LIG    1       -4.072  -2.159 -10.869  0.00  0.00    +0.470 A 
ATOM     11  N   LIG    1       -4.124  -1.510 -12.003  0.00  0.00    -0.330 NA
ATOM     12  N   LIG    1       -3.812  -0.276 -11.834  0.00  0.00    -0.030 NA
ATOM     13  N   LIG    1       -3.548  -0.050 -10.592  0.00  0.00    -0.070 NA
ENDBRANCH   7   9
ENDBRANCH   1   3
BRANCH   1  14
ATOM     14  O   LIG    1       -2.365   0.100  -4.124  0.00  0.00    -0.320 OA
BRANCH  14  15
ATOM     15  C   LIG    1       -1.962   1.220  -3.292  0.00  0.00    +0.180 C 
ATOM     16  C   LIG    1       -3.206   1.930  -2.755  0.00  0.00    +0.080 C 
BRANCH  15  23
ATOM     17  C   LIG    1        3.045   3.719  -0.342  0.00  0.00    +0.020 C 
ATOM     18  C   LIG    1        1.614   3.178  -0.333  0.00  0.00    -0.020 C 
ATOM     19  C   LIG    1        0.922   3.545  -1.648  0.00  0.00    +0.020 C 
ATOM     20  C   LIG    1       -0.520   3.029  -1.624  0.00  0.00    +0.270 C 
ATOM     21  N   LIG    1       -0.504   1.589  -1.329  0.00  0.00    -0.610 N 
ATOM     22  C   LIG    1        0.211   1.121  -0.134  0.00  0.00    +0.280 C 
ATOM     23  C   LIG    1       -1.134   0.715  -2.139  0.00  0.00    +0.520 C 
ATOM     24  O   LIG    1       -1.035  -0.477  -1.939  0.00  0.00    -0.520 OA
ATOM     25  C   LIG    1        1.645   1.656  -0.176  0.00  0.00    +0.020 C 
ENDBRANCH  15  23
ENDBRANCH  14  15
ENDBRANCH   1  14
TORSDOF 5
