REMARK  Name = ZINCrD00000l8nKj.0
REMARK                            x       y       z     vdW  Elec       q    Type
REMARK                         _______ _______ _______ _____ _____    ______ ____
ROOT
ATOM      1  C   LIG    1       -7.891   1.825   2.618  0.00  0.00    +0.610 C 
ATOM      2  N   LIG    1       -7.024   1.582   3.621  0.00  0.00    -0.600 N 
ATOM      3  C   LIG    1       -6.314   0.298   3.701  0.00  0.00    +0.290 C 
ATOM      4  C   LIG    1       -6.582  -0.325   5.077  0.00  0.00    +0.300 C 
ATOM      5  N   LIG    1       -6.331   0.690   6.110  0.00  0.00    -1.000 NA
ATOM      6  C   LIG    1       -7.045   1.972   6.032  0.00  0.00    +0.310 C 
ATOM      7  C   LIG    1       -6.773   2.597   4.654  0.00  0.00    +0.260 C 
ATOM      8  O   LIG    1       -8.036   1.008   1.728  0.00  0.00    -0.520 OA
ENDROOT
BRANCH   1  12
ATOM      9  C   LIG    1       -9.577   5.358   2.632  0.00  0.00    +0.070 A 
ATOM     10  N   LIG    1      -10.445   4.416   2.447  0.00  0.00    -0.470 NA
ATOM     11  C   LIG    1      -10.001   3.184   2.423  0.00  0.00    +0.150 A 
ATOM     12  C   LIG    1       -8.661   3.073   2.599  0.00  0.00    -0.310 A 
ATOM     13  C   LIG    1      -10.901   1.994   2.215  0.00  0.00    +0.160 C 
ATOM     14  S   LIG    1       -8.010   4.698   2.809  0.00  0.00    +0.170 S 
BRANCH   9  15
ATOM     15  C   LIG    1       -9.902   6.828   2.690  0.00  0.00    +0.140 C 
BRANCH  15  16
ATOM     16  C   LIG    1      -10.209   7.227   4.135  0.00  0.00    +0.030 C 
BRANCH  16  18
ATOM     17  C   LIG    1      -10.845   9.118   5.638  0.00  0.00    +0.020 C 
ATOM     18  C   LIG    1      -10.539   8.719   4.193  0.00  0.00    +0.010 C 
ENDBRANCH  16  18
ENDBRANCH  15  16
ENDBRANCH   9  15
ENDBRANCH   1  12
BRANCH   5  19
ATOM     19  S   LIG    1       -5.266   0.392   7.342  0.00  0.00    +2.720 S 
ATOM     20  O   LIG    1       -5.639   1.250   8.412  0.00  0.00    -0.940 OA
ATOM     21  O   LIG    1       -5.186  -1.021   7.471  0.00  0.00    -0.940 OA
BRANCH  19  22
ATOM     22  C   LIG    1       -3.678   0.932   6.802  0.00  0.00    -0.800 A 
ATOM     23  C   LIG    1       -3.183   2.158   6.976  0.00  0.00    +0.170 A 
ATOM     24  C   LIG    1       -1.909   2.350   6.470  0.00  0.00    -0.020 A 
ATOM     25  C   LIG    1       -1.373   1.282   5.876  0.00  0.00    -0.130 A 
ATOM     26  C   LIG    1       -0.006   1.234   5.245  0.00  0.00    +0.160 C 
ATOM     27  S   LIG    1       -2.504  -0.063   5.950  0.00  0.00    +0.220 S 
ENDBRANCH  19  22
ENDBRANCH   5  19
TORSDOF 6
