REMARK  Name = ZINCqH0000007NCk.0
REMARK                            x       y       z     vdW  Elec       q    Type
REMARK                         _______ _______ _______ _____ _____    ______ ____
ROOT
ATOM      1  N   LIG    1       -1.203  -0.724   0.010  0.00  0.00    -0.410 N 
ATOM      2  C   LIG    1       -2.162  -0.743  -0.967  0.00  0.00    +0.390 A 
ATOM      3  N   LIG    1       -3.111  -1.539  -0.563  0.00  0.00    -0.280 NA
ATOM      4  N   LIG    1       -2.826  -2.015   0.597  0.00  0.00    -0.300 NA
ATOM      5  C   LIG    1       -1.666  -1.549   0.998  0.00  0.00    +0.160 A 
ENDROOT
BRANCH   1  11
ATOM      6  C   LIG    1        1.220  -0.680  -0.013  0.00  0.00    +0.150 A 
ATOM      7  C   LIG    1        2.406   0.035  -0.021  0.00  0.00    -0.060 A 
ATOM      8  C   LIG    1        2.379   1.418  -0.013  0.00  0.00    +0.080 A 
ATOM      9  C   LIG    1        1.171   2.089   0.002  0.00  0.00    -0.010 A 
ATOM     10  C   LIG    1       -0.017   1.382   0.010  0.00  0.00    +0.080 A 
ATOM     11  C   LIG    1        0.002  -0.004   0.002  0.00  0.00    +0.060 A 
BRANCH   6  13
ATOM     12  C   LIG    1        2.529  -2.665  -0.036  0.00  0.00    +0.250 C 
ATOM     13  O   LIG    1        1.244  -2.040  -0.020  0.00  0.00    -0.300 OA
ENDBRANCH   6  13
ENDBRANCH   1  11
BRANCH   5  14
ATOM     14  S   LIG    1       -0.859  -1.916   2.521  0.00  0.00    +0.070 S 
BRANCH  14  15
ATOM     15  C   LIG    1       -2.070  -3.044   3.254  0.00  0.00    +0.090 C 
BRANCH  15  16
ATOM     16  C   LIG    1       -1.578  -3.501   4.603  0.00  0.00    +0.420 C 
ATOM     17  O   LIG    1       -0.513  -3.104   5.027  0.00  0.00    -0.440 OA
BRANCH  16  18
ATOM     18  C   LIG    1       -2.389  -4.430   5.406  0.00  0.00    -0.170 A 
ATOM     19  C   LIG    1       -3.618  -4.890   4.922  0.00  0.00    +0.070 A 
ATOM     20  C   LIG    1       -4.370  -5.760   5.682  0.00  0.00    +0.010 A 
ATOM     21  C   LIG    1       -3.916  -6.181   6.923  0.00  0.00    -0.060 A 
ATOM     22  C   LIG    1       -4.551  -7.118   7.929  0.00  0.00    +0.080 C 
ATOM     23  C   LIG    1       -3.812  -6.848   9.256  0.00  0.00    +0.030 C 
ATOM     24  C   LIG    1       -2.439  -6.333   8.773  0.00  0.00    +0.080 C 
ATOM     25  C   LIG    1       -2.701  -5.729   7.409  0.00  0.00    -0.110 A 
ATOM     26  C   LIG    1       -1.935  -4.862   6.655  0.00  0.00    +0.090 A 
ENDBRANCH  16  18
ENDBRANCH  15  16
ENDBRANCH  14  15
ENDBRANCH   5  14
TORSDOF 6
