REMARK  Name = ZINCpk00000xIaFK.0
REMARK                            x       y       z     vdW  Elec       q    Type
REMARK                         _______ _______ _______ _____ _____    ______ ____
ROOT
ATOM      1  N   LIG    1       -2.597   3.276  -0.800  0.00  0.00    -0.500 N 
ATOM      2  H   LIG    1       -1.684   3.523  -0.449  0.00  0.00    +0.420 HD
ATOM      3  H   LIG    1       -3.304   3.775  -0.282  0.00  0.00    +0.420 HD
ENDROOT
BRANCH   1   4
ATOM      4  C   LIG    1       -2.688   3.634  -2.222  0.00  0.00    +0.180 C 
ATOM      5  C   LIG    1       -3.084   5.106  -2.357  0.00  0.00    +0.080 C 
ATOM      6  C   LIG    1       -4.043   5.506  -1.248  0.00  0.00    +0.010 C 
ATOM      7  C   LIG    1       -5.397   4.824  -1.327  0.00  0.00    +0.030 C 
ATOM      8  C   LIG    1       -5.266   3.321  -1.069  0.00  0.00    +0.250 C 
ATOM      9  N   LIG    1       -4.951   2.650  -2.340  0.00  0.00    -0.570 N 
ATOM     10  C   LIG    1       -3.745   2.784  -2.894  0.00  0.00    +0.510 C 
ATOM     11  O   LIG    1       -3.495   2.222  -3.940  0.00  0.00    -0.500 OA
BRANCH   9  12
ATOM     12  C   LIG    1       -5.969   1.831  -3.002  0.00  0.00    +0.210 C 
BRANCH  12  13
ATOM     13  C   LIG    1       -5.864   0.408  -2.514  0.00  0.00    +0.490 C 
ATOM     14  O   LIG    1       -6.625  -0.441  -2.944  0.00  0.00    -0.670 OA
ATOM     15  O   LIG    1       -5.016   0.108  -1.691  0.00  0.00    -0.690 OA
ENDBRANCH  12  13
ENDBRANCH   9  12
ENDBRANCH   1   4
BRANCH   1  20
ATOM     16  C   LIG    1       -1.264   0.157   2.280  0.00  0.00    +0.200 C 
ATOM     17  N   LIG    1       -1.361   1.009   1.087  0.00  0.00    -0.510 NA
ATOM     18  C   LIG    1       -1.002   0.252  -0.139  0.00  0.00    +0.200 C 
ATOM     19  C   LIG    1       -1.645   1.048  -1.294  0.00  0.00    +0.060 C 
ATOM     20  C   LIG    1       -2.805   1.830  -0.645  0.00  0.00    +0.190 C 
ATOM     21  C   LIG    1       -2.766   1.440   0.848  0.00  0.00    +0.210 C 
BRANCH  21  22
ATOM     22  C   LIG    1       -3.108   2.627   1.711  0.00  0.00    -0.120 A 
ATOM     23  C   LIG    1       -2.146   3.580   1.988  0.00  0.00    +0.020 A 
ATOM     24  C   LIG    1       -2.461   4.672   2.776  0.00  0.00    +0.010 A 
ATOM     25  C   LIG    1       -3.736   4.805   3.294  0.00  0.00    +0.020 A 
ATOM     26  C   LIG    1       -4.697   3.849   3.021  0.00  0.00    +0.020 A 
ATOM     27  C   LIG    1       -4.383   2.760   2.230  0.00  0.00    +0.030 A 
ENDBRANCH  21  22
ENDBRANCH   1  20
TORSDOF 5
