REMARK  Name = ZINCtV000002Myyu.0
REMARK                            x       y       z     vdW  Elec       q    Type
REMARK                         _______ _______ _______ _____ _____    ______ ____
ROOT
ATOM      1  O   LIG    1       -0.835  -4.388   0.182  0.00  0.00    -0.490 OA
ATOM      2  C   LIG    1        0.047  -5.216   0.283  0.00  0.00    +0.510 C 
ATOM      3  N   LIG    1        1.330  -4.822   0.401  0.00  0.00    -0.660 N 
ATOM      4  H   LIG    1        2.029  -5.481   0.541  0.00  0.00    +0.410 HD
ENDROOT
BRANCH   3   5
ATOM      5  C   LIG    1        1.656  -3.462   0.322  0.00  0.00    +0.140 A 
ATOM      6  C   LIG    1        2.847  -3.066  -0.273  0.00  0.00    +0.020 A 
ATOM      7  C   LIG    1        3.169  -1.726  -0.350  0.00  0.00    +0.050 A 
ATOM      8  C   LIG    1        2.300  -0.772   0.166  0.00  0.00    -0.110 A 
ATOM      9  C   LIG    1        1.111  -1.169   0.765  0.00  0.00    +0.020 A 
ATOM     10  C   LIG    1        0.788  -2.509   0.838  0.00  0.00    +0.040 A 
BRANCH   8  11
ATOM     11  S   LIG    1        2.711   0.938   0.067  0.00  0.00    +0.010 S 
BRANCH  11  12
ATOM     12  C   LIG    1        1.404   1.711   0.962  0.00  0.00    -0.140 A 
ATOM     13  C   LIG    1        1.616   2.151   2.262  0.00  0.00    +0.090 A 
ATOM     14  C   LIG    1        0.588   2.752   2.963  0.00  0.00    +0.020 A 
ATOM     15  C   LIG    1       -0.648   2.927   2.367  0.00  0.00    +0.060 A 
ATOM     16  C   LIG    1       -0.863   2.490   1.072  0.00  0.00    +0.020 A 
ATOM     17  C   LIG    1        0.158   1.883   0.367  0.00  0.00    +0.000 A 
ATOM     18 CL   LIG    1       -0.112   1.336  -1.258  0.00  0.00    -0.040 Cl
ENDBRANCH  11  12
ENDBRANCH   8  11
ENDBRANCH   3   5
BRANCH   2  19
ATOM     19  C   LIG    1       -0.294  -6.684   0.278  0.00  0.00    +0.380 C 
BRANCH  19  20
ATOM     20  N   LIG    1       -1.743  -6.848   0.139  0.00  0.00    -0.480 N 
ATOM     21  C   LIG    1       -2.418  -6.958  -1.022  0.00  0.00    +0.480 A 
ATOM     22  N   LIG    1       -3.727  -7.094  -0.725  0.00  0.00    -0.470 N 
ATOM     23  H   LIG    1       -4.452  -7.194  -1.361  0.00  0.00    +0.470 HD
ATOM     24  N   LIG    1       -3.848  -7.065   0.671  0.00  0.00    -0.260 NA
ATOM     25  S   LIG    1       -1.737  -6.929  -2.593  0.00  0.00    -0.550 S 
ATOM     26  C   LIG    1       -2.652  -6.924   1.177  0.00  0.00    +0.370 A 
BRANCH  26  27
ATOM     27  C   LIG    1       -2.328  -6.853   2.612  0.00  0.00    -0.170 A 
ATOM     28  C   LIG    1       -3.225  -6.922   3.619  0.00  0.00    +0.110 A 
ATOM     29  C   LIG    1       -2.681  -6.835   4.882  0.00  0.00    +0.020 A 
ATOM     30  C   LIG    1       -1.353  -6.686   4.918  0.00  0.00    +0.000 A 
ATOM     31  S   LIG    1       -0.713  -6.656   3.281  0.00  0.00    +0.140 S 
ENDBRANCH  26  27
ENDBRANCH  19  20
ENDBRANCH   2  19
TORSDOF 6
