REMARK  Name = ZINCrD00000hQ4mo.0
REMARK                            x       y       z     vdW  Elec       q    Type
REMARK                         _______ _______ _______ _____ _____    ______ ____
ROOT
ATOM      1  C   LIG    1       -0.232  -5.271   1.014  0.00  0.00    +0.580 C 
ATOM      2  N   LIG    1        0.428  -4.869  -0.090  0.00  0.00    -0.610 N 
ATOM      3  C   LIG    1        0.533  -5.623  -1.347  0.00  0.00    +0.250 C 
ATOM      4  C   LIG    1        1.401  -4.787  -2.312  0.00  0.00    +0.060 C 
ATOM      5  C   LIG    1        2.204  -3.870  -1.351  0.00  0.00    +0.040 C 
ATOM      6  C   LIG    1        1.163  -3.599  -0.237  0.00  0.00    +0.280 C 
ATOM      7  O   LIG    1       -0.174  -4.610   2.030  0.00  0.00    -0.520 OA
ENDROOT
BRANCH   5   8
ATOM      8  C   LIG    1        2.607  -2.591  -2.037  0.00  0.00    -0.040 A 
ATOM      9  C   LIG    1        1.646  -1.788  -2.623  0.00  0.00    -0.020 A 
ATOM     10  C   LIG    1        2.013  -0.614  -3.254  0.00  0.00    +0.050 A 
ATOM     11  C   LIG    1        3.342  -0.238  -3.299  0.00  0.00    -0.060 A 
ATOM     12  C   LIG    1        4.308  -1.042  -2.711  0.00  0.00    +0.130 A 
ATOM     13  C   LIG    1        3.938  -2.220  -2.079  0.00  0.00    -0.010 A 
BRANCH  12  14
ATOM     14  O   LIG    1        5.616  -0.675  -2.754  0.00  0.00    -0.260 OA
BRANCH  14  15
ATOM     15  C   LIG    1        5.921   0.541  -3.279  0.00  0.00    +0.080 A 
ATOM     16  C   LIG    1        6.461   0.632  -4.553  0.00  0.00    +0.010 A 
ATOM     17  C   LIG    1        6.765   1.869  -5.087  0.00  0.00    +0.030 A 
ATOM     18  C   LIG    1        6.542   3.016  -4.347  0.00  0.00    +0.010 A 
ATOM     19  C   LIG    1        6.008   2.928  -3.074  0.00  0.00    +0.030 A 
ATOM     20  C   LIG    1        5.697   1.693  -2.539  0.00  0.00    +0.000 A 
ENDBRANCH  14  15
ENDBRANCH  12  14
ENDBRANCH   5   8
BRANCH   1  21
ATOM     21  C   LIG    1       -1.043  -6.541   0.987  0.00  0.00    -0.680 C 
ATOM     22  C   LIG    1       -0.968  -7.453   2.213  0.00  0.00    +0.160 C 
ATOM     23  C   LIG    1       -0.279  -7.865   0.910  0.00  0.00    +0.130 C 
BRANCH  21  25
ATOM     24  C   LIG    1       -3.456  -5.087   1.000  0.00  0.00    -0.240 C 
ATOM     25  S   LIG    1       -2.630  -6.438   0.115  0.00  0.00    +2.460 S 
ATOM     26  O   LIG    1       -3.353  -7.639   0.346  0.00  0.00    -0.920 OA
ATOM     27  O   LIG    1       -2.386  -6.021  -1.221  0.00  0.00    -0.920 OA
ENDBRANCH  21  25
ENDBRANCH   1  21
TORSDOF 5
