REMARK  Name = ZINCrg00000SjSvJ.0
REMARK                            x       y       z     vdW  Elec       q    Type
REMARK                         _______ _______ _______ _____ _____    ______ ____
ROOT
ATOM      1  N   LIG    1       -2.495  -0.400   0.796  0.00  0.00    -1.140 NA
ATOM      2  S   LIG    1       -1.407  -1.062   0.017  0.00  0.00    +2.450 S 
ATOM      3  O   LIG    1       -1.854  -1.231  -1.321  0.00  0.00    -0.920 OA
ATOM      4  C   LIG    1       -0.955  -2.602   0.863  0.00  0.00    -0.200 C 
ENDROOT
BRANCH   2   5
ATOM      5  C   LIG    1        0.002  -0.004   0.002  0.00  0.00    -0.720 A 
ATOM      6  C   LIG    1       -0.016   1.342   0.009  0.00  0.00    +0.220 A 
ATOM      7  C   LIG    1       -1.220   2.254   0.020  0.00  0.00    +0.410 C 
ATOM      8  N   LIG    1       -0.726   3.619   0.281  0.00  0.00    -0.630 N 
ATOM      9  C   LIG    1        0.489   4.059  -0.422  0.00  0.00    +0.300 C 
ATOM     10  C   LIG    1        1.670   3.187   0.017  0.00  0.00    +0.330 C 
ATOM     11  C   LIG    1       -1.367   4.438   1.137  0.00  0.00    +0.520 C 
ATOM     12  O   LIG    1       -2.367   4.056   1.708  0.00  0.00    -0.510 OA
ATOM     13  C   LIG    1       -0.842   5.828   1.387  0.00  0.00    +0.100 C 
ATOM     14  N   LIG    1        1.264   1.779  -0.001  0.00  0.00    -0.350 N 
ATOM     15  N   LIG    1        2.097   0.657  -0.023  0.00  0.00    -0.270 NA
ATOM     16  C   LIG    1        1.342  -0.413  -0.019  0.00  0.00    +0.320 A 
ENDBRANCH   2   5
BRANCH   1  17
ATOM     17  C   LIG    1       -3.670  -1.010   0.950  0.00  0.00    +0.610 C 
ATOM     18  O   LIG    1       -3.856  -2.107   0.455  0.00  0.00    -0.570 OA
BRANCH  17  23
ATOM     19  C   LIG    1       -6.963  -0.328   2.621  0.00  0.00    -0.160 A 
ATOM     20  C   LIG    1       -6.686   0.919   3.157  0.00  0.00    +0.300 A 
ATOM     21  N   LIG    1       -5.508   1.490   2.981  0.00  0.00    -0.490 NA
ATOM     22  C   LIG    1       -4.547   0.904   2.300  0.00  0.00    +0.340 A 
ATOM     23  C   LIG    1       -4.749  -0.353   1.722  0.00  0.00    -0.170 A 
ATOM     24  C   LIG    1       -5.989  -0.983   1.891  0.00  0.00    +0.150 A 
BRANCH  19  25
ATOM     25  C   LIG    1       -8.313  -0.964   2.832  0.00  0.00    +0.230 C 
BRANCH  25  27
ATOM     26  C   LIG    1       -9.527  -2.398   4.320  0.00  0.00    +0.200 C 
ATOM     27  O   LIG    1       -8.289  -1.748   4.026  0.00  0.00    -0.390 OA
ENDBRANCH  25  27
ENDBRANCH  19  25
ENDBRANCH  17  23
ENDBRANCH   1  17
TORSDOF 5
