REMARK  Name = ZINCkj000005h4qk.0
REMARK                            x       y       z     vdW  Elec       q    Type
REMARK                         _______ _______ _______ _____ _____    ______ ____
ROOT
ATOM      1  C   LIG    1       -0.472   0.552   0.755  0.00  0.00    +0.290 C 
ATOM      2  N   LIG    1       -1.262   1.290   1.744  0.00  0.00    -0.620 N 
ATOM      3  C   LIG    1       -2.439   1.844   1.390  0.00  0.00    +0.580 C 
ATOM      4  O   LIG    1       -3.046   2.540   2.180  0.00  0.00    -0.480 OA
ENDROOT
BRANCH   2   5
ATOM      5  C   LIG    1       -0.772   1.428   3.118  0.00  0.00    +0.280 C 
ATOM      6  C   LIG    1        0.606   2.121   3.129  0.00  0.00    +0.070 C 
ATOM      7  C   LIG    1        1.568   1.091   3.758  0.00  0.00    +0.280 C 
ATOM      8  N   LIG    1        0.919  -0.223   3.517  0.00  0.00    -0.520 N 
ATOM      9  H   LIG    1        1.262  -0.911   4.171  0.00  0.00    +0.440 HD
ATOM     10  H   LIG    1        1.080  -0.528   2.568  0.00  0.00    +0.430 HD
ATOM     11  C   LIG    1       -0.529   0.037   3.742  0.00  0.00    +0.270 C 
ENDBRANCH   2   5
BRANCH   3  12
ATOM     12  C   LIG    1       -2.990   1.605   0.042  0.00  0.00    -0.150 A 
ATOM     13  C   LIG    1       -3.181   0.300  -0.418  0.00  0.00    +0.060 A 
ATOM     14  C   LIG    1       -3.697   0.083  -1.678  0.00  0.00    +0.010 A 
ATOM     15  C   LIG    1       -4.028   1.154  -2.491  0.00  0.00    +0.080 A 
ATOM     16  C   LIG    1       -3.846   2.450  -2.049  0.00  0.00    -0.010 A 
ATOM     17  C   LIG    1       -3.332   2.687  -0.783  0.00  0.00    +0.220 A 
BRANCH  17  18
ATOM     18  N   LIG    1       -3.151   3.997  -0.332  0.00  0.00    -0.340 N 
ATOM     19  C   LIG    1       -3.540   5.126  -0.979  0.00  0.00    +0.230 A 
ATOM     20  C   LIG    1       -3.184   6.181  -0.210  0.00  0.00    -0.090 A 
ATOM     21  C   LIG    1       -2.551   5.686   0.936  0.00  0.00    +0.250 A 
ATOM     22  N   LIG    1       -2.531   4.380   0.864  0.00  0.00    -0.270 NA
ENDBRANCH  17  18
ENDBRANCH   3  12
TORSDOF 3
