REMARK  Name = ZINCrg00000SjSL6.0
REMARK                            x       y       z     vdW  Elec       q    Type
REMARK                         _______ _______ _______ _____ _____    ______ ____
ROOT
ATOM      1  C   LIG    1        1.773   6.824  -0.518  0.00  0.00    -0.720 A 
ATOM      2  C   LIG    1        1.539   5.590  -0.032  0.00  0.00    +0.220 A 
ATOM      3  C   LIG    1        0.573   5.190   1.058  0.00  0.00    +0.420 C 
ATOM      4  N   LIG    1        0.496   3.717   1.047  0.00  0.00    -0.620 N 
ATOM      5  C   LIG    1        1.750   2.962   0.905  0.00  0.00    +0.310 C 
ATOM      6  C   LIG    1        2.368   3.273  -0.468  0.00  0.00    +0.330 C 
ATOM      7  C   LIG    1       -0.687   3.082   1.168  0.00  0.00    +0.530 C 
ATOM      8  O   LIG    1       -1.717   3.721   1.198  0.00  0.00    -0.510 OA
ATOM      9  N   LIG    1        2.335   4.720  -0.695  0.00  0.00    -0.350 N 
ATOM     10  N   LIG    1        3.091   5.451  -1.616  0.00  0.00    -0.270 NA
ATOM     11  C   LIG    1        2.753   6.712  -1.512  0.00  0.00    +0.320 A 
ENDROOT
BRANCH   1  13
ATOM     12  N   LIG    1        0.670   8.202   1.460  0.00  0.00    -1.130 NA
ATOM     13  S   LIG    1        0.987   8.312   0.004  0.00  0.00    +2.440 S 
ATOM     14  O   LIG    1       -0.234   8.448  -0.710  0.00  0.00    -0.920 OA
ATOM     15  C   LIG    1        2.153   9.683  -0.223  0.00  0.00    -0.210 C 
BRANCH  12  17
ATOM     16  C   LIG    1       -0.248   9.094   3.553  0.00  0.00    +0.130 C 
ATOM     17  C   LIG    1        0.072   9.205   2.085  0.00  0.00    +0.550 C 
ATOM     18  O   LIG    1       -0.218  10.215   1.474  0.00  0.00    -0.590 OA
ENDBRANCH  12  17
ENDBRANCH   1  13
BRANCH   7  19
ATOM     19  C   LIG    1       -0.729   1.579   1.266  0.00  0.00    +0.060 C 
ATOM     20  C   LIG    1       -2.102   1.077   0.814  0.00  0.00    +0.080 C 
BRANCH  19  21
ATOM     21  C   LIG    1       -0.486   1.162   2.694  0.00  0.00    +0.060 A 
ATOM     22  C   LIG    1       -1.546   1.121   3.581  0.00  0.00    +0.040 A 
ATOM     23  C   LIG    1       -1.316   0.737   4.892  0.00  0.00    -0.020 A 
ATOM     24  C   LIG    1       -0.016   0.404   5.266  0.00  0.00    +0.170 A 
ATOM     25  C   LIG    1        0.996   0.470   4.316  0.00  0.00    +0.190 A 
ATOM     26  N   LIG    1        0.733   0.836   3.078  0.00  0.00    -0.440 NA
BRANCH  24  27
ATOM     27  N   LIG    1        0.266   0.011   6.576  0.00  0.00    -0.870 N 
ATOM     28  H   LIG    1        1.174  -0.219   6.829  0.00  0.00    +0.400 HD
ATOM     29  H   LIG    1       -0.446  -0.032   7.234  0.00  0.00    +0.400 HD
ENDBRANCH  24  27
ENDBRANCH  19  21
ENDBRANCH   7  19
TORSDOF 5
