REMARK  Name = ZINCkj000005hxti.0
REMARK                            x       y       z     vdW  Elec       q    Type
REMARK                         _______ _______ _______ _____ _____    ______ ____
ROOT
ATOM      1  C   LIG    1       -2.949   0.439   4.820  0.00  0.00    +0.230 C 
ATOM      2  C   LIG    1       -2.622   0.872   6.266  0.00  0.00    +0.030 C 
ATOM      3  C   LIG    1       -1.245   0.207   6.527  0.00  0.00    +0.210 C 
ATOM      4  C   LIG    1       -0.580   0.311   5.131  0.00  0.00    +0.280 C 
ATOM      5  F   LIG    1       -0.516   0.922   7.484  0.00  0.00    -0.180 F 
ATOM      6  N   LIG    1       -1.677   0.086   4.173  0.00  0.00    -0.610 N 
ATOM      7  C   LIG    1       -1.536  -0.363   2.910  0.00  0.00    +0.520 C 
ATOM      8  O   LIG    1       -2.518  -0.598   2.237  0.00  0.00    -0.500 OA
ENDROOT
BRANCH   1   9
ATOM      9  C   LIG    1       -3.614   1.593   4.067  0.00  0.00    +0.250 C 
BRANCH   9  11
ATOM     10  C   LIG    1       -5.624   2.885   3.852  0.00  0.00    +0.330 C 
ATOM     11  N   LIG    1       -4.935   1.861   4.650  0.00  0.00    -0.500 N 
ATOM     12  H   LIG    1       -4.824   2.191   5.597  0.00  0.00    +0.430 HD
ATOM     13  H   LIG    1       -5.481   1.012   4.651  0.00  0.00    +0.430 HD
ENDBRANCH   9  11
ENDBRANCH   1   9
BRANCH   7  14
ATOM     14  C   LIG    1       -0.160  -0.573   2.333  0.00  0.00    +0.390 C 
BRANCH  14  15
ATOM     15  N   LIG    1       -0.277  -1.061   0.957  0.00  0.00    -0.360 N 
ATOM     16  N   LIG    1       -0.345  -2.403   0.562  0.00  0.00    -0.270 NA
ATOM     17  C   LIG    1       -0.442  -2.441  -0.743  0.00  0.00    +0.110 A 
ATOM     18  C   LIG    1       -0.444  -1.126  -1.220  0.00  0.00    -0.180 A 
ATOM     19 CL   LIG    1       -0.559  -0.643  -2.883  0.00  0.00    -0.030 Cl
ATOM     20  C   LIG    1       -0.541  -3.687  -1.585  0.00  0.00    +0.180 C 
ATOM     21  C   LIG    1       -0.336  -0.297  -0.155  0.00  0.00    +0.110 A 
ATOM     22  C   LIG    1       -0.295   1.209  -0.202  0.00  0.00    +0.150 C 
ENDBRANCH  14  15
ENDBRANCH   7  14
TORSDOF 4
