REMARK  Name = ZINCrH000004tYvk.0
REMARK                            x       y       z     vdW  Elec       q    Type
REMARK                         _______ _______ _______ _____ _____    ______ ____
ROOT
ATOM      1  O   LIG    1       -3.163   5.696  -4.335  0.00  0.00    -0.520 OA
ATOM      2  C   LIG    1       -3.393   4.970  -5.278  0.00  0.00    +0.520 C 
ATOM      3  N   LIG    1       -3.290   5.444  -6.536  0.00  0.00    -0.730 N 
ATOM      4  H   LIG    1       -3.474   4.862  -7.290  0.00  0.00    +0.400 HD
ENDROOT
BRANCH   3   5
ATOM      5  C   LIG    1       -2.899   6.837  -6.763  0.00  0.00    +0.370 C 
BRANCH   5   6
ATOM      6  C   LIG    1       -3.427   7.295  -8.098  0.00  0.00    -0.090 A 
ATOM      7  C   LIG    1       -3.388   6.444  -9.186  0.00  0.00    +0.010 A 
ATOM      8  C   LIG    1       -3.876   6.862 -10.410  0.00  0.00    +0.020 A 
ATOM      9  C   LIG    1       -4.395   8.136 -10.548  0.00  0.00    +0.010 A 
ATOM     10  C   LIG    1       -4.430   8.990  -9.461  0.00  0.00    +0.020 A 
ATOM     11  C   LIG    1       -3.946   8.569  -8.236  0.00  0.00    +0.030 A 
ENDBRANCH   5   6
BRANCH   5  12
ATOM     12  C   LIG    1       -1.396   6.946  -6.753  0.00  0.00    -0.190 A 
ATOM     13  C   LIG    1       -0.700   7.938  -6.197  0.00  0.00    +0.020 A 
ATOM     14  C   LIG    1        0.674   7.823  -6.313  0.00  0.00    +0.010 A 
ATOM     15  C   LIG    1        1.095   6.737  -6.963  0.00  0.00    -0.050 A 
ATOM     16  S   LIG    1       -0.291   5.778  -7.467  0.00  0.00    +0.110 S 
ENDBRANCH   5  12
ENDBRANCH   3   5
BRANCH   2  17
ATOM     17  C   LIG    1       -3.795   3.536  -5.044  0.00  0.00    +0.170 C 
BRANCH  17  18
ATOM     18  C   LIG    1       -3.836   3.261  -3.563  0.00  0.00    +0.120 A 
ATOM     19  C   LIG    1       -4.904   3.528  -2.809  0.00  0.00    -0.080 A 
ATOM     20  S   LIG    1       -4.534   3.058  -1.152  0.00  0.00    +0.140 S 
ATOM     21  C   LIG    1       -2.975   2.548  -1.634  0.00  0.00    +0.280 A 
ATOM     22  N   LIG    1       -2.816   2.742  -2.905  0.00  0.00    -0.480 NA
BRANCH  21  23
ATOM     23  N   LIG    1       -2.016   2.009  -0.784  0.00  0.00    -0.540 N 
ATOM     24  C   LIG    1       -2.209   1.800   0.655  0.00  0.00    +0.270 C 
ATOM     25  C   LIG    1       -0.787   1.610   1.239  0.00  0.00    +0.060 C 
ATOM     26  C   LIG    1       -0.013   1.086   0.008  0.00  0.00    +0.070 C 
ATOM     27  C   LIG    1       -0.793   1.611  -1.176  0.00  0.00    +0.520 C 
ATOM     28  O   LIG    1       -0.377   1.665  -2.314  0.00  0.00    -0.470 OA
ENDBRANCH  21  23
ENDBRANCH  17  18
ENDBRANCH   2  17
TORSDOF 6
