REMARK  Name = ZINCvU0000000Hi5.0
REMARK                            x       y       z     vdW  Elec       q    Type
REMARK                         _______ _______ _______ _____ _____    ______ ____
ROOT
ATOM      1  C   LIG    1       -0.957   1.909  -1.397  0.00  0.00    -0.530 A 
ATOM      2  C   LIG    1       -0.875   3.102  -2.034  0.00  0.00    +0.040 A 
ATOM      3  O   LIG    1       -1.758   3.071  -3.054  0.00  0.00    -0.180 OA
ATOM      4  C   LIG    1       -2.367   1.868  -3.031  0.00  0.00    +0.270 A 
ATOM      5  N   LIG    1       -1.877   1.168  -2.032  0.00  0.00    -0.380 NA
ENDROOT
BRANCH   4   6
ATOM      6  C   LIG    1       -3.403   1.414  -3.970  0.00  0.00    -0.150 A 
ATOM      7  C   LIG    1       -3.902   2.144  -5.005  0.00  0.00    +0.060 A 
ATOM      8  C   LIG    1       -4.869   1.497  -5.745  0.00  0.00    +0.010 A 
ATOM      9  C   LIG    1       -5.165   0.260  -5.335  0.00  0.00    -0.030 A 
ATOM     10  S   LIG    1       -4.186  -0.161  -3.936  0.00  0.00    +0.230 S 
ENDBRANCH   4   6
BRANCH   1  11
ATOM     11  S   LIG    1       -0.017   1.417   0.010  0.00  0.00    +2.610 S 
ATOM     12  O   LIG    1        1.162   2.210   0.003  0.00  0.00    -0.910 OA
ATOM     13  O   LIG    1        0.002  -0.004   0.002  0.00  0.00    -0.910 OA
BRANCH  11  18
ATOM     14  C   LIG    1       -3.141   3.051   4.906  0.00  0.00    +0.090 C 
ATOM     15  C   LIG    1       -2.361   2.643   3.683  0.00  0.00    -0.020 A 
ATOM     16  C   LIG    1       -2.559   1.395   3.122  0.00  0.00    +0.000 A 
ATOM     17  C   LIG    1       -1.843   1.021   2.000  0.00  0.00    +0.140 A 
ATOM     18  C   LIG    1       -0.930   1.894   1.440  0.00  0.00    -0.670 A 
ATOM     19  C   LIG    1       -0.728   3.140   2.004  0.00  0.00    +0.130 A 
ATOM     20  C   LIG    1       -1.447   3.516   3.123  0.00  0.00    +0.000 A 
ENDBRANCH  11  18
ENDBRANCH   1  11
BRANCH   2  21
ATOM     21  S   LIG    1        0.186   4.444  -1.610  0.00  0.00    +0.150 S 
BRANCH  21  22
ATOM     22  C   LIG    1       -0.220   5.696  -2.859  0.00  0.00    +0.070 C 
BRANCH  22  23
ATOM     23  C   LIG    1        0.618   6.926  -2.628  0.00  0.00    +0.540 C 
ATOM     24  N   LIG    1        0.486   7.994  -3.440  0.00  0.00    -0.720 N 
ATOM     25  H   LIG    1       -0.148   7.970  -4.173  0.00  0.00    +0.400 HD
ATOM     26  O   LIG    1        1.412   6.956  -1.712  0.00  0.00    -0.510 OA
BRANCH  24  27
ATOM     27  C   LIG    1        1.302   9.190  -3.216  0.00  0.00    +0.230 C 
ATOM     28  C   LIG    1        0.622  10.082  -2.175  0.00  0.00    +0.000 C 
ATOM     29  C   LIG    1        1.474  11.332  -1.941  0.00  0.00    +0.020 C 
ATOM     30  C   LIG    1        1.621  12.102  -3.254  0.00  0.00    +0.010 C 
ATOM     31  C   LIG    1        2.301  11.210  -4.295  0.00  0.00    +0.020 C 
ATOM     32  C   LIG    1        1.449   9.960  -4.529  0.00  0.00    +0.010 C 
ENDBRANCH  24  27
ENDBRANCH  22  23
ENDBRANCH  21  22
ENDBRANCH   2  21
TORSDOF 7
