REMARK  Name = ZINC650000002ryA.1
REMARK                            x       y       z     vdW  Elec       q    Type
REMARK                         _______ _______ _______ _____ _____    ______ ____
ROOT
ATOM      1  C   LIG    1       -2.164   1.050   1.278  0.00  0.00    +0.180 C 
ATOM      2  C   LIG    1       -2.940   1.656   0.107  0.00  0.00    +0.090 C 
ENDROOT
BRANCH   1   3
ATOM      3  N   LIG    1       -2.814   1.423   2.541  0.00  0.00    -0.640 N 
ATOM      4  H   LIG    1       -3.761   1.073   2.548  0.00  0.00    +0.440 HD
ATOM      5  H   LIG    1       -2.826   2.428   2.630  0.00  0.00    +0.430 HD
ATOM      6  H   LIG    1       -2.302   1.023   3.313  0.00  0.00    +0.440 HD
ENDBRANCH   1   3
BRANCH   1   8
ATOM      7  C   LIG    1       -0.013   1.086   0.008  0.00  0.00    +0.090 C 
ATOM      8  C   LIG    1       -0.729   1.579   1.267  0.00  0.00    +0.130 C 
BRANCH   8   9
ATOM      9  N   LIG    1       -0.018   1.093   2.457  0.00  0.00    -0.850 NA
ATOM     10  H   LIG    1       -0.507   1.351   3.301  0.00  0.00    +0.330 HD
ATOM     11  H   LIG    1        0.933   1.429   2.473  0.00  0.00    +0.370 HD
ENDBRANCH   8   9
ENDBRANCH   1   8
TORSDOF 3
