REMARK  Name = ZINC650000002ryA.0
REMARK                            x       y       z     vdW  Elec       q    Type
REMARK                         _______ _______ _______ _____ _____    ______ ____
ROOT
ATOM      1  C   LIG    1       -0.013   1.086   0.008  0.00  0.00    +0.110 C 
ATOM      2  C   LIG    1       -0.729   1.579   1.267  0.00  0.00    +0.180 C 
ENDROOT
BRANCH   2   3
ATOM      3  N   LIG    1       -0.018   1.093   2.457  0.00  0.00    -0.630 N 
ATOM      4  H   LIG    1       -0.005   0.084   2.451  0.00  0.00    +0.440 HD
ATOM      5  H   LIG    1       -0.491   1.418   3.287  0.00  0.00    +0.450 HD
ATOM      6  H   LIG    1        0.928   1.442   2.450  0.00  0.00    +0.460 HD
ENDBRANCH   2   3
BRANCH   2   7
ATOM      7  C   LIG    1       -2.164   1.050   1.278  0.00  0.00    +0.180 C 
ATOM      8  C   LIG    1       -2.144  -0.476   1.395  0.00  0.00    +0.110 C 
BRANCH   7   9
ATOM      9  N   LIG    1       -2.838   1.436   0.031  0.00  0.00    -0.630 N 
ATOM     10  H   LIG    1       -2.851   2.442  -0.046  0.00  0.00    +0.450 HD
ATOM     11  H   LIG    1       -3.785   1.087   0.038  0.00  0.00    +0.460 HD
ATOM     12  H   LIG    1       -2.341   1.045  -0.755  0.00  0.00    +0.440 HD
ENDBRANCH   7   9
ENDBRANCH   2   7
TORSDOF 3
