REMARK  Name = ZINCrD0000072VvE.0
REMARK                            x       y       z     vdW  Elec       q    Type
REMARK                         _______ _______ _______ _____ _____    ______ ____
ROOT
ATOM      1  C   LIG    1       -1.088   2.039   4.290  0.00  0.00    +0.470 C 
ATOM      2  O   LIG    1        0.070   2.386   4.292  0.00  0.00    -0.480 OA
ENDROOT
BRANCH   1   3
ATOM      3  O   LIG    1       -1.946   2.570   3.404  0.00  0.00    -0.280 OA
BRANCH   3   7
ATOM      4  C   LIG    1       -0.366   5.109   0.551  0.00  0.00    -0.080 A 
ATOM      5  C   LIG    1       -0.983   5.629   1.692  0.00  0.00    +0.070 A 
ATOM      6  C   LIG    1       -1.508   4.778   2.640  0.00  0.00    +0.060 A 
ATOM      7  C   LIG    1       -1.427   3.404   2.466  0.00  0.00    +0.080 A 
ATOM      8  C   LIG    1       -0.813   2.877   1.330  0.00  0.00    +0.120 A 
ATOM      9  C   LIG    1       -0.279   3.724   0.378  0.00  0.00    +0.020 A 
BRANCH   4  10
ATOM     10  C   LIG    1        0.197   6.018  -0.465  0.00  0.00    +0.510 C 
ATOM     11  O   LIG    1        0.732   5.564  -1.456  0.00  0.00    -0.500 OA
BRANCH  10  13
ATOM     12  C   LIG    1        0.693   8.186  -1.334  0.00  0.00    +0.290 C 
ATOM     13  O   LIG    1        0.117   7.352  -0.293  0.00  0.00    -0.350 OA
ENDBRANCH  10  13
ENDBRANCH   4  10
BRANCH   8  14
ATOM     14  O   LIG    1       -0.734   1.530   1.162  0.00  0.00    -0.310 OA
ATOM     15  C   LIG    1       -0.092   1.061  -0.025  0.00  0.00    +0.250 C 
ENDBRANCH   8  14
ENDBRANCH   3   7
ENDBRANCH   1   3
BRANCH   1  16
ATOM     16  C   LIG    1       -1.568   1.012   5.282  0.00  0.00    +0.210 C 
BRANCH  16  17
ATOM     17  C   LIG    1       -0.418   0.581   6.156  0.00  0.00    -0.110 A 
ATOM     18  C   LIG    1        0.369  -0.494   5.782  0.00  0.00    +0.140 A 
ATOM     19  C   LIG    1        1.430  -0.888   6.582  0.00  0.00    +0.060 A 
ATOM     20  C   LIG    1        1.695  -0.212   7.762  0.00  0.00    +0.100 A 
ATOM     21  C   LIG    1        0.903   0.861   8.138  0.00  0.00    +0.060 A 
ATOM     22  F   LIG    1        1.160   1.520   9.289  0.00  0.00    -0.100 F 
ATOM     23  F   LIG    1        2.726  -0.599   8.546  0.00  0.00    -0.090 F 
ATOM     24  F   LIG    1        2.202  -1.934   6.214  0.00  0.00    -0.100 F 
ATOM     25  F   LIG    1        0.106  -1.157   4.634  0.00  0.00    -0.100 F 
ATOM     26  C   LIG    1       -0.154   1.257   7.334  0.00  0.00    +0.140 A 
ATOM     27  F   LIG    1       -0.927   2.303   7.701  0.00  0.00    -0.100 F 
ENDBRANCH  16  17
ENDBRANCH   1  16
TORSDOF 7
