REMARK  Name = ZINCrH000004sMou.0
REMARK                            x       y       z     vdW  Elec       q    Type
REMARK                         _______ _______ _______ _____ _____    ______ ____
ROOT
ATOM      1  S   LIG    1        2.105  -2.392  -0.951  0.00  0.00    +0.080 S 
ENDROOT
BRANCH   1   6
ATOM      2  C   LIG    1        2.338   2.828  -1.924  0.00  0.00    +0.200 C 
ATOM      3  C   LIG    1        1.828   1.438  -1.643  0.00  0.00    +0.190 A 
ATOM      4  N   LIG    1        0.581   1.083  -1.518  0.00  0.00    -0.280 NA
ATOM      5  N   LIG    1        0.502  -0.178  -1.282  0.00  0.00    -0.290 NA
ATOM      6  C   LIG    1        1.706  -0.701  -1.243  0.00  0.00    +0.140 A 
ATOM      7  N   LIG    1        2.590   0.314  -1.472  0.00  0.00    -0.450 N 
BRANCH   7   8
ATOM      8  C   LIG    1        4.051   0.220  -1.524  0.00  0.00    +0.370 C 
BRANCH   8   9
ATOM      9  C   LIG    1        4.486  -0.069  -2.938  0.00  0.00    -0.120 A 
ATOM     10  C   LIG    1        4.623  -1.377  -3.365  0.00  0.00    +0.040 A 
ATOM     11  C   LIG    1        5.018  -1.642  -4.663  0.00  0.00    +0.010 A 
ATOM     12  C   LIG    1        5.285  -0.600  -5.531  0.00  0.00    +0.020 A 
ATOM     13  C   LIG    1        5.153   0.707  -5.102  0.00  0.00    +0.010 A 
ATOM     14  C   LIG    1        4.754   0.973  -3.806  0.00  0.00    +0.020 A 
ENDBRANCH   8   9
ENDBRANCH   7   8
ENDBRANCH   1   6
BRANCH   1  15
ATOM     15  C   LIG    1        0.442  -3.076  -0.745  0.00  0.00    +0.110 C 
BRANCH  15  16
ATOM     16  C   LIG    1        0.538  -4.556  -0.478  0.00  0.00    +0.540 C 
ATOM     17  N   LIG    1       -0.583  -5.281  -0.290  0.00  0.00    -0.720 N 
ATOM     18  H   LIG    1       -1.451  -4.850  -0.328  0.00  0.00    +0.400 HD
ATOM     19  O   LIG    1        1.623  -5.095  -0.431  0.00  0.00    -0.520 OA
BRANCH  17  20
ATOM     20  C   LIG    1       -0.490  -6.720  -0.030  0.00  0.00    +0.300 C 
ATOM     21  C   LIG    1       -0.321  -6.956   1.472  0.00  0.00    +0.040 C 
BRANCH  20  22
ATOM     22  C   LIG    1       -1.748  -7.399  -0.508  0.00  0.00    -0.130 A 
ATOM     23  C   LIG    1       -2.937  -6.697  -0.556  0.00  0.00    +0.040 A 
ATOM     24  C   LIG    1       -4.090  -7.318  -0.999  0.00  0.00    +0.010 A 
ATOM     25  C   LIG    1       -4.057  -8.645  -1.384  0.00  0.00    +0.050 A 
ATOM     26  C   LIG    1       -2.869  -9.351  -1.331  0.00  0.00    -0.010 A 
ATOM     27  C   LIG    1       -1.713  -8.728  -0.893  0.00  0.00    +0.110 A 
ATOM     28  F   LIG    1       -0.552  -9.418  -0.841  0.00  0.00    -0.130 F 
ENDBRANCH  20  22
ENDBRANCH  17  20
ENDBRANCH  15  16
ENDBRANCH   1  15
TORSDOF 7
