REMARK  Name = ZINCrD000006fiOG.0
REMARK                            x       y       z     vdW  Elec       q    Type
REMARK                         _______ _______ _______ _____ _____    ______ ____
ROOT
ATOM      1  C   LIG    1        0.815   4.616  -0.397  0.00  0.00    +0.560 C 
ATOM      2  N   LIG    1        1.555   3.556  -0.780  0.00  0.00    -0.720 N 
ATOM      3  H   LIG    1        1.866   3.487  -1.696  0.00  0.00    +0.400 HD
ATOM      4  O   LIG    1        0.425   4.703   0.751  0.00  0.00    -0.520 OA
ENDROOT
BRANCH   2   5
ATOM      5  C   LIG    1        1.888   2.508   0.188  0.00  0.00    +0.290 C 
ATOM      6  C   LIG    1        3.182   1.820  -0.241  0.00  0.00    +0.020 C 
ATOM      7  C   LIG    1        3.398   0.594   0.653  0.00  0.00    +0.040 C 
ATOM      8  C   LIG    1        2.345  -0.453   0.297  0.00  0.00    +0.080 C 
ATOM      9  C   LIG    1        0.967   0.155   0.310  0.00  0.00    -0.030 A 
ATOM     10  C   LIG    1       -0.118  -0.707   0.380  0.00  0.00    -0.030 A 
ATOM     11  C   LIG    1       -1.411  -0.210   0.391  0.00  0.00    +0.130 A 
ATOM     12  C   LIG    1       -1.620   1.160   0.331  0.00  0.00    -0.080 A 
ATOM     13  C   LIG    1       -0.539   2.014   0.267  0.00  0.00    +0.070 A 
ATOM     14  C   LIG    1        0.757   1.516   0.255  0.00  0.00    -0.130 A 
BRANCH  11  15
ATOM     15  O   LIG    1       -2.469  -1.060   0.460  0.00  0.00    -0.320 OA
ATOM     16  C   LIG    1       -3.772  -0.474   0.467  0.00  0.00    +0.250 C 
ENDBRANCH  11  15
ENDBRANCH   2   5
BRANCH   1  21
ATOM     17  C   LIG    1        0.605   6.570  -3.600  0.00  0.00    +0.130 A 
ATOM     18  C   LIG    1       -0.158   7.662  -3.201  0.00  0.00    +0.040 A 
ATOM     19  C   LIG    1       -0.602   7.764  -1.898  0.00  0.00    +0.010 A 
ATOM     20  C   LIG    1       -0.289   6.776  -0.977  0.00  0.00    +0.160 A 
ATOM     21  C   LIG    1        0.479   5.672  -1.371  0.00  0.00    -0.150 A 
ATOM     22  C   LIG    1        0.930   5.579  -2.690  0.00  0.00    +0.070 A 
BRANCH  17  24
ATOM     23  C   LIG    1        1.168   5.267  -5.511  0.00  0.00    +0.540 C 
ATOM     24  N   LIG    1        1.050   6.475  -4.925  0.00  0.00    -0.670 N 
ATOM     25  H   LIG    1        1.274   7.278  -5.420  0.00  0.00    +0.410 HD
ATOM     26  O   LIG    1        0.797   4.268  -4.925  0.00  0.00    -0.520 OA
BRANCH  23  28
ATOM     27  C   LIG    1        1.860   3.965  -7.439  0.00  0.00    +0.160 C 
ATOM     28  C   LIG    1        1.744   5.157  -6.860  0.00  0.00    -0.090 C 
ENDBRANCH  23  28
ENDBRANCH  17  24
BRANCH  20  29
ATOM     29  O   LIG    1       -0.727   6.877   0.304  0.00  0.00    -0.480 OA
ATOM     30  H   LIG    1       -0.116   7.342   0.892  0.00  0.00    +0.400 HD
ENDBRANCH  20  29
ENDBRANCH   1  21
TORSDOF 6
