REMARK  Name = ZINCpe00000bcVZ3.0
REMARK                            x       y       z     vdW  Elec       q    Type
REMARK                         _______ _______ _______ _____ _____    ______ ____
ROOT
ATOM      1  C   LIG    1       -0.723   1.577   1.286  0.00  0.00    +0.140 C 
ATOM      2  C   LIG    1       -0.013   1.086   0.008  0.00  0.00    +0.300 C 
ATOM      3  N   LIG    1       -0.718   1.571  -1.201  0.00  0.00    -0.590 N 
ATOM      4  C   LIG    1       -2.158   1.595  -1.315  0.00  0.00    +0.280 C 
ATOM      5  C   LIG    1       -2.693   2.944  -0.775  0.00  0.00    -0.000 C 
ATOM      6  C   LIG    1       -2.520   2.997   0.690  0.00  0.00    +0.200 C 
ATOM      7  C   LIG    1        0.017   2.010  -2.242  0.00  0.00    +0.650 C 
ATOM      8  O   LIG    1        1.230   2.003  -2.175  0.00  0.00    -0.560 OA
ATOM      9  O   LIG    1       -1.162   2.900   1.111  0.00  0.00    -0.360 OA
ENDROOT
BRANCH   1  10
ATOM     10  C   LIG    1        0.252   1.519   2.464  0.00  0.00    +0.290 C 
BRANCH  10  12
ATOM     11  C   LIG    1        0.211   1.887   4.872  0.00  0.00    +0.520 C 
ATOM     12  N   LIG    1       -0.452   1.871   3.699  0.00  0.00    -0.730 N 
ATOM     13  H   LIG    1       -1.396   2.093   3.673  0.00  0.00    +0.400 HD
ATOM     14  O   LIG    1        1.391   1.610   4.905  0.00  0.00    -0.530 OA
BRANCH  11  15
ATOM     15  C   LIG    1       -0.514   2.249   6.143  0.00  0.00    +0.050 C 
BRANCH  15  16
ATOM     16  C   LIG    1        0.462   2.191   7.321  0.00  0.00    +0.290 C 
BRANCH  16  18
ATOM     17  C   LIG    1        0.420   2.559   9.729  0.00  0.00    +0.540 C 
ATOM     18  N   LIG    1       -0.243   2.543   8.556  0.00  0.00    -0.730 N 
ATOM     19  H   LIG    1       -1.187   2.765   8.530  0.00  0.00    +0.400 HD
ATOM     20  O   LIG    1        1.604   2.281   9.762  0.00  0.00    -0.540 OA
BRANCH  17  22
ATOM     21  C   LIG    1        0.368   2.928  12.127  0.00  0.00    +0.150 C 
ATOM     22  C   LIG    1       -0.287   2.912  10.969  0.00  0.00    -0.090 C 
ENDBRANCH  17  22
ENDBRANCH  16  18
ENDBRANCH  15  16
ENDBRANCH  11  15
ENDBRANCH  10  12
ENDBRANCH   1  10
BRANCH   7  23
ATOM     23  O   LIG    1       -0.593   2.458  -3.356  0.00  0.00    -0.360 OA
BRANCH  23  24
ATOM     24  C   LIG    1        0.262   2.916  -4.437  0.00  0.00    +0.140 C 
ATOM     25  C   LIG    1        1.126   4.079  -3.946  0.00  0.00    +0.040 C 
ATOM     26  C   LIG    1       -0.604   3.383  -5.609  0.00  0.00    +0.080 C 
ATOM     27  C   LIG    1        1.164   1.768  -4.895  0.00  0.00    +0.040 C 
ENDBRANCH  23  24
ENDBRANCH   7  23
TORSDOF 8
