REMARK  Name = ZINCqH00000018ID.0
REMARK                            x       y       z     vdW  Elec       q    Type
REMARK                         _______ _______ _______ _____ _____    ______ ____
ROOT
ATOM      1  C   LIG    1       -1.558  -4.609  -1.577  0.00  0.00    +0.080 C 
ATOM      2  C   LIG    1       -2.324  -4.204  -0.316  0.00  0.00    +0.190 C 
ATOM      3  C   LIG    1       -1.633  -4.796   0.913  0.00  0.00    +0.080 C 
ENDROOT
BRANCH   2   4
ATOM      4  N   LIG    1       -2.347  -2.743  -0.207  0.00  0.00    -0.740 N 
ATOM      5  H   LIG    1       -3.194  -2.271  -0.198  0.00  0.00    +0.400 HD
ATOM      6  C   LIG    1       -1.191  -2.055  -0.121  0.00  0.00    +0.710 C 
ATOM      7  N   LIG    1       -1.212  -0.712  -0.021  0.00  0.00    -0.680 N 
ATOM      8  H   LIG    1       -2.058  -0.245   0.064  0.00  0.00    +0.410 HD
ATOM      9  O   LIG    1       -0.129  -2.647  -0.134  0.00  0.00    -0.560 OA
BRANCH   7  10
ATOM     10  C   LIG    1       -0.013   0.011  -0.040  0.00  0.00    +0.160 A 
ATOM     11  C   LIG    1        1.058  -0.439  -0.802  0.00  0.00    +0.020 A 
ATOM     12  C   LIG    1        2.239   0.277  -0.818  0.00  0.00    +0.030 A 
ATOM     13  C   LIG    1        2.356   1.438  -0.078  0.00  0.00    -0.020 A 
ATOM     14  C   LIG    1        1.292   1.888   0.682  0.00  0.00    +0.030 A 
ATOM     15  C   LIG    1        0.108   1.177   0.703  0.00  0.00    -0.030 A 
ENDBRANCH   7  10
ENDBRANCH   2   4
BRANCH   2  16
ATOM     16  C   LIG    1       -3.736  -4.723  -0.398  0.00  0.00    +0.520 C 
ATOM     17  N   LIG    1       -4.720  -4.111   0.290  0.00  0.00    -0.670 N 
ATOM     18  H   LIG    1       -4.533  -3.298   0.784  0.00  0.00    +0.410 HD
ATOM     19  O   LIG    1       -3.987  -5.693  -1.082  0.00  0.00    -0.500 OA
BRANCH  17  20
ATOM     20  C   LIG    1       -6.012  -4.650   0.292  0.00  0.00    +0.080 A 
ATOM     21  C   LIG    1       -6.506  -5.273  -0.837  0.00  0.00    +0.090 A 
ATOM     22  C   LIG    1       -7.810  -5.799  -0.785  0.00  0.00    -0.080 A 
ATOM     23  C   LIG    1       -8.380  -6.447  -1.893  0.00  0.00    +0.030 A 
ATOM     24  C   LIG    1       -9.645  -6.943  -1.805  0.00  0.00    +0.020 A 
ATOM     25  C   LIG    1      -10.382  -6.816  -0.629  0.00  0.00    +0.030 A 
ATOM     26  C   LIG    1       -9.861  -6.194   0.463  0.00  0.00    +0.050 A 
ATOM     27  C   LIG    1       -8.558  -5.669   0.412  0.00  0.00    +0.110 A 
ATOM     28  N   LIG    1       -8.023  -5.054   1.472  0.00  0.00    -0.450 NA
ATOM     29  C   LIG    1       -6.808  -4.564   1.440  0.00  0.00    +0.280 A 
ENDBRANCH  17  20
ENDBRANCH   2  16
TORSDOF 4
