REMARK  Name = ZINCpk00000e9GzQ.0
REMARK                            x       y       z     vdW  Elec       q    Type
REMARK                         _______ _______ _______ _____ _____    ______ ____
ROOT
ATOM      1  C   LIG    1        0.002  -0.004   0.002  0.00  0.00    +0.450 C 
ATOM      2  O   LIG    1        1.056  -0.594  -0.011  0.00  0.00    -0.500 OA
ENDROOT
BRANCH   1   3
ATOM      3  O   LIG    1       -0.016   1.338   0.009  0.00  0.00    -0.330 OA
BRANCH   3   4
ATOM      4  C   LIG    1        1.268   2.015   0.001  0.00  0.00    +0.280 C 
BRANCH   4   7
ATOM      5  C   LIG    1        3.470   3.800  -0.011  0.00  0.00    +0.330 C 
ATOM      6  N   LIG    1        2.108   4.341   0.005  0.00  0.00    -0.510 N 
ATOM      7  C   LIG    1        1.051   3.506   0.011  0.00  0.00    +0.510 C 
ATOM      8  O   LIG    1       -0.076   3.954   0.024  0.00  0.00    -0.480 OA
BRANCH   6   9
ATOM      9  C   LIG    1        1.908   5.717   0.015  0.00  0.00    +0.240 A 
ATOM     10  N   LIG    1        2.852   6.605   0.010  0.00  0.00    -0.510 NA
ATOM     11  C   LIG    1        2.481   7.872   0.021  0.00  0.00    +0.240 A 
ATOM     12  C   LIG    1        1.160   8.063   0.034  0.00  0.00    -0.130 A 
ATOM     13  S   LIG    1        0.379   6.483   0.026  0.00  0.00    +0.240 S 
ENDBRANCH   6   9
ENDBRANCH   4   7
ENDBRANCH   3   4
ENDBRANCH   1   3
BRANCH   1  14
ATOM     14  C   LIG    1       -1.293  -0.775   0.010  0.00  0.00    +0.390 C 
BRANCH  14  15
ATOM     15  N   LIG    1       -1.005  -2.212  -0.000  0.00  0.00    -0.590 N 
ATOM     16  C   LIG    1       -0.859  -2.889   1.282  0.00  0.00    +0.300 C 
ATOM     17  C   LIG    1       -0.118  -4.215   1.107  0.00  0.00    -0.020 C 
ATOM     18  C   LIG    1       -0.793  -5.008  -0.019  0.00  0.00    +0.070 C 
ATOM     19  C   LIG    1       -0.555  -4.273  -1.340  0.00  0.00    +0.100 C 
ATOM     20  C   LIG    1       -0.899  -2.819  -1.183  0.00  0.00    +0.520 C 
ATOM     21  O   LIG    1       -1.086  -2.162  -2.184  0.00  0.00    -0.540 OA
BRANCH  17  22
ATOM     22  C   LIG    1       -0.178  -5.013   2.410  0.00  0.00    +0.460 C 
ATOM     23  F   LIG    1        0.424  -4.277   3.436  0.00  0.00    -0.180 F 
ATOM     24  F   LIG    1        0.500  -6.225   2.246  0.00  0.00    -0.180 F 
ATOM     25  F   LIG    1       -1.514  -5.267   2.740  0.00  0.00    -0.180 F 
ENDBRANCH  17  22
ENDBRANCH  14  15
ENDBRANCH   1  14
TORSDOF 7
