REMARK  Name = ZINCqH0000034gNL.0
REMARK                            x       y       z     vdW  Elec       q    Type
REMARK                         _______ _______ _______ _____ _____    ______ ____
ROOT
ATOM      1  N   LIG    1        9.414   5.158  -2.178  0.00  0.00    -0.680 N 
ATOM      2  H   LIG    1        9.879   6.010  -2.176  0.00  0.00    +0.410 HD
ATOM      3  C   LIG    1        8.121   5.096  -1.804  0.00  0.00    +0.520 C 
ATOM      4  O   LIG    1        7.506   4.057  -1.921  0.00  0.00    -0.520 OA
ENDROOT
BRANCH   1  10
ATOM      5  C   LIG    1       10.292   2.970  -1.654  0.00  0.00    -0.070 A 
ATOM      6  C   LIG    1       10.952   1.821  -2.043  0.00  0.00    +0.010 A 
ATOM      7  C   LIG    1       11.419   1.695  -3.339  0.00  0.00    +0.020 A 
ATOM      8  C   LIG    1       11.221   2.716  -4.250  0.00  0.00    +0.010 A 
ATOM      9  C   LIG    1       10.557   3.865  -3.869  0.00  0.00    -0.080 A 
ATOM     10  C   LIG    1       10.087   3.995  -2.568  0.00  0.00    +0.130 A 
BRANCH   5  12
ATOM     11  C   LIG    1        9.977   1.783   0.500  0.00  0.00    +0.030 C 
ATOM     12  C   LIG    1        9.789   3.108  -0.240  0.00  0.00    +0.060 C 
ENDBRANCH   5  12
BRANCH   9  13
ATOM     13  C   LIG    1       10.341   4.978  -4.862  0.00  0.00    +0.060 C 
ATOM     14  C   LIG    1       11.458   6.013  -4.718  0.00  0.00    +0.020 C 
ENDBRANCH   9  13
ENDBRANCH   1  10
BRANCH   3  15
ATOM     15  C   LIG    1        7.439   6.316  -1.242  0.00  0.00    +0.050 C 
BRANCH  15  16
ATOM     16  C   LIG    1        5.987   5.977  -0.900  0.00  0.00    +0.390 C 
BRANCH  16  17
ATOM     17  N   LIG    1        5.324   7.163  -0.353  0.00  0.00    -0.450 N 
ATOM     18  N   LIG    1        5.265   7.540   0.997  0.00  0.00    -0.260 NA
ATOM     19  C   LIG    1        4.585   8.650   1.070  0.00  0.00    +0.330 A 
ATOM     20  O   LIG    1        4.205   9.017  -0.174  0.00  0.00    -0.260 OA
ATOM     21  C   LIG    1        4.658   8.107  -1.052  0.00  0.00    +0.610 A 
ATOM     22  O   LIG    1        4.496   8.128  -2.258  0.00  0.00    -0.470 OA
BRANCH  19  23
ATOM     23  C   LIG    1        4.283   9.387   2.308  0.00  0.00    -0.170 A 
ATOM     24  C   LIG    1        3.582  10.540   2.378  0.00  0.00    +0.090 A 
ATOM     25  C   LIG    1        3.435  11.046   3.651  0.00  0.00    +0.010 A 
ATOM     26  C   LIG    1        3.997  10.317   4.621  0.00  0.00    -0.010 A 
ATOM     27  S   LIG    1        4.781   8.905   3.924  0.00  0.00    +0.210 S 
ENDBRANCH  19  23
ENDBRANCH  16  17
ENDBRANCH  15  16
ENDBRANCH   3  15
TORSDOF 7
