REMARK  Name = ZINCvU0000000GA8.0
REMARK                            x       y       z     vdW  Elec       q    Type
REMARK                         _______ _______ _______ _____ _____    ______ ____
ROOT
ATOM      1  C   LIG    1        1.188  12.006   0.051  0.00  0.00    +0.160 C 
ATOM      2  N   LIG    1        1.504  10.757   0.042  0.00  0.00    -0.240 NA
ATOM      3  N   LIG    1        2.876  10.517   0.027  0.00  0.00    -0.460 N 
ATOM      4  C   LIG    1        3.585  11.806   0.032  0.00  0.00    +0.330 C 
ATOM      5  C   LIG    1        3.459   9.302   0.016  0.00  0.00    +0.580 C 
ATOM      6  O   LIG    1        4.668   9.210   0.004  0.00  0.00    -0.500 OA
ATOM      7  C   LIG    1        2.446  12.845   0.043  0.00  0.00    +0.100 C 
ENDROOT
BRANCH   1  12
ATOM      8  C   LIG    1       -4.179  14.072   0.118  0.00  0.00    +0.100 C 
ATOM      9  C   LIG    1       -2.773  13.531   0.100  0.00  0.00    -0.060 A 
ATOM     10  C   LIG    1       -2.562  12.164   0.090  0.00  0.00    +0.010 A 
ATOM     11  C   LIG    1       -1.277  11.661   0.075  0.00  0.00    +0.060 A 
ATOM     12  C   LIG    1       -0.188  12.536   0.068  0.00  0.00    -0.050 A 
ATOM     13  C   LIG    1       -0.409  13.915   0.084  0.00  0.00    +0.050 A 
ATOM     14  C   LIG    1       -1.699  14.404   0.094  0.00  0.00    +0.010 A 
ENDBRANCH   1  12
BRANCH   4  15
ATOM     15  C   LIG    1        4.438  11.938   1.268  0.00  0.00    -0.030 A 
ATOM     16  C   LIG    1        5.662  12.492   1.324  0.00  0.00    -0.030 A 
ATOM     17  C   LIG    1        6.091  12.404   2.668  0.00  0.00    -0.060 A 
ATOM     18  C   LIG    1        5.102  11.802   3.354  0.00  0.00    +0.170 A 
ATOM     19  O   LIG    1        4.101  11.527   2.502  0.00  0.00    -0.170 OA
ENDBRANCH   4  15
BRANCH   5  20
ATOM     20  C   LIG    1        2.608   8.058   0.018  0.00  0.00    +0.130 C 
BRANCH  20  21
ATOM     21  S   LIG    1        3.676   6.597   0.001  0.00  0.00    +0.150 S 
BRANCH  21  22
ATOM     22  C   LIG    1        2.456   5.326   0.006  0.00  0.00    +0.120 A 
ATOM     23  N   LIG    1        1.155   5.499   0.020  0.00  0.00    -0.280 NA
ATOM     24  N   LIG    1        0.570   4.353   0.020  0.00  0.00    -0.250 NA
ATOM     25  C   LIG    1        1.474   3.401   0.006  0.00  0.00    +0.240 A 
ATOM     26  O   LIG    1        2.687   3.998   0.003  0.00  0.00    -0.200 OA
BRANCH  25  27
ATOM     27  C   LIG    1        1.215   1.954   0.001  0.00  0.00    -0.150 A 
ATOM     28  C   LIG    1       -0.017   1.374   0.010  0.00  0.00    +0.100 A 
ATOM     29  C   LIG    1        0.002  -0.004   0.002  0.00  0.00    +0.020 A 
ATOM     30  C   LIG    1        1.219  -0.556  -0.013  0.00  0.00    -0.010 A 
ATOM     31  S   LIG    1        2.449   0.700  -0.018  0.00  0.00    +0.180 S 
ENDBRANCH  25  27
ENDBRANCH  21  22
ENDBRANCH  20  21
ENDBRANCH   5  20
TORSDOF 6
