REMARK  Name = ZINCkj00000xQFSP.1
REMARK                            x       y       z     vdW  Elec       q    Type
REMARK                         _______ _______ _______ _____ _____    ______ ____
ROOT
ATOM      1  C   LIG    1       -4.563   0.741   1.348  0.00  0.00    +0.320 C 
ATOM      2  N   LIG    1       -4.050   1.088   0.016  0.00  0.00    -0.380 N 
ATOM      3  C   LIG    1       -4.682   2.331  -0.443  0.00  0.00    +0.270 C 
ATOM      4  C   LIG    1       -4.432   3.433   0.568  0.00  0.00    +0.100 C 
ATOM      5  C   LIG    1       -2.931   3.656   0.748  0.00  0.00    +0.160 C 
ATOM      6  O   LIG    1       -2.362   4.148  -0.466  0.00  0.00    -0.370 OA
ATOM      7  C   LIG    1       -0.968   4.457  -0.374  0.00  0.00    +0.240 C 
ATOM      8  C   LIG    1       -0.187   3.181  -0.043  0.00  0.00    +0.260 C 
ATOM      9  N   LIG    1       -0.793   2.553   1.142  0.00  0.00    -0.610 N 
ATOM     10  C   LIG    1       -0.040   2.192   2.200  0.00  0.00    +0.570 C 
ATOM     11  O   LIG    1       -0.571   1.768   3.208  0.00  0.00    -0.480 OA
ATOM     12  C   LIG    1       -2.254   2.335   1.129  0.00  0.00    +0.230 C 
ATOM     13  C   LIG    1       -2.595   1.269   0.086  0.00  0.00    +0.250 C 
ATOM     14  H   LIG    1       -4.264   0.344  -0.631  0.00  0.00    +0.430 HD
ENDROOT
BRANCH  10  15
ATOM     15  C   LIG    1        1.435   2.312   2.135  0.00  0.00    -0.070 A 
ATOM     16  C   LIG    1        2.143   1.869   1.014  0.00  0.00    +0.010 A 
ATOM     17  C   LIG    1        3.517   2.005   0.993  0.00  0.00    +0.300 A 
ATOM     18  N   LIG    1        4.161   2.534   2.014  0.00  0.00    -0.450 NA
ATOM     19  C   LIG    1        3.534   2.960   3.092  0.00  0.00    +0.320 A 
ATOM     20  C   LIG    1        2.159   2.867   3.196  0.00  0.00    -0.110 A 
ATOM     21 BR   LIG    1        1.269   3.480   4.748  0.00  0.00    +0.000 Br
ENDBRANCH  10  15
TORSDOF 1
