REMARK  Name = ZINCkj00000xQFSP.0
REMARK                            x       y       z     vdW  Elec       q    Type
REMARK                         _______ _______ _______ _____ _____    ______ ____
ROOT
ATOM      1  C   LIG    1        5.522  -3.195  -2.292  0.00  0.00    +0.320 C 
ATOM      2  N   LIG    1        5.287  -2.499  -1.020  0.00  0.00    -0.380 N 
ATOM      3  C   LIG    1        5.183  -3.483   0.064  0.00  0.00    +0.270 C 
ATOM      4  C   LIG    1        5.032  -2.754   1.400  0.00  0.00    +0.100 C 
ATOM      5  C   LIG    1        3.772  -1.889   1.372  0.00  0.00    +0.170 C 
ATOM      6  O   LIG    1        2.615  -2.717   1.256  0.00  0.00    -0.370 OA
ATOM      7  C   LIG    1        1.378  -2.000   1.285  0.00  0.00    +0.240 C 
ATOM      8  C   LIG    1        1.319  -1.044   0.088  0.00  0.00    +0.260 C 
ATOM      9  N   LIG    1        2.547  -0.232   0.078  0.00  0.00    -0.610 N 
ATOM     10  C   LIG    1        2.492   1.111  -0.016  0.00  0.00    +0.570 C 
ATOM     11  O   LIG    1        3.519   1.757  -0.097  0.00  0.00    -0.490 OA
ATOM     12  C   LIG    1        3.838  -0.936   0.168  0.00  0.00    +0.230 C 
ATOM     13  C   LIG    1        4.041  -1.728  -1.108  0.00  0.00    +0.250 C 
ATOM     14  H   LIG    1        6.056  -1.873  -0.833  0.00  0.00    +0.430 HD
ENDROOT
BRANCH  10  15
ATOM     15  C   LIG    1        1.182   1.800  -0.020  0.00  0.00    -0.070 A 
ATOM     16  C   LIG    1        0.173   1.421  -0.911  0.00  0.00    +0.000 A 
ATOM     17  C   LIG    1       -1.033   2.095  -0.884  0.00  0.00    +0.300 A 
ATOM     18  N   LIG    1       -1.242   3.075  -0.028  0.00  0.00    -0.450 NA
ATOM     19  C   LIG    1       -0.320   3.465   0.829  0.00  0.00    +0.320 A 
ATOM     20  C   LIG    1        0.918   2.849   0.868  0.00  0.00    -0.110 A 
ATOM     21 BR   LIG    1        2.234   3.416   2.102  0.00  0.00    -0.000 Br
ENDBRANCH  10  15
TORSDOF 1
