REMARK  Name = ZINCvU0000000IT5.0
REMARK                            x       y       z     vdW  Elec       q    Type
REMARK                         _______ _______ _______ _____ _____    ______ ____
ROOT
ATOM      1  C   LIG    1       -0.078   0.113  -0.185  0.00  0.00    +0.150 A 
ATOM      2  N   LIG    1        0.051   1.322   0.314  0.00  0.00    -0.290 NA
ATOM      3  N   LIG    1        1.269   1.716   0.208  0.00  0.00    -0.260 NA
ATOM      4  C   LIG    1        1.993   0.783  -0.366  0.00  0.00    +0.230 A 
ATOM      5  N   LIG    1        1.152  -0.272  -0.636  0.00  0.00    -0.450 N 
ENDROOT
BRANCH   4   6
ATOM      6  C   LIG    1        3.439   0.853  -0.666  0.00  0.00    -0.010 A 
ATOM      7  C   LIG    1        4.229  -0.295  -0.582  0.00  0.00    +0.040 A 
ATOM      8  C   LIG    1        5.576  -0.224  -0.868  0.00  0.00    +0.030 A 
ATOM      9  C   LIG    1        6.148   0.985  -1.227  0.00  0.00    -0.020 A 
ATOM     10  C   LIG    1        5.371   2.128  -1.307  0.00  0.00    +0.040 A 
ATOM     11 CL   LIG    1        7.846   1.067  -1.579  0.00  0.00    -0.060 Cl
ATOM     12  C   LIG    1        4.022   2.069  -1.028  0.00  0.00    +0.080 A 
ENDBRANCH   4   6
BRANCH   1  13
ATOM     13  S   LIG    1       -1.562  -0.834  -0.260  0.00  0.00    +0.080 S 
BRANCH  13  14
ATOM     14  C   LIG    1       -2.716   0.327   0.513  0.00  0.00    +0.110 C 
BRANCH  14  17
ATOM     15  C   LIG    1       -4.922   1.783   1.540  0.00  0.00    +0.300 C 
ATOM     16  N   LIG    1       -5.118   0.401   1.096  0.00  0.00    -0.570 N 
ATOM     17  C   LIG    1       -4.091  -0.287   0.559  0.00  0.00    +0.540 C 
ATOM     18  O   LIG    1       -4.273  -1.401   0.114  0.00  0.00    -0.510 OA
BRANCH  16  19
ATOM     19  C   LIG    1       -6.372  -0.205   1.228  0.00  0.00    +0.140 A 
ATOM     20  C   LIG    1       -7.488   0.368   0.632  0.00  0.00    +0.010 A 
ATOM     21  C   LIG    1       -8.724  -0.236   0.760  0.00  0.00    +0.020 A 
ATOM     22  C   LIG    1       -8.853  -1.403   1.490  0.00  0.00    +0.010 A 
ATOM     23  C   LIG    1       -7.745  -1.973   2.090  0.00  0.00    +0.020 A 
ATOM     24  C   LIG    1       -6.505  -1.377   1.961  0.00  0.00    +0.010 A 
ENDBRANCH  16  19
ENDBRANCH  14  17
ENDBRANCH  13  14
ENDBRANCH   1  13
BRANCH   5  25
ATOM     25  C   LIG    1        1.504  -1.544  -1.272  0.00  0.00    +0.360 C 
BRANCH  25  26
ATOM     26  C   LIG    1        1.462  -1.384  -2.770  0.00  0.00    -0.130 A 
ATOM     27  C   LIG    1        0.290  -1.634  -3.460  0.00  0.00    +0.040 A 
ATOM     28  C   LIG    1        0.250  -1.482  -4.833  0.00  0.00    +0.010 A 
ATOM     29  C   LIG    1        1.385  -1.091  -5.519  0.00  0.00    +0.030 A 
ATOM     30  C   LIG    1        2.558  -0.846  -4.830  0.00  0.00    +0.010 A 
ATOM     31  C   LIG    1        2.596  -0.992  -3.456  0.00  0.00    +0.030 A 
ENDBRANCH  25  26
ENDBRANCH   5  25
TORSDOF 7
