REMARK  Name = ZINCrD000000Cn22.0
REMARK                            x       y       z     vdW  Elec       q    Type
REMARK                         _______ _______ _______ _____ _____    ______ ____
ROOT
ATOM      1  C   LIG    1       -1.282   2.997   0.635  0.00  0.00    +0.050 A 
ATOM      2  C   LIG    1       -1.652   3.780  -0.456  0.00  0.00    +0.010 A 
ATOM      3  C   LIG    1       -2.882   3.592  -1.056  0.00  0.00    +0.020 A 
ATOM      4  C   LIG    1       -3.757   2.633  -0.575  0.00  0.00    -0.010 A 
ATOM      5  C   LIG    1       -3.411   1.851   0.508  0.00  0.00    +0.010 A 
ATOM      6  C   LIG    1       -2.172   2.023   1.124  0.00  0.00    -0.050 A 
ENDROOT
BRANCH   6   7
ATOM      7  C   LIG    1       -1.796   1.189   2.283  0.00  0.00    +0.560 C 
ATOM      8  N   LIG    1       -2.578   1.169   3.381  0.00  0.00    -0.640 N 
ATOM      9  C   LIG    1       -3.860   1.891   3.416  0.00  0.00    +0.310 C 
ATOM     10  C   LIG    1       -3.870   2.775   4.660  0.00  0.00    +0.250 C 
ATOM     11  N   LIG    1       -3.631   1.953   5.857  0.00  0.00    -0.380 N 
ATOM     12  C   LIG    1       -3.755   2.828   7.033  0.00  0.00    +0.250 C 
ATOM     13  C   LIG    1       -3.572   2.018   8.316  0.00  0.00    +0.060 C 
ATOM     14  C   LIG    1       -2.174   1.391   8.309  0.00  0.00    +0.030 C 
ATOM     15  C   LIG    1       -2.030   0.519   7.060  0.00  0.00    +0.060 C 
ATOM     16  C   LIG    1       -2.291   1.359   5.805  0.00  0.00    +0.160 C 
ATOM     17  H   LIG    1       -4.322   1.220   5.907  0.00  0.00    +0.420 HD
ATOM     18  C   LIG    1       -2.176   0.433   4.587  0.00  0.00    +0.320 C 
ATOM     19  O   LIG    1       -0.782   0.519   2.247  0.00  0.00    -0.430 OA
ENDBRANCH   6   7
BRANCH   1  25
ATOM     20  C   LIG    1        1.001   2.166   1.243  0.00  0.00    -0.090 A 
ATOM     21  C   LIG    1        2.241   2.367   1.850  0.00  0.00    +0.040 A 
ATOM     22  C   LIG    1        2.515   3.565   2.478  0.00  0.00    -0.010 A 
ATOM     23  C   LIG    1        1.566   4.572   2.513  0.00  0.00    -0.030 A 
ATOM     24  C   LIG    1        0.333   4.393   1.918  0.00  0.00    -0.010 A 
ATOM     25  C   LIG    1        0.036   3.192   1.278  0.00  0.00    -0.060 A 
BRANCH  20  27
ATOM     26  O   LIG    1        1.542   0.002   0.543  0.00  0.00    -0.690 OA
ATOM     27  C   LIG    1        0.702   0.890   0.571  0.00  0.00    +0.540 C 
ATOM     28  O   LIG    1       -0.387   0.718   0.041  0.00  0.00    -0.670 OA
ENDBRANCH  20  27
ENDBRANCH   1  25
TORSDOF 3
