REMARK  Name = ZINCrD000000Cn22.1
REMARK                            x       y       z     vdW  Elec       q    Type
REMARK                         _______ _______ _______ _____ _____    ______ ____
ROOT
ATOM      1  C   LIG    1        4.499  -2.029   1.139  0.00  0.00    +0.030 A 
ATOM      2  C   LIG    1        4.839  -2.799   0.030  0.00  0.00    +0.010 A 
ATOM      3  C   LIG    1        5.231  -2.186  -1.143  0.00  0.00    +0.010 A 
ATOM      4  C   LIG    1        5.301  -0.805  -1.223  0.00  0.00    +0.000 A 
ATOM      5  C   LIG    1        4.973  -0.024  -0.133  0.00  0.00    +0.030 A 
ATOM      6  C   LIG    1        4.569  -0.626   1.058  0.00  0.00    -0.050 A 
ENDROOT
BRANCH   6   7
ATOM      7  C   LIG    1        4.217   0.204   2.227  0.00  0.00    +0.580 C 
ATOM      8  N   LIG    1        5.014   0.211   3.314  0.00  0.00    -0.630 N 
ATOM      9  C   LIG    1        6.297  -0.509   3.316  0.00  0.00    +0.310 C 
ATOM     10  C   LIG    1        7.390   0.450   3.800  0.00  0.00    +0.250 C 
ATOM     11  N   LIG    1        7.010   1.006   5.105  0.00  0.00    -0.380 N 
ATOM     12  C   LIG    1        8.107   1.840   5.615  0.00  0.00    +0.260 C 
ATOM     13  C   LIG    1        8.439   2.929   4.593  0.00  0.00    +0.050 C 
ATOM     14  C   LIG    1        7.202   3.800   4.362  0.00  0.00    +0.040 C 
ATOM     15  C   LIG    1        6.039   2.912   3.912  0.00  0.00    +0.060 C 
ATOM     16  C   LIG    1        5.800   1.827   4.964  0.00  0.00    +0.160 C 
ATOM     17  H   LIG    1        6.832   0.253   5.753  0.00  0.00    +0.420 HD
ATOM     18  C   LIG    1        4.630   0.944   4.530  0.00  0.00    +0.310 C 
ATOM     19  O   LIG    1        3.208   0.882   2.210  0.00  0.00    -0.460 OA
ENDBRANCH   6   7
BRANCH   1  25
ATOM     20  C   LIG    1        2.762  -2.500   2.881  0.00  0.00    -0.110 A 
ATOM     21  C   LIG    1        2.374  -3.122   4.068  0.00  0.00    +0.040 A 
ATOM     22  C   LIG    1        3.273  -3.910   4.759  0.00  0.00    -0.010 A 
ATOM     23  C   LIG    1        4.561  -4.087   4.282  0.00  0.00    -0.010 A 
ATOM     24  C   LIG    1        4.963  -3.480   3.109  0.00  0.00    -0.010 A 
ATOM     25  C   LIG    1        4.072  -2.682   2.397  0.00  0.00    -0.040 A 
BRANCH  20  27
ATOM     26  O   LIG    1        0.671  -1.503   2.562  0.00  0.00    -0.680 OA
ATOM     27  C   LIG    1        1.807  -1.658   2.138  0.00  0.00    +0.510 C 
ATOM     28  O   LIG    1        2.151  -1.115   1.098  0.00  0.00    -0.650 OA
ENDBRANCH  20  27
ENDBRANCH   1  25
TORSDOF 3
