REMARK  Name = ZINCrH00000No4I9.0
REMARK                            x       y       z     vdW  Elec       q    Type
REMARK                         _______ _______ _______ _____ _____    ______ ____
ROOT
ATOM      1  C   LIG    1        1.280   2.106   0.004  0.00  0.00    +0.030 C 
ATOM      2  C   LIG    1        2.104   1.739   1.240  0.00  0.00    +0.040 C 
ATOM      3  C   LIG    1        3.432   2.502   1.208  0.00  0.00    +0.280 C 
ATOM      4  N   LIG    1        3.150   3.938   1.075  0.00  0.00    -0.610 N 
ATOM      5  C   LIG    1        2.291   4.390  -0.028  0.00  0.00    +0.290 C 
ATOM      6  C   LIG    1        3.668   4.824   1.949  0.00  0.00    +0.550 C 
ATOM      7  O   LIG    1        4.299   4.430   2.913  0.00  0.00    -0.540 OA
ATOM      8  C   LIG    1        0.976   3.606   0.018  0.00  0.00    +0.050 C 
ENDROOT
BRANCH   1   9
ATOM      9  C   LIG    1       -0.013   1.331   0.015  0.00  0.00    +0.470 C 
ATOM     10  O   LIG    1       -1.069   1.918   0.028  0.00  0.00    -0.500 OA
BRANCH   9  11
ATOM     11  O   LIG    1        0.009  -0.011   0.006  0.00  0.00    -0.350 OA
BRANCH  11  12
ATOM     12  C   LIG    1       -1.274  -0.691   0.017  0.00  0.00    +0.320 C 
BRANCH  12  17
ATOM     13  C   LIG    1       -0.498  -5.979  -0.954  0.00  0.00    +0.180 C 
ATOM     14  C   LIG    1       -0.701  -4.576  -0.443  0.00  0.00    +0.060 A 
ATOM     15  N   LIG    1       -0.737  -4.242   0.803  0.00  0.00    -0.480 NA
ATOM     16  C   LIG    1       -0.923  -2.966   1.078  0.00  0.00    +0.110 A 
ATOM     17  C   LIG    1       -1.052  -2.181   0.004  0.00  0.00    -0.260 A 
ATOM     18  C   LIG    1       -0.986  -2.437   2.487  0.00  0.00    +0.150 C 
ATOM     19  S   LIG    1       -0.925  -3.198  -1.429  0.00  0.00    +0.140 S 
ENDBRANCH  12  17
ENDBRANCH  11  12
ENDBRANCH   9  11
ENDBRANCH   1   9
BRANCH   6  20
ATOM     20  C   LIG    1        3.473   6.260   1.739  0.00  0.00    -0.090 C 
ATOM     21  C   LIG    1        4.074   7.148   2.555  0.00  0.00    +0.130 C 
BRANCH  21  22
ATOM     22  C   LIG    1        3.878   8.592   2.344  0.00  0.00    -0.080 A 
ATOM     23  C   LIG    1        3.072   9.045   1.295  0.00  0.00    +0.030 A 
ATOM     24  C   LIG    1        2.889  10.399   1.107  0.00  0.00    +0.010 A 
ATOM     25  C   LIG    1        3.508  11.308   1.946  0.00  0.00    +0.020 A 
ATOM     26  C   LIG    1        4.312  10.867   2.984  0.00  0.00    +0.010 A 
ATOM     27  C   LIG    1        4.500   9.517   3.188  0.00  0.00    +0.040 A 
ENDBRANCH  21  22
ENDBRANCH   6  20
TORSDOF 6
