REMARK  Name = ZINCrD00000F5LEM.0
REMARK                            x       y       z     vdW  Elec       q    Type
REMARK                         _______ _______ _______ _____ _____    ______ ____
ROOT
ATOM      1  C   LIG    1       -5.360   5.080   0.856  0.00  0.00    +0.260 C 
ATOM      2  C   LIG    1       -5.737   3.598   0.809  0.00  0.00    +0.090 C 
ENDROOT
BRANCH   1  11
ATOM      3  C   LIG    1       -0.013   1.086   0.008  0.00  0.00    +0.100 C 
ATOM      4  C   LIG    1       -0.718   1.572   1.248  0.00  0.00    +0.540 C 
ATOM      5  N   LIG    1       -0.857   2.894   1.470  0.00  0.00    -0.650 N 
ATOM      6  C   LIG    1       -0.469   4.131   0.773  0.00  0.00    +0.280 C 
ATOM      7  C   LIG    1       -1.656   4.816   1.456  0.00  0.00    -0.090 C 
ATOM      8  C   LIG    1       -1.359   6.231   1.945  0.00  0.00    +0.040 C 
ATOM      9  C   LIG    1       -2.561   6.741   2.750  0.00  0.00    +0.040 C 
ATOM     10  C   LIG    1       -3.822   6.637   1.889  0.00  0.00    +0.170 C 
ATOM     11  N   LIG    1       -4.063   5.235   1.526  0.00  0.00    -0.520 NA
ATOM     12  C   LIG    1       -2.972   4.708   0.692  0.00  0.00    +0.220 C 
ATOM     13  C   LIG    1       -1.458   3.734   2.518  0.00  0.00    +0.290 C 
ATOM     14  O   LIG    1       -1.161   0.773   2.046  0.00  0.00    -0.540 OA
ENDBRANCH   1  11
BRANCH   1  15
ATOM     15  C   LIG    1       -6.414   5.842   1.617  0.00  0.00    +0.160 A 
ATOM     16  N   LIG    1       -6.579   5.844   2.911  0.00  0.00    -0.250 NA
ATOM     17  N   LIG    1       -7.571   6.603   3.217  0.00  0.00    -0.280 NA
ATOM     18  C   LIG    1       -8.078   7.116   2.120  0.00  0.00    +0.210 A 
ATOM     19  O   LIG    1       -7.350   6.648   1.087  0.00  0.00    -0.220 OA
BRANCH  18  20
ATOM     20  C   LIG    1       -9.228   8.040   2.034  0.00  0.00    -0.030 A 
ATOM     21  C   LIG    1       -9.657   8.513   0.793  0.00  0.00    +0.040 A 
ATOM     22  C   LIG    1      -10.735   9.371   0.720  0.00  0.00    +0.010 A 
ATOM     23  C   LIG    1      -11.383   9.772   1.874  0.00  0.00    -0.060 A 
ATOM     24  C   LIG    1      -10.960   9.312   3.108  0.00  0.00    -0.090 A 
ATOM     25  C   LIG    1      -11.672   9.754   4.361  0.00  0.00    +0.110 C 
ATOM     26  C   LIG    1      -12.556  10.714   1.787  0.00  0.00    +0.110 C 
ATOM     27  C   LIG    1       -9.887   8.449   3.195  0.00  0.00    +0.080 A 
ENDBRANCH  18  20
ENDBRANCH   1  15
TORSDOF 3
