REMARK  Name = ZINCvU0000000EOm.0
REMARK                            x       y       z     vdW  Elec       q    Type
REMARK                         _______ _______ _______ _____ _____    ______ ____
ROOT
ATOM      1  C   LIG    1       -2.889   7.680   0.631  0.00  0.00    -0.060 A 
ATOM      2  C   LIG    1       -4.132   7.189   1.049  0.00  0.00    +0.050 A 
ATOM      3  C   LIG    1       -5.257   7.972   0.920  0.00  0.00    +0.040 A 
ATOM      4  C   LIG    1       -5.162   9.245   0.368  0.00  0.00    +0.150 A 
ATOM      5  C   LIG    1       -3.930   9.735  -0.053  0.00  0.00    +0.040 A 
ATOM      6  C   LIG    1       -2.799   8.962   0.075  0.00  0.00    +0.060 A 
ENDROOT
BRANCH   4   7
ATOM      7  N   LIG    1       -6.309  10.035   0.234  0.00  0.00    -0.330 N 
ATOM      8  N   LIG    1       -6.593  11.228   0.915  0.00  0.00    -0.060 NA
ATOM      9  N   LIG    1       -7.741  11.652   0.514  0.00  0.00    -0.230 NA
ATOM     10  C   LIG    1       -8.247  10.809  -0.388  0.00  0.00    +0.120 A 
ATOM     11  C   LIG    1       -7.376   9.795  -0.579  0.00  0.00    +0.080 A 
BRANCH  11  12
ATOM     12  C   LIG    1       -7.551   8.625  -1.512  0.00  0.00    +0.020 C 
ATOM     13  C   LIG    1       -6.191   7.974  -1.774  0.00  0.00    +0.020 C 
ATOM     14  C   LIG    1       -6.368   6.786  -2.721  0.00  0.00    -0.010 C 
ATOM     15  C   LIG    1       -7.309   5.762  -2.084  0.00  0.00    +0.020 C 
ATOM     16  C   LIG    1       -8.669   6.412  -1.823  0.00  0.00    +0.000 C 
ATOM     17  C   LIG    1       -9.264   6.899  -3.146  0.00  0.00    +0.030 C 
ATOM     18  C   LIG    1       -8.323   7.923  -3.783  0.00  0.00    +0.000 C 
ATOM     19  C   LIG    1       -6.963   7.272  -4.044  0.00  0.00    +0.020 C 
ATOM     20  C   LIG    1       -8.492   7.601  -0.876  0.00  0.00    +0.030 C 
ATOM     21  C   LIG    1       -8.146   9.111  -2.835  0.00  0.00    +0.040 C 
ENDBRANCH  11  12
ENDBRANCH   4   7
BRANCH   1  23
ATOM     22  C   LIG    1       -1.774   5.612   1.307  0.00  0.00    -0.090 C 
ATOM     23  C   LIG    1       -1.684   6.850   0.770  0.00  0.00    +0.130 C 
BRANCH  22  25
ATOM     24  O   LIG    1        0.467   5.238   1.073  0.00  0.00    -0.460 OA
ATOM     25  C   LIG    1       -0.612   4.811   1.442  0.00  0.00    +0.420 C 
BRANCH  25  26
ATOM     26  C   LIG    1       -0.710   3.457   2.029  0.00  0.00    -0.160 A 
ATOM     27  C   LIG    1        0.432   2.666   2.163  0.00  0.00    +0.070 A 
ATOM     28  C   LIG    1        0.334   1.405   2.711  0.00  0.00    +0.000 A 
ATOM     29  C   LIG    1       -0.894   0.922   3.129  0.00  0.00    +0.040 A 
ATOM     30  C   LIG    1       -2.032   1.699   2.994  0.00  0.00    +0.000 A 
ATOM     31  C   LIG    1       -1.946   2.965   2.452  0.00  0.00    +0.050 A 
ENDBRANCH  25  26
ENDBRANCH  22  25
ENDBRANCH   1  23
TORSDOF 5
