REMARK  Name = ZINCnE000001Hb9L.0
REMARK                            x       y       z     vdW  Elec       q    Type
REMARK                         _______ _______ _______ _____ _____    ______ ____
ROOT
ATOM      1  C   LIG    1       -0.757   1.932  -1.230  0.00  0.00    +0.210 C 
ENDROOT
BRANCH   1   2
ATOM      2  N   LIG    1       -2.163   1.525  -1.160  0.00  0.00    -0.740 N 
ATOM      3  H   LIG    1       -2.417   0.746  -0.640  0.00  0.00    +0.380 HD
ATOM      4  C   LIG    1       -3.103   2.232  -1.818  0.00  0.00    +0.570 C 
ATOM      5  O   LIG    1       -2.784   3.207  -2.470  0.00  0.00    -0.510 OA
BRANCH   4   6
ATOM      6  C   LIG    1       -4.518   1.822  -1.747  0.00  0.00    -0.290 A 
ATOM      7  C   LIG    1       -4.889   0.701  -1.000  0.00  0.00    +0.060 A 
ATOM      8  C   LIG    1       -6.213   0.323  -0.938  0.00  0.00    -0.170 A 
ATOM      9  C   LIG    1       -7.179   1.049  -1.613  0.00  0.00    +0.060 A 
ATOM     10  C   LIG    1       -6.827   2.160  -2.357  0.00  0.00    -0.170 A 
ATOM     11 CL   LIG    1       -8.048   3.062  -3.200  0.00  0.00    -0.110 Cl
ATOM     12  C   LIG    1       -5.500   2.558  -2.425  0.00  0.00    +0.310 A 
ATOM     13  O   LIG    1       -5.152   3.651  -3.150  0.00  0.00    -0.640 OA
ENDBRANCH   4   6
ENDBRANCH   1   2
BRANCH   1  15
ATOM     14  C   LIG    1       -0.774   1.939  -3.728  0.00  0.00    +0.020 C 
ATOM     15  C   LIG    1       -0.116   1.337  -2.485  0.00  0.00    +0.010 C 
ENDBRANCH   1  15
BRANCH   1  16
ATOM     16  C   LIG    1       -0.017   1.425   0.010  0.00  0.00    +0.260 C 
BRANCH  16  17
ATOM     17  C   LIG    1       -0.723   1.911   1.250  0.00  0.00    -0.140 A 
ATOM     18  C   LIG    1       -1.650   1.103   1.879  0.00  0.00    +0.050 A 
ATOM     19  C   LIG    1       -2.298   1.548   3.016  0.00  0.00    +0.010 A 
ATOM     20  C   LIG    1       -2.018   2.803   3.525  0.00  0.00    +0.040 A 
ATOM     21  C   LIG    1       -1.091   3.613   2.898  0.00  0.00    -0.020 A 
ATOM     22  C   LIG    1       -0.437   3.165   1.762  0.00  0.00    +0.110 A 
ATOM     23  F   LIG    1        0.474   3.954   1.151  0.00  0.00    -0.140 F 
ENDBRANCH  16  17
BRANCH  16  24
ATOM     24  O   LIG    1        0.002  -0.004   0.002  0.00  0.00    -0.550 OA
ATOM     25  H   LIG    1       -0.876  -0.409   0.008  0.00  0.00    +0.370 HD
ENDBRANCH  16  24
ENDBRANCH   1  16
TORSDOF 6
