REMARK  Name = ZINCrD000000fO48.0
REMARK                            x       y       z     vdW  Elec       q    Type
REMARK                         _______ _______ _______ _____ _____    ______ ____
ROOT
ATOM      1  C   LIG    1       -2.464  -0.219   0.518  0.00  0.00    +0.590 C 
ATOM      2  N   LIG    1       -2.421   1.032   0.018  0.00  0.00    -0.670 N 
ATOM      3  H   LIG    1       -3.225   1.438  -0.343  0.00  0.00    +0.400 HD
ATOM      4  O   LIG    1       -1.480  -0.693   1.055  0.00  0.00    -0.500 OA
ENDROOT
BRANCH   1   9
ATOM      5  C   LIG    1       -5.201  -2.652   0.569  0.00  0.00    -0.260 A 
ATOM      6  C   LIG    1       -5.785  -1.573  -0.077  0.00  0.00    +0.110 A 
ATOM      7  N   LIG    1       -4.877  -0.590  -0.161  0.00  0.00    -0.530 N 
ATOM      8  H   LIG    1       -5.027   0.279  -0.565  0.00  0.00    +0.420 HD
ATOM      9  C   LIG    1       -3.697  -1.009   0.415  0.00  0.00    -0.070 A 
ATOM     10  C   LIG    1       -7.200  -1.514  -0.592  0.00  0.00    +0.160 C 
ATOM     11  C   LIG    1       -3.871  -2.279   0.877  0.00  0.00    -0.020 A 
ATOM     12  C   LIG    1       -2.842  -3.125   1.581  0.00  0.00    +0.140 C 
BRANCH   5  14
ATOM     13  C   LIG    1       -6.648  -4.093   2.138  0.00  0.00    +0.060 C 
ATOM     14  C   LIG    1       -5.840  -3.936   0.875  0.00  0.00    +0.430 C 
ATOM     15  O   LIG    1       -5.718  -4.871   0.113  0.00  0.00    -0.450 OA
ENDBRANCH   5  14
ENDBRANCH   1   9
BRANCH   2  16
ATOM     16  C   LIG    1       -1.216   1.746   0.019  0.00  0.00    +0.110 A 
ATOM     17  C   LIG    1       -0.011   1.075  -0.142  0.00  0.00    +0.060 A 
ATOM     18  C   LIG    1        1.176   1.780  -0.146  0.00  0.00    +0.010 A 
ATOM     19  C   LIG    1        1.165   3.158   0.016  0.00  0.00    +0.120 A 
ATOM     20  C   LIG    1       -0.038   3.828   0.181  0.00  0.00    -0.060 A 
ATOM     21  C   LIG    1       -1.226   3.125   0.185  0.00  0.00    +0.030 A 
BRANCH  19  22
ATOM     22  O   LIG    1        2.335   3.852   0.012  0.00  0.00    -0.310 OA
BRANCH  22  23
ATOM     23  C   LIG    1        2.250   5.268   0.183  0.00  0.00    +0.330 C 
BRANCH  23  24
ATOM     24  C   LIG    1        3.635   5.862   0.152  0.00  0.00    +0.190 A 
ATOM     25  N   LIG    1        4.257   6.285  -0.914  0.00  0.00    -0.470 NA
ATOM     26  C   LIG    1        5.466   6.748  -0.566  0.00  0.00    +0.150 A 
ATOM     27  C   LIG    1        5.599   6.606   0.767  0.00  0.00    +0.140 A 
ATOM     28  N   LIG    1        4.435   6.050   1.223  0.00  0.00    -0.450 N 
ATOM     29  C   LIG    1        4.118   5.716   2.614  0.00  0.00    +0.330 C 
ENDBRANCH  23  24
ENDBRANCH  22  23
ENDBRANCH  19  22
ENDBRANCH   2  16
TORSDOF 6
