REMARK  Name = ZINCtV00000L6keL.0
REMARK                            x       y       z     vdW  Elec       q    Type
REMARK                         _______ _______ _______ _____ _____    ______ ____
ROOT
ATOM      1  C   LIG    1       -3.218   3.715   1.054  0.00  0.00    +0.140 A 
ATOM      2  N   LIG    1       -3.814   4.166  -0.024  0.00  0.00    -0.290 NA
ATOM      3  N   LIG    1       -4.941   4.693   0.302  0.00  0.00    -0.240 NA
ATOM      4  C   LIG    1       -5.106   4.609   1.589  0.00  0.00    +0.160 A 
ATOM      5  O   LIG    1       -4.022   3.990   2.098  0.00  0.00    -0.200 OA
ENDROOT
BRANCH   4   6
ATOM      6  C   LIG    1       -6.292   5.114   2.370  0.00  0.00    +0.300 C 
ATOM      7  C   LIG    1       -6.220   6.638   2.478  0.00  0.00    +0.080 C 
BRANCH   6   8
ATOM      8  O   LIG    1       -7.497   4.740   1.700  0.00  0.00    -0.290 OA
BRANCH   8   9
ATOM      9  C   LIG    1       -8.620   4.638   2.460  0.00  0.00    +0.120 A 
ATOM     10  C   LIG    1       -8.585   4.995   3.800  0.00  0.00    -0.040 A 
ATOM     11  C   LIG    1       -9.728   4.896   4.570  0.00  0.00    +0.030 A 
ATOM     12  C   LIG    1      -10.905   4.431   4.007  0.00  0.00    +0.070 A 
ATOM     13  C   LIG    1      -10.939   4.070   2.671  0.00  0.00    +0.040 A 
ATOM     14  F   LIG    1      -12.020   4.330   4.763  0.00  0.00    -0.140 F 
ATOM     15  C   LIG    1       -9.799   4.173   1.898  0.00  0.00    +0.040 A 
ENDBRANCH   8   9
ENDBRANCH   6   8
ENDBRANCH   4   6
BRANCH   1  16
ATOM     16  S   LIG    1       -1.654   2.907   1.123  0.00  0.00    +0.090 S 
BRANCH  16  17
ATOM     17  C   LIG    1       -1.219   2.914  -0.634  0.00  0.00    +0.200 C 
BRANCH  17  20
ATOM     18  C   LIG    1        1.447   0.497  -1.190  0.00  0.00    +0.130 A 
ATOM     19  N   LIG    1        0.241   0.963  -1.037  0.00  0.00    -0.450 NA
ATOM     20  C   LIG    1        0.123   2.253  -0.821  0.00  0.00    +0.070 A 
ATOM     21  C   LIG    1        1.266   2.945  -0.784  0.00  0.00    -0.040 A 
ATOM     22  S   LIG    1        2.599   1.823  -1.052  0.00  0.00    +0.120 S 
BRANCH  18  27
ATOM     23  C   LIG    1        2.797  -5.012  -2.164  0.00  0.00    +0.100 C 
ATOM     24  C   LIG    1        2.443  -3.569  -1.909  0.00  0.00    -0.060 A 
ATOM     25  C   LIG    1        3.446  -2.620  -1.822  0.00  0.00    +0.010 A 
ATOM     26  C   LIG    1        3.129  -1.297  -1.589  0.00  0.00    +0.040 A 
ATOM     27  C   LIG    1        1.794  -0.919  -1.441  0.00  0.00    -0.040 A 
ATOM     28  C   LIG    1        0.788  -1.882  -1.525  0.00  0.00    +0.080 A 
ATOM     29  C   LIG    1        1.118  -3.200  -1.764  0.00  0.00    +0.010 A 
ENDBRANCH  18  27
ENDBRANCH  17  20
ENDBRANCH  16  17
ENDBRANCH   1  16
TORSDOF 7
