REMARK  Name = ZINCrg000000qZGb.0
REMARK                            x       y       z     vdW  Elec       q    Type
REMARK                         _______ _______ _______ _____ _____    ______ ____
ROOT
ATOM      1  N   LIG    1       -1.238   2.069   0.019  0.00  0.00    -0.570 N 
ATOM      2  C   LIG    1       -1.955   2.467   1.236  0.00  0.00    +0.310 C 
ATOM      3  C   LIG    1       -3.398   2.779   0.782  0.00  0.00    +0.000 C 
ATOM      4  C   LIG    1       -3.187   3.153  -0.704  0.00  0.00    +0.090 C 
ATOM      5  C   LIG    1       -1.902   2.451  -1.085  0.00  0.00    +0.530 C 
ATOM      6  O   LIG    1       -1.527   2.259  -2.223  0.00  0.00    -0.510 OA
ENDROOT
BRANCH   3   7
ATOM      7  C   LIG    1       -3.968   3.941   1.555  0.00  0.00    +0.530 C 
ATOM      8  N   LIG    1       -5.221   4.368   1.303  0.00  0.00    -0.610 N 
ATOM      9  C   LIG    1       -6.052   3.716   0.279  0.00  0.00    +0.250 C 
ATOM     10  C   LIG    1       -6.618   4.799  -0.647  0.00  0.00    +0.240 C 
ATOM     11  O   LIG    1       -7.256   5.806   0.142  0.00  0.00    -0.360 OA
ATOM     12  C   LIG    1       -6.377   6.496   1.033  0.00  0.00    +0.270 C 
ATOM     13  C   LIG    1       -5.801   5.496   2.049  0.00  0.00    +0.290 C 
ATOM     14  O   LIG    1       -3.298   4.492   2.403  0.00  0.00    -0.520 OA
BRANCH  12  15
ATOM     15  C   LIG    1       -7.142   7.570   1.764  0.00  0.00    +0.170 A 
ATOM     16  N   LIG    1       -8.316   7.444   2.306  0.00  0.00    -0.350 NA
ATOM     17  O   LIG    1       -8.655   8.489   2.819  0.00  0.00    +0.090 OA
ATOM     18  C   LIG    1       -7.705   9.412   2.640  0.00  0.00    +0.440 A 
ATOM     19  N   LIG    1       -6.737   8.836   1.969  0.00  0.00    -0.480 NA
ENDBRANCH  12  15
ENDBRANCH   3   7
BRANCH   1  25
ATOM     20  C   LIG    1        1.183   2.092   0.002  0.00  0.00    +0.140 A 
ATOM     21  C   LIG    1        2.387   1.409  -0.014  0.00  0.00    -0.070 A 
ATOM     22  C   LIG    1        2.398   0.026  -0.021  0.00  0.00    +0.060 A 
ATOM     23  C   LIG    1        1.209  -0.679  -0.013  0.00  0.00    -0.020 A 
ATOM     24  C   LIG    1        0.002  -0.004   0.002  0.00  0.00    +0.060 A 
ATOM     25  C   LIG    1       -0.017   1.383   0.010  0.00  0.00    +0.100 A 
BRANCH  20  27
ATOM     26  C   LIG    1        2.438   4.112   0.000  0.00  0.00    +0.250 C 
ATOM     27  O   LIG    1        1.170   3.452   0.009  0.00  0.00    -0.310 OA
ENDBRANCH  20  27
ENDBRANCH   1  25
TORSDOF 4
