REMARK  Name = ZINCrD000000C13l.0
REMARK                            x       y       z     vdW  Elec       q    Type
REMARK                         _______ _______ _______ _____ _____    ______ ____
ROOT
ATOM      1  C   LIG    1       -6.192   7.444   0.354  0.00  0.00    +0.150 A 
ATOM      2  C   LIG    1       -5.023   8.185   0.253  0.00  0.00    +0.000 A 
ATOM      3  C   LIG    1       -3.805   7.543   0.144  0.00  0.00    +0.040 A 
ATOM      4  C   LIG    1       -3.751   6.155   0.136  0.00  0.00    +0.130 A 
ATOM      5  C   LIG    1       -4.921   5.414   0.231  0.00  0.00    +0.010 A 
ATOM      6  C   LIG    1       -6.138   6.056   0.345  0.00  0.00    +0.050 A 
ENDROOT
BRANCH   1  11
ATOM      7  O   LIG    1       -8.247   6.475   1.744  0.00  0.00    -0.570 OA
ATOM      8  C   LIG    1       -8.406   7.562   1.223  0.00  0.00    +0.710 C 
ATOM      9  N   LIG    1       -9.560   8.234   1.405  0.00  0.00    -0.710 N 
ATOM     10  H   LIG    1       -9.687   9.101   0.990  0.00  0.00    +0.400 HD
ATOM     11  N   LIG    1       -7.428   8.096   0.465  0.00  0.00    -0.680 N 
ATOM     12  H   LIG    1       -7.579   8.931  -0.004  0.00  0.00    +0.410 HD
BRANCH   9  13
ATOM     13  C   LIG    1      -10.623   7.654   2.229  0.00  0.00    +0.240 C 
ATOM     14  C   LIG    1      -12.056   7.747   1.702  0.00  0.00    +0.010 C 
ATOM     15  C   LIG    1      -11.617   8.617   2.881  0.00  0.00    +0.020 C 
ENDBRANCH   9  13
ENDBRANCH   1  11
BRANCH   4  16
ATOM     16  N   LIG    1       -2.517   5.504   0.025  0.00  0.00    -0.670 N 
ATOM     17  H   LIG    1       -2.450   4.671  -0.469  0.00  0.00    +0.410 HD
ATOM     18  C   LIG    1       -1.420   6.034   0.603  0.00  0.00    +0.560 C 
ATOM     19  O   LIG    1       -1.485   7.118   1.148  0.00  0.00    -0.510 OA
BRANCH  18  20
ATOM     20  C   LIG    1       -0.142   5.297   0.573  0.00  0.00    -0.130 A 
ATOM     21  C   LIG    1       -0.066   4.051  -0.053  0.00  0.00    +0.060 A 
ATOM     22  C   LIG    1        1.128   3.363  -0.081  0.00  0.00    +0.030 A 
ATOM     23  C   LIG    1        2.256   3.909   0.515  0.00  0.00    +0.100 A 
ATOM     24  O   LIG    1        3.439   3.233   0.491  0.00  0.00    -0.320 OA
ATOM     25  C   LIG    1        4.474   3.812  -0.307  0.00  0.00    +0.230 C 
ATOM     26  C   LIG    1        5.229   4.875   0.476  0.00  0.00    -0.010 C 
ATOM     27  C   LIG    1        4.350   6.064   0.833  0.00  0.00    +0.230 C 
ATOM     28  O   LIG    1        3.305   5.672   1.725  0.00  0.00    -0.320 OA
ATOM     29  C   LIG    1        2.187   5.149   1.141  0.00  0.00    +0.060 A 
ATOM     30  C   LIG    1        0.995   5.843   1.178  0.00  0.00    +0.100 A 
ENDBRANCH  18  20
ENDBRANCH   4  16
TORSDOF 4
