REMARK  Name = ZINCvU00000005y9.0
REMARK                            x       y       z     vdW  Elec       q    Type
REMARK                         _______ _______ _______ _____ _____    ______ ____
ROOT
ATOM      1  C   LIG    1       -3.284  -2.755  -2.157  0.00  0.00    +0.540 C 
ATOM      2  N   LIG    1       -2.385  -2.676  -1.157  0.00  0.00    -0.600 N 
ATOM      3  C   LIG    1       -2.522  -3.515   0.042  0.00  0.00    +0.270 C 
ATOM      4  C   LIG    1       -2.493  -2.614   1.280  0.00  0.00    +0.030 C 
ATOM      5  C   LIG    1       -1.224  -1.759   1.254  0.00  0.00    +0.030 C 
ATOM      6  C   LIG    1       -1.232  -0.869   0.010  0.00  0.00    +0.080 C 
ATOM      7  C   LIG    1       -1.247  -1.750  -1.243  0.00  0.00    +0.300 C 
ATOM      8  O   LIG    1       -3.159  -2.057  -3.141  0.00  0.00    -0.520 OA
ENDROOT
BRANCH   6   9
ATOM      9  C   LIG    1        0.002  -0.004   0.002  0.00  0.00    +0.100 A 
ATOM     10  N   LIG    1       -0.015   1.275   0.009  0.00  0.00    -0.460 NA
ATOM     11  C   LIG    1        1.167   1.920   0.001  0.00  0.00    +0.080 A 
ATOM     12  C   LIG    1        1.437   3.303   0.006  0.00  0.00    +0.080 A 
ATOM     13  C   LIG    1        2.722   3.755  -0.003  0.00  0.00    +0.030 A 
ATOM     14  C   LIG    1        3.787   2.865  -0.018  0.00  0.00    +0.040 A 
ATOM     15  C   LIG    1        3.553   1.509  -0.023  0.00  0.00    +0.060 A 
ATOM     16  C   LIG    1        2.245   1.029  -0.014  0.00  0.00    -0.180 A 
ATOM     17  S   LIG    1        1.598  -0.609  -0.017  0.00  0.00    +0.110 S 
ENDBRANCH   6   9
BRANCH   1  18
ATOM     18  C   LIG    1       -4.445  -3.710  -2.054  0.00  0.00    +0.120 C 
BRANCH  18  19
ATOM     19  S   LIG    1       -5.466  -3.583  -3.543  0.00  0.00    +0.070 S 
BRANCH  19  28
ATOM     20  N   LIG    1       -7.769  -5.084  -3.968  0.00  0.00    -0.470 N 
ATOM     21  C   LIG    1       -8.507  -6.058  -3.316  0.00  0.00    +0.060 A 
ATOM     22  C   LIG    1       -9.664  -6.756  -3.626  0.00  0.00    +0.010 A 
ATOM     23  C   LIG    1      -10.165  -7.684  -2.736  0.00  0.00    +0.030 A 
ATOM     24  C   LIG    1       -9.520  -7.924  -1.533  0.00  0.00    +0.010 A 
ATOM     25  C   LIG    1       -8.369  -7.240  -1.208  0.00  0.00    +0.060 A 
ATOM     26  C   LIG    1       -7.849  -6.297  -2.098  0.00  0.00    +0.060 A 
ATOM     27  N   LIG    1       -6.761  -5.483  -2.064  0.00  0.00    -0.500 NA
ATOM     28  C   LIG    1       -6.710  -4.771  -3.163  0.00  0.00    +0.250 A 
BRANCH  20  29
ATOM     29  C   LIG    1       -8.066  -4.501  -5.279  0.00  0.00    +0.340 C 
BRANCH  29  31
ATOM     30  C   LIG    1       -8.098  -5.805  -7.343  0.00  0.00    +0.050 C 
ATOM     31  C   LIG    1       -7.392  -5.314  -6.355  0.00  0.00    -0.070 C 
ENDBRANCH  29  31
ENDBRANCH  20  29
ENDBRANCH  19  28
ENDBRANCH  18  19
ENDBRANCH   1  18
TORSDOF 6
