REMARK  Name = ZINCpk00000jUXmP.0
REMARK                            x       y       z     vdW  Elec       q    Type
REMARK                         _______ _______ _______ _____ _____    ______ ____
ROOT
ATOM      1  C   LIG    1       -1.271  -0.759   0.010  0.00  0.00    +0.360 A 
ATOM      2  N   LIG    1       -1.393  -2.069  -0.002  0.00  0.00    -0.470 NA
ATOM      3  C   LIG    1       -2.688  -2.401   0.015  0.00  0.00    +0.320 A 
ATOM      4  N   LIG    1       -3.411  -1.302   0.028  0.00  0.00    -0.240 NA
ATOM      5  N   LIG    1       -2.513  -0.223   0.025  0.00  0.00    -0.360 N 
ENDROOT
BRANCH   1   8
ATOM      6  N   LIG    1        1.060   2.010   0.003  0.00  0.00    -0.330 N 
ATOM      7  N   LIG    1       -0.016   1.309   0.009  0.00  0.00    -0.210 NA
ATOM      8  C   LIG    1        0.002  -0.004   0.002  0.00  0.00    +0.130 A 
ATOM      9  C   LIG    1        1.235  -0.700  -0.013  0.00  0.00    +0.130 A 
ATOM     10  C   LIG    1        2.387   0.029  -0.020  0.00  0.00    +0.010 A 
ATOM     11  C   LIG    1        2.279   1.437  -0.012  0.00  0.00    +0.480 A 
ATOM     12  O   LIG    1        3.283   2.131  -0.018  0.00  0.00    -0.510 OA
BRANCH   6  14
ATOM     13  C   LIG    1        0.910   3.987  -1.428  0.00  0.00    +0.050 C 
ATOM     14  C   LIG    1        0.959   3.471   0.011  0.00  0.00    +0.310 C 
ENDBRANCH   6  14
ENDBRANCH   1   8
BRANCH   3  15
ATOM     15  C   LIG    1       -3.223  -3.786   0.013  0.00  0.00    +0.310 A 
ATOM     16  N   LIG    1       -4.496  -4.116   0.029  0.00  0.00    -0.270 NA
ATOM     17  N   LIG    1       -4.550  -5.519   0.016  0.00  0.00    -0.470 N 
ATOM     18  H   LIG    1       -5.349  -6.069   0.020  0.00  0.00    +0.450 HD
ATOM     19  C   LIG    1       -3.276  -5.950   0.001  0.00  0.00    +0.500 A 
ATOM     20  N   LIG    1       -2.490  -4.907  -0.001  0.00  0.00    -0.510 NA
ENDBRANCH   3  15
BRANCH   5  21
ATOM     21  C   LIG    1       -2.854   1.202   0.036  0.00  0.00    +0.280 C 
ATOM     22  C   LIG    1       -3.686   1.537  -1.203  0.00  0.00    +0.110 C 
BRANCH  21  23
ATOM     23  C   LIG    1       -3.663   1.523   1.295  0.00  0.00    +0.450 C 
ATOM     24  F   LIG    1       -4.837   0.762   1.302  0.00  0.00    -0.160 F 
ATOM     25  F   LIG    1       -3.988   2.884   1.306  0.00  0.00    -0.170 F 
ATOM     26  F   LIG    1       -2.902   1.216   2.428  0.00  0.00    -0.180 F 
ENDBRANCH  21  23
ENDBRANCH   5  21
TORSDOF 5
