REMARK  Name = ZINCpk00000eb7kD.0
REMARK                            x       y       z     vdW  Elec       q    Type
REMARK                         _______ _______ _______ _____ _____    ______ ____
ROOT
ATOM      1  C   LIG    1        2.292   2.976  -0.112  0.00  0.00    +0.260 C 
ATOM      2  C   LIG    1        2.168   3.610   1.275  0.00  0.00    +0.020 C 
ATOM      3  C   LIG    1        2.740   5.029   1.242  0.00  0.00    +0.030 C 
ATOM      4  C   LIG    1        1.938   5.876   0.250  0.00  0.00    +0.290 C 
ATOM      5  N   LIG    1        1.931   5.198  -1.053  0.00  0.00    -0.590 N 
ATOM      6  C   LIG    1        2.327   5.847  -2.167  0.00  0.00    +0.580 C 
ATOM      7  O   LIG    1        2.452   5.239  -3.213  0.00  0.00    -0.520 OA
ATOM      8  C   LIG    1        1.485   3.800  -1.121  0.00  0.00    +0.300 C 
ENDROOT
BRANCH   1  12
ATOM      9  C   LIG    1       -0.768  -0.959   0.449  0.00  0.00    +0.190 C 
ATOM     10  C   LIG    1        0.434  -0.093   0.174  0.00  0.00    +0.220 A 
ATOM     11  N   LIG    1        0.469   1.210   0.267  0.00  0.00    -0.320 NA
ATOM     12  N   LIG    1        1.773   1.607  -0.073  0.00  0.00    -0.380 N 
ATOM     13  C   LIG    1        2.450   0.480  -0.354  0.00  0.00    +0.280 A 
ATOM     14  C   LIG    1        3.896   0.397  -0.771  0.00  0.00    +0.190 C 
ATOM     15  N   LIG    1        1.635  -0.532  -0.202  0.00  0.00    -0.540 NA
ENDBRANCH   1  12
BRANCH   6  16
ATOM     16  C   LIG    1        2.607   7.286  -2.117  0.00  0.00    +0.080 C 
ATOM     17  N   LIG    1        2.299   7.961  -1.053  0.00  0.00    -0.190 NA
ATOM     18  N   LIG    1        2.549   9.335  -0.971  0.00  0.00    -0.460 N 
ATOM     19  C   LIG    1        2.749  10.060  -2.089  0.00  0.00    +0.500 C 
ATOM     20  C   LIG    1        2.709   9.385  -3.436  0.00  0.00    +0.090 C 
ATOM     21  O   LIG    1        2.961  11.251  -2.011  0.00  0.00    -0.510 OA
ATOM     22  C   LIG    1        3.254   7.958  -3.299  0.00  0.00    +0.110 C 
BRANCH  18  23
ATOM     23  C   LIG    1        2.595   9.989   0.339  0.00  0.00    +0.260 C 
ATOM     24  C   LIG    1        3.700   9.357   1.187  0.00  0.00    +0.040 C 
ATOM     25  C   LIG    1        1.248   9.813   1.044  0.00  0.00    +0.040 C 
ENDBRANCH  18  23
ENDBRANCH   6  16
TORSDOF 3
