REMARK  Name = ZINCtV00000bM99a.0
REMARK                            x       y       z     vdW  Elec       q    Type
REMARK                         _______ _______ _______ _____ _____    ______ ____
ROOT
ATOM      1  C   LIG    1       -2.492   1.585   0.017  0.00  0.00    +0.100 A 
ATOM      2  C   LIG    1       -1.236   2.114   0.020  0.00  0.00    -0.120 A 
ATOM      3  C   LIG    1       -1.211   3.563   0.027  0.00  0.00    -0.060 A 
ATOM      4  C   LIG    1       -2.433   4.113   0.036  0.00  0.00    -0.230 A 
ATOM      5  C   LIG    1       -2.700   5.606   0.046  0.00  0.00    +0.120 C 
ATOM      6  C   LIG    1       -1.418   6.335   0.457  0.00  0.00    +0.020 C 
ATOM      7  C   LIG    1       -0.256   5.815  -0.394  0.00  0.00    +0.020 C 
ATOM      8  C   LIG    1        0.072   4.381   0.026  0.00  0.00    +0.100 C 
ATOM      9  S   LIG    1       -3.680   2.876   0.036  0.00  0.00    +0.260 S 
ENDROOT
BRANCH   2  10
ATOM     10  C   LIG    1       -0.015   1.289   0.009  0.00  0.00    +0.200 A 
ATOM     11  N   LIG    1        0.002  -0.004   0.002  0.00  0.00    -0.500 NA
ATOM     12  C   LIG    1        1.200  -0.616  -0.013  0.00  0.00    +0.090 A 
ATOM     13  C   LIG    1        1.485  -1.999  -0.023  0.00  0.00    +0.060 A 
ATOM     14  C   LIG    1        2.784  -2.441  -0.038  0.00  0.00    +0.040 A 
ATOM     15  C   LIG    1        3.837  -1.538  -0.043  0.00  0.00    +0.040 A 
ATOM     16  C   LIG    1        3.583  -0.184  -0.033  0.00  0.00    +0.060 A 
ATOM     17  C   LIG    1        2.272   0.283  -0.018  0.00  0.00    -0.190 A 
ATOM     18  S   LIG    1        1.625   1.922  -0.003  0.00  0.00    +0.100 S 
ENDBRANCH   2  10
BRANCH   1  20
ATOM     19  C   LIG    1       -4.072  -0.183   0.003  0.00  0.00    +0.550 C 
ATOM     20  N   LIG    1       -2.788   0.228   0.005  0.00  0.00    -0.620 N 
ATOM     21  H   LIG    1       -2.070  -0.425  -0.003  0.00  0.00    +0.430 HD
ATOM     22  O   LIG    1       -4.971   0.635   0.013  0.00  0.00    -0.500 OA
BRANCH  19  26
ATOM     23  C   LIG    1       -4.976  -4.338  -0.035  0.00  0.00    +0.010 A 
ATOM     24  C   LIG    1       -6.009  -3.398  -0.024  0.00  0.00    +0.070 A 
ATOM     25  C   LIG    1       -5.716  -2.052  -0.011  0.00  0.00    +0.100 A 
ATOM     26  C   LIG    1       -4.386  -1.627  -0.010  0.00  0.00    -0.110 A 
ATOM     27  C   LIG    1       -3.353  -2.567  -0.027  0.00  0.00    +0.060 A 
ATOM     28  C   LIG    1       -3.645  -3.912  -0.034  0.00  0.00    +0.060 A 
BRANCH  23  30
ATOM     29  N   LIG    1       -5.522  -6.847  -0.059  0.00  0.00    -0.400 NA
ATOM     30  C   LIG    1       -5.280  -5.737  -0.048  0.00  0.00    +0.240 C 
ENDBRANCH  23  30
ENDBRANCH  19  26
ENDBRANCH   1  20
TORSDOF 4
