REMARK  Name = ZINCrH000004kNXw.0
REMARK                            x       y       z     vdW  Elec       q    Type
REMARK                         _______ _______ _______ _____ _____    ______ ____
ROOT
ATOM      1  C   LIG    1       -3.750  -2.200   3.003  0.00  0.00    +0.560 C 
ATOM      2  N   LIG    1       -4.429  -1.446   2.116  0.00  0.00    -0.630 N 
ATOM      3  H   LIG    1       -5.335  -1.686   1.869  0.00  0.00    +0.420 HD
ATOM      4  O   LIG    1       -2.614  -1.899   3.313  0.00  0.00    -0.450 OA
ENDROOT
BRANCH   2   5
ATOM      5  C   LIG    1       -3.829  -0.325   1.555  0.00  0.00    +0.270 A 
ATOM      6  N   LIG    1       -2.635   0.081   1.812  0.00  0.00    -0.470 NA
ATOM      7  C   LIG    1       -2.195   1.164   1.164  0.00  0.00    +0.100 A 
ATOM      8  C   LIG    1       -3.117   1.736   0.391  0.00  0.00    -0.200 A 
ATOM      9  C   LIG    1       -3.067   3.016  -0.423  0.00  0.00    +0.120 C 
ATOM     10  C   LIG    1       -1.731   3.741  -0.293  0.00  0.00    +0.030 C 
ATOM     11  C   LIG    1       -0.671   3.108  -1.178  0.00  0.00    +0.010 C 
ATOM     12  C   LIG    1       -0.759   1.596  -1.228  0.00  0.00    +0.020 C 
ATOM     13  C   LIG    1       -0.013   1.086   0.008  0.00  0.00    +0.010 C 
ATOM     14  C   LIG    1       -0.735   1.583   1.263  0.00  0.00    +0.130 C 
ATOM     15  S   LIG    1       -4.567   0.717   0.423  0.00  0.00    +0.100 S 
ENDBRANCH   2   5
BRANCH   1  18
ATOM     16  C   LIG    1       -4.296  -5.295   5.076  0.00  0.00    -0.120 A 
ATOM     17  C   LIG    1       -3.685  -4.176   4.513  0.00  0.00    +0.230 A 
ATOM     18  C   LIG    1       -4.388  -3.392   3.600  0.00  0.00    -0.130 A 
ATOM     19  C   LIG    1       -5.693  -3.739   3.245  0.00  0.00    +0.160 A 
ATOM     20  C   LIG    1       -6.291  -4.853   3.802  0.00  0.00    -0.060 A 
ATOM     21  C   LIG    1       -5.603  -5.631   4.712  0.00  0.00    +0.200 A 
BRANCH  20  22
ATOM     22  N   LIG    1       -7.675  -5.215   3.421  0.00  0.00    +0.030 N 
ATOM     23  O   LIG    1       -8.204  -6.197   3.910  0.00  0.00    -0.140 OA
ATOM     24  O   LIG    1       -8.284  -4.530   2.619  0.00  0.00    -0.150 OA
ENDBRANCH  20  22
BRANCH  16  25
ATOM     25  C   LIG    1       -3.562  -6.128   6.051  0.00  0.00    +0.510 C 
ATOM     26  O   LIG    1       -2.426  -5.835   6.366  0.00  0.00    -0.480 OA
BRANCH  25  28
ATOM     27  C   LIG    1       -3.371  -7.984   7.540  0.00  0.00    +0.290 C 
ATOM     28  O   LIG    1       -4.152  -7.213   6.589  0.00  0.00    -0.350 OA
ENDBRANCH  25  28
ENDBRANCH  16  25
ENDBRANCH   1  18
TORSDOF 5
