REMARK  Name = ZINCrD0000075zCO.0
REMARK                            x       y       z     vdW  Elec       q    Type
REMARK                         _______ _______ _______ _____ _____    ______ ____
ROOT
ATOM      1  C   LIG    1       -0.908   1.705   3.637  0.00  0.00    -0.080 A 
ATOM      2  C   LIG    1       -0.533   1.442   4.936  0.00  0.00    +0.060 A 
ATOM      3  C   LIG    1       -1.460   2.086   5.762  0.00  0.00    -0.030 A 
ATOM      4  C   LIG    1       -2.363   2.705   4.945  0.00  0.00    +0.060 A 
ATOM      5  O   LIG    1       -2.020   2.469   3.668  0.00  0.00    -0.160 OA
ENDROOT
BRANCH   4   6
ATOM      6  C   LIG    1       -3.523   3.502   5.392  0.00  0.00    -0.030 A 
ATOM      7  C   LIG    1       -3.772   3.675   6.755  0.00  0.00    +0.080 A 
ATOM      8  C   LIG    1       -4.857   4.421   7.165  0.00  0.00    +0.040 A 
ATOM      9  C   LIG    1       -5.698   4.998   6.230  0.00  0.00    +0.090 A 
ATOM     10  C   LIG    1       -5.457   4.830   4.878  0.00  0.00    -0.180 A 
ATOM     11  C   LIG    1       -4.373   4.092   4.453  0.00  0.00    +0.090 A 
BRANCH  10  12
ATOM     12  C   LIG    1       -6.378   5.463   3.866  0.00  0.00    +0.510 C 
ATOM     13  F   LIG    1       -6.946   4.466   3.065  0.00  0.00    -0.170 F 
ATOM     14  F   LIG    1       -5.652   6.348   3.063  0.00  0.00    -0.170 F 
ATOM     15  F   LIG    1       -7.392   6.161   4.531  0.00  0.00    -0.170 F 
ENDBRANCH  10  12
ENDBRANCH   4   6
BRANCH   1  17
ATOM     16  O   LIG    1        0.778   0.546   2.530  0.00  0.00    -0.510 OA
ATOM     17  C   LIG    1       -0.222   1.232   2.431  0.00  0.00    +0.610 C 
ATOM     18  N   LIG    1       -0.698   1.558   1.213  0.00  0.00    -0.720 N 
ATOM     19  H   LIG    1       -1.495   2.106   1.135  0.00  0.00    +0.410 HD
BRANCH  18  20
ATOM     20  C   LIG    1       -0.013   1.086   0.008  0.00  0.00    +0.270 C 
BRANCH  20  21
ATOM     21  C   LIG    1       -0.753   1.593  -1.232  0.00  0.00    +0.300 C 
BRANCH  21  22
ATOM     22  N   LIG    1       -0.067   1.120  -2.437  0.00  0.00    -0.570 N 
ATOM     23  C   LIG    1       -0.416  -0.039  -2.969  0.00  0.00    +0.530 C 
ATOM     24  C   LIG    1        0.372  -0.403  -4.209  0.00  0.00    +0.180 C 
ATOM     25  S   LIG    1        1.506   1.012  -4.405  0.00  0.00    -0.110 S 
ATOM     26  O   LIG    1       -1.286  -0.745  -2.507  0.00  0.00    -0.450 OA
ATOM     27  C   LIG    1        0.894   1.870  -2.980  0.00  0.00    +0.540 C 
ATOM     28  O   LIG    1        1.282   2.947  -2.569  0.00  0.00    -0.420 OA
ENDBRANCH  21  22
ENDBRANCH  20  21
ENDBRANCH  18  20
ENDBRANCH   1  17
TORSDOF 6
