REMARK  Name = ZINCvU00000009No.0
REMARK                            x       y       z     vdW  Elec       q    Type
REMARK                         _______ _______ _______ _____ _____    ______ ____
ROOT
ATOM      1  C   LIG    1        8.421   1.119   1.349  0.00  0.00    +0.160 A 
ATOM      2  N   LIG    1        8.999   1.054   0.172  0.00  0.00    -0.280 NA
ATOM      3  N   LIG    1       10.259   0.846   0.315  0.00  0.00    -0.250 NA
ATOM      4  C   LIG    1       10.557   0.757   1.580  0.00  0.00    +0.190 A 
ATOM      5  N   LIG    1        9.397   0.928   2.284  0.00  0.00    -0.420 N 
ENDROOT
BRANCH   5   6
ATOM      6  C   LIG    1        9.235   0.909   3.740  0.00  0.00    +0.200 C 
ATOM      7  C   LIG    1        7.819   0.729   4.291  0.00  0.00    +0.070 C 
ATOM      8  C   LIG    1        8.510   2.092   4.385  0.00  0.00    +0.060 C 
ENDBRANCH   5   6
BRANCH   1   9
ATOM      9  S   LIG    1        6.709   1.392   1.662  0.00  0.00    +0.070 S 
BRANCH   9  10
ATOM     10  C   LIG    1        6.100   1.547  -0.036  0.00  0.00    +0.250 C 
BRANCH  10  14
ATOM     11  C   LIG    1        2.692   2.689   0.029  0.00  0.00    +0.220 A 
ATOM     12  N   LIG    1        2.562   1.388  -0.012  0.00  0.00    -0.360 NA
ATOM     13  O   LIG    1        3.654   0.861  -0.038  0.00  0.00    +0.100 OA
ATOM     14  C   LIG    1        4.613   1.792  -0.016  0.00  0.00    +0.190 A 
ATOM     15  N   LIG    1        4.017   2.958   0.022  0.00  0.00    -0.450 NA
BRANCH  11  21
ATOM     16 CL   LIG    1       -2.410   3.662   0.089  0.00  0.00    -0.060 Cl
ATOM     17  C   LIG    1       -0.756   4.189   0.100  0.00  0.00    -0.040 A 
ATOM     18  C   LIG    1       -0.461   5.541   0.146  0.00  0.00    +0.050 A 
ATOM     19  C   LIG    1        0.854   5.967   0.150  0.00  0.00    +0.030 A 
ATOM     20  C   LIG    1        1.881   5.046   0.112  0.00  0.00    +0.070 A 
ATOM     21  C   LIG    1        1.591   3.684   0.070  0.00  0.00    -0.010 A 
ATOM     22  C   LIG    1        0.265   3.258   0.067  0.00  0.00    +0.070 A 
ENDBRANCH  11  21
ENDBRANCH  10  14
ENDBRANCH   9  10
ENDBRANCH   1   9
BRANCH   4  23
ATOM     23  C   LIG    1       11.926   0.512   2.160  0.00  0.00    +0.350 C 
BRANCH  23  24
ATOM     24  O   LIG    1       12.138  -0.894   2.302  0.00  0.00    -0.300 OA
BRANCH  24  25
ATOM     25  C   LIG    1       13.333  -1.289   2.815  0.00  0.00    +0.140 A 
ATOM     26  C   LIG    1       14.281  -0.343   3.175  0.00  0.00    -0.060 A 
ATOM     27  C   LIG    1       15.496  -0.747   3.696  0.00  0.00    +0.060 A 
ATOM     28  C   LIG    1       15.766  -2.093   3.860  0.00  0.00    +0.000 A 
ATOM     29  C   LIG    1       14.823  -3.039   3.502  0.00  0.00    +0.070 A 
ATOM     30  C   LIG    1       13.604  -2.640   2.986  0.00  0.00    -0.070 A 
ATOM     31 CL   LIG    1       12.417  -3.828   2.545  0.00  0.00    -0.050 Cl
ENDBRANCH  24  25
ENDBRANCH  23  24
ENDBRANCH   4  23
TORSDOF 8
