REMARK  Name = ZINCah0000002z57.0
REMARK                            x       y       z     vdW  Elec       q    Type
REMARK                         _______ _______ _______ _____ _____    ______ ____
ROOT
ATOM      1  C   LIG    1        0.002  -0.004   0.002  0.00  0.00    -0.240 A 
ATOM      2  C   LIG    1       -0.017   1.364   0.009  0.00  0.00    +0.080 A 
ATOM      3  C   LIG    1        1.242   1.925   0.001  0.00  0.00    +0.180 A 
ATOM      4  C   LIG    1        2.255   1.044  -0.014  0.00  0.00    -0.160 A 
ATOM      5  S   LIG    1        1.670  -0.559  -0.017  0.00  0.00    +0.260 S 
ENDROOT
BRANCH   3   6
ATOM      6  N   LIG    1        1.450   3.317   0.006  0.00  0.00    -0.870 N 
ATOM      7  H   LIG    1        2.352   3.672  -0.000  0.00  0.00    +0.400 HD
ATOM      8  H   LIG    1        0.691   3.921   0.017  0.00  0.00    +0.400 HD
ENDBRANCH   3   6
BRANCH   1   9
ATOM      9  C   LIG    1       -1.179  -0.868   0.008  0.00  0.00    +0.540 C 
ATOM     10  O   LIG    1       -2.292  -0.377   0.021  0.00  0.00    -0.500 OA
BRANCH   9  12
ATOM     11  C   LIG    1       -2.229  -2.992   0.006  0.00  0.00    +0.270 C 
ATOM     12  O   LIG    1       -1.033  -2.209  -0.001  0.00  0.00    -0.350 OA
ENDBRANCH   9  12
ENDBRANCH   1   9
TORSDOF 3
