REMARK  Name = ZINCtV000002sjig.0
REMARK                            x       y       z     vdW  Elec       q    Type
REMARK                         _______ _______ _______ _____ _____    ______ ____
ROOT
ATOM      1  C   LIG    1        0.059  -0.169   7.462  0.00  0.00    +0.150 A 
ATOM      2  N   LIG    1        1.337  -0.468   7.405  0.00  0.00    -0.290 NA
ATOM      3  N   LIG    1        1.729  -0.948   8.530  0.00  0.00    -0.240 NA
ATOM      4  C   LIG    1        0.723  -0.995   9.372  0.00  0.00    +0.210 A 
ATOM      5  N   LIG    1       -0.378  -0.498   8.714  0.00  0.00    -0.450 N 
ENDROOT
BRANCH   4   6
ATOM      6  C   LIG    1        0.765  -1.489  10.765  0.00  0.00    -0.010 A 
ATOM      7  C   LIG    1       -0.196  -2.394  11.216  0.00  0.00    +0.060 A 
ATOM      8  C   LIG    1       -0.151  -2.852  12.517  0.00  0.00    +0.050 A 
ATOM      9  C   LIG    1        0.845  -2.415  13.375  0.00  0.00    -0.010 A 
ATOM     10  C   LIG    1        1.801  -1.516  12.934  0.00  0.00    +0.050 A 
ATOM     11 CL   LIG    1        0.893  -2.996  15.010  0.00  0.00    -0.050 Cl
ATOM     12  C   LIG    1        1.770  -1.055  11.633  0.00  0.00    +0.010 A 
ATOM     13 CL   LIG    1        2.974   0.066  11.079  0.00  0.00    -0.030 Cl
ENDBRANCH   4   6
BRANCH   5  14
ATOM     14  C   LIG    1       -1.735  -0.350   9.245  0.00  0.00    +0.240 C 
ATOM     15  C   LIG    1       -2.707  -1.173   8.396  0.00  0.00    +0.020 C 
ATOM     16  C   LIG    1       -4.125  -1.020   8.951  0.00  0.00    +0.040 C 
ATOM     17  C   LIG    1       -4.532   0.455   8.908  0.00  0.00    +0.010 C 
ATOM     18  C   LIG    1       -3.560   1.277   9.757  0.00  0.00    +0.040 C 
ATOM     19  C   LIG    1       -2.143   1.124   9.202  0.00  0.00    +0.010 C 
ENDBRANCH   5  14
BRANCH   1  20
ATOM     20  S   LIG    1       -0.913   0.519   6.163  0.00  0.00    +0.090 S 
BRANCH  20  21
ATOM     21  C   LIG    1        0.345   0.661   4.870  0.00  0.00    +0.100 C 
BRANCH  21  24
ATOM     22  N   LIG    1        0.478   1.442   2.527  0.00  0.00    -0.720 N 
ATOM     23  H   LIG    1        1.419   1.209   2.535  0.00  0.00    +0.400 HD
ATOM     24  C   LIG    1       -0.276   1.244   3.627  0.00  0.00    +0.540 C 
ATOM     25  O   LIG    1       -1.453   1.535   3.616  0.00  0.00    -0.520 OA
BRANCH  22  26
ATOM     26  C   LIG    1       -0.126   2.009   1.318  0.00  0.00    +0.240 C 
ATOM     27  C   LIG    1       -0.124   3.536   1.415  0.00  0.00    +0.020 C 
BRANCH  26  29
ATOM     28  C   LIG    1        2.121   2.076   0.228  0.00  0.00    +0.020 C 
ATOM     29  C   LIG    1        0.682   1.575   0.093  0.00  0.00    -0.020 C 
ATOM     30  C   LIG    1        0.052   2.167  -1.169  0.00  0.00    +0.030 C 
ENDBRANCH  26  29
ENDBRANCH  22  26
ENDBRANCH  21  24
ENDBRANCH  20  21
ENDBRANCH   1  20
TORSDOF 7
