REMARK  Name = ZINCpe000027pH7m.1
REMARK                            x       y       z     vdW  Elec       q    Type
REMARK                         _______ _______ _______ _____ _____    ______ ____
ROOT
ATOM      1  N   LIG    1       -0.698   1.558   1.213  0.00  0.00    -0.440 N 
ATOM      2  C   LIG    1       -1.696   0.920   1.883  0.00  0.00    +0.570 A 
ATOM      3  N   LIG    1       -2.064   1.649   2.918  0.00  0.00    -0.500 NA
ATOM      4  C   LIG    1       -1.339   2.767   2.967  0.00  0.00    +0.350 A 
ATOM      5  N   LIG    1       -1.315   3.853   3.828  0.00  0.00    -0.510 N 
ATOM      6  C   LIG    1       -2.235   3.905   4.967  0.00  0.00    +0.340 C 
ATOM      7  C   LIG    1       -0.437   4.854   3.626  0.00  0.00    +0.710 A 
ATOM      8  O   LIG    1       -0.427   5.797   4.394  0.00  0.00    -0.530 OA
ATOM      9  N   LIG    1        0.422   4.840   2.593  0.00  0.00    -0.650 N 
ATOM     10  H   LIG    1        1.037   5.580   2.473  0.00  0.00    +0.440 HD
ATOM     11  C   LIG    1        0.442   3.812   1.719  0.00  0.00    +0.600 A 
ATOM     12  O   LIG    1        1.227   3.811   0.787  0.00  0.00    -0.520 OA
ATOM     13  C   LIG    1       -0.452   2.741   1.897  0.00  0.00    -0.170 A 
ENDROOT
BRANCH   1  15
ATOM     14  C   LIG    1       -0.753   1.593  -1.232  0.00  0.00    +0.040 C 
ATOM     15  C   LIG    1       -0.013   1.086   0.008  0.00  0.00    +0.300 C 
ENDBRANCH   1  15
BRANCH   2  16
ATOM     16  N   LIG    1       -2.237  -0.296   1.533  0.00  0.00    -0.550 N 
ATOM     17  H   LIG    1       -1.907  -0.768   0.753  0.00  0.00    +0.400 HD
BRANCH  16  18
ATOM     18  N   LIG    1       -3.265  -0.853   2.305  0.00  0.00    -0.210 NA
ATOM     19  C   LIG    1       -3.775  -2.000   1.976  0.00  0.00    +0.240 C 
BRANCH  19  20
ATOM     20  C   LIG    1       -4.857  -2.587   2.788  0.00  0.00    -0.100 A 
ATOM     21  C   LIG    1       -5.331  -1.911   3.916  0.00  0.00    +0.110 A 
ATOM     22  C   LIG    1       -6.346  -2.461   4.670  0.00  0.00    -0.080 A 
ATOM     23  C   LIG    1       -6.890  -3.688   4.315  0.00  0.00    +0.150 A 
ATOM     24  C   LIG    1       -6.419  -4.365   3.198  0.00  0.00    -0.020 A 
ATOM     25  C   LIG    1       -5.408  -3.821   2.436  0.00  0.00    +0.090 A 
BRANCH  23  26
ATOM     26  O   LIG    1       -7.887  -4.229   5.064  0.00  0.00    -0.320 OA
ATOM     27  C   LIG    1       -8.324  -3.480   6.199  0.00  0.00    +0.240 C 
ENDBRANCH  23  26
ENDBRANCH  19  20
ENDBRANCH  16  18
ENDBRANCH   2  16
TORSDOF 5
