REMARK  Name = ZINCpe000027pH7m.0
REMARK                            x       y       z     vdW  Elec       q    Type
REMARK                         _______ _______ _______ _____ _____    ______ ____
ROOT
ATOM      1  N   LIG    1       -0.968  -0.980   0.006  0.00  0.00    -0.370 N 
ATOM      2  C   LIG    1       -0.322  -2.179  -0.007  0.00  0.00    +0.410 A 
ATOM      3  N   LIG    1        0.980  -1.972  -0.018  0.00  0.00    -0.460 NA
ATOM      4  C   LIG    1        1.228  -0.664  -0.013  0.00  0.00    +0.320 A 
ATOM      5  N   LIG    1        2.392   0.090  -0.020  0.00  0.00    -0.510 N 
ATOM      6  C   LIG    1        3.696  -0.579  -0.036  0.00  0.00    +0.350 C 
ATOM      7  C   LIG    1        2.327   1.434  -0.013  0.00  0.00    +0.710 A 
ATOM      8  O   LIG    1        3.359   2.076  -0.019  0.00  0.00    -0.530 OA
ATOM      9  N   LIG    1        1.152   2.085   0.002  0.00  0.00    -0.650 N 
ATOM     10  H   LIG    1        1.143   3.055   0.007  0.00  0.00    +0.440 HD
ATOM     11  C   LIG    1       -0.017   1.411   0.010  0.00  0.00    +0.600 A 
ATOM     12  O   LIG    1       -1.075   2.013   0.018  0.00  0.00    -0.500 OA
ATOM     13  C   LIG    1        0.002  -0.004   0.002  0.00  0.00    -0.120 A 
ENDROOT
BRANCH   1  15
ATOM     14  C   LIG    1       -2.937  -0.687  -1.415  0.00  0.00    +0.050 C 
ATOM     15  C   LIG    1       -2.417  -0.769   0.022  0.00  0.00    +0.320 C 
ENDBRANCH   1  15
BRANCH   2  16
ATOM     16  N   LIG    1       -0.929  -3.404  -0.007  0.00  0.00    -0.180 NA
ATOM     17  N   LIG    1       -0.242  -4.436  -0.018  0.00  0.00    -0.140 NA
BRANCH  17  18
ATOM     18  C   LIG    1       -0.892  -5.749  -0.019  0.00  0.00    +0.280 C 
BRANCH  18  19
ATOM     19  C   LIG    1       -0.490  -6.508  -1.257  0.00  0.00    -0.130 A 
ATOM     20  C   LIG    1       -1.245  -6.397  -2.410  0.00  0.00    +0.060 A 
ATOM     21  C   LIG    1       -0.876  -7.087  -3.548  0.00  0.00    -0.080 A 
ATOM     22  C   LIG    1        0.247  -7.902  -3.530  0.00  0.00    +0.140 A 
ATOM     23  C   LIG    1        0.999  -8.017  -2.370  0.00  0.00    -0.010 A 
ATOM     24  C   LIG    1        0.629  -7.319  -1.236  0.00  0.00    +0.090 A 
BRANCH  22  25
ATOM     25  O   LIG    1        0.608  -8.588  -4.646  0.00  0.00    -0.320 OA
ATOM     26  C   LIG    1       -0.213  -8.422  -5.804  0.00  0.00    +0.250 C 
ENDBRANCH  22  25
ENDBRANCH  18  19
ENDBRANCH  17  18
ENDBRANCH   2  16
TORSDOF 5
