REMARK  Name = ZINCrH000004mTGi.0
REMARK                            x       y       z     vdW  Elec       q    Type
REMARK                         _______ _______ _______ _____ _____    ______ ____
ROOT
ATOM      1  N   LIG    1       -0.480   2.912  -0.990  0.00  0.00    -1.030 NA
ATOM      2  C   LIG    1       -1.805   2.901  -1.634  0.00  0.00    +0.310 C 
ATOM      3  C   LIG    1       -1.938   1.433  -1.188  0.00  0.00    -0.010 C 
ATOM      4  C   LIG    1       -2.553   1.306   0.191  0.00  0.00    +0.030 C 
ATOM      5  C   LIG    1       -1.725   0.490   1.163  0.00  0.00    +0.010 C 
ATOM      6  C   LIG    1       -0.263   0.928   1.149  0.00  0.00    +0.000 C 
ATOM      7  C   LIG    1        0.321   0.647  -0.237  0.00  0.00    +0.040 C 
ATOM      8  C   LIG    1       -0.418   1.476  -1.276  0.00  0.00    +0.240 C 
ENDROOT
BRANCH   8   9
ATOM      9  C   LIG    1        0.067   1.189  -2.674  0.00  0.00    -0.080 A 
ATOM     10  C   LIG    1       -0.325   0.030  -3.317  0.00  0.00    +0.020 A 
ATOM     11  C   LIG    1        0.117  -0.231  -4.601  0.00  0.00    +0.000 A 
ATOM     12  C   LIG    1        0.957   0.663  -5.238  0.00  0.00    +0.000 A 
ATOM     13  C   LIG    1        1.352   1.820  -4.593  0.00  0.00    +0.000 A 
ATOM     14  C   LIG    1        0.907   2.083  -3.311  0.00  0.00    +0.010 A 
ENDBRANCH   8   9
BRANCH   1  15
ATOM     15  S   LIG    1        0.497   4.037  -0.270  0.00  0.00    +2.720 S 
ATOM     16  O   LIG    1        0.220   5.277  -0.907  0.00  0.00    -0.940 OA
ATOM     17  O   LIG    1        1.797   3.465  -0.216  0.00  0.00    -0.950 OA
BRANCH  15  22
ATOM     18  C   LIG    1        0.365   3.955   3.749  0.00  0.00    +0.080 A 
ATOM     19  C   LIG    1       -0.894   4.467   4.023  0.00  0.00    +0.030 A 
ATOM     20  C   LIG    1       -1.726   4.848   2.987  0.00  0.00    -0.040 A 
ATOM     21  C   LIG    1       -1.301   4.717   1.674  0.00  0.00    +0.190 A 
ATOM     22  C   LIG    1       -0.042   4.204   1.400  0.00  0.00    -0.670 A 
ATOM     23  C   LIG    1        0.787   3.819   2.435  0.00  0.00    +0.140 A 
BRANCH  18  25
ATOM     24  C   LIG    1        0.681   3.743   6.097  0.00  0.00    +0.240 C 
ATOM     25  O   LIG    1        1.183   3.581   4.769  0.00  0.00    -0.310 OA
ENDBRANCH  18  25
BRANCH  21  26
ATOM     26  O   LIG    1       -2.119   5.091   0.654  0.00  0.00    -0.310 OA
ATOM     27  C   LIG    1       -3.443   5.502   1.002  0.00  0.00    +0.250 C 
ENDBRANCH  21  26
ENDBRANCH  15  22
ENDBRANCH   1  15
TORSDOF 5
