REMARK  Name = ZINCrD000000BWe5.0
REMARK                            x       y       z     vdW  Elec       q    Type
REMARK                         _______ _______ _______ _____ _____    ______ ____
ROOT
ATOM      1  O   LIG    1       -2.114  -0.152   1.158  0.00  0.00    -0.520 OA
ATOM      2  C   LIG    1       -1.742   0.866   1.710  0.00  0.00    +0.700 C 
ATOM      3  N   LIG    1       -0.701   1.561   1.211  0.00  0.00    -0.730 N 
ATOM      4  H   LIG    1       -0.405   2.373   1.651  0.00  0.00    +0.400 HD
ATOM      5  N   LIG    1       -2.372   1.299   2.820  0.00  0.00    -0.670 N 
ATOM      6  H   LIG    1       -2.031   2.069   3.302  0.00  0.00    +0.410 HD
ENDROOT
BRANCH   5   7
ATOM      7  C   LIG    1       -3.514   0.641   3.275  0.00  0.00    +0.380 A 
ATOM      8  C   LIG    1       -4.219   1.155   4.357  0.00  0.00    -0.080 A 
ATOM      9  C   LIG    1       -5.354   0.496   4.795  0.00  0.00    -0.000 A 
ATOM     10  C   LIG    1       -5.739  -0.666   4.141  0.00  0.00    -0.080 A 
ATOM     11  C   LIG    1       -4.987  -1.123   3.076  0.00  0.00    +0.300 A 
ATOM     12  N   LIG    1       -3.913  -0.470   2.677  0.00  0.00    -0.470 NA
BRANCH   9  13
ATOM     13  C   LIG    1       -6.150   1.024   5.961  0.00  0.00    +0.020 C 
ATOM     14  C   LIG    1       -7.601   1.336   5.529  0.00  0.00    +0.010 C 
ATOM     15  C   LIG    1       -8.463   0.400   6.404  0.00  0.00    +0.190 C 
ATOM     16  O   LIG    1       -7.645   0.119   7.561  0.00  0.00    -0.370 OA
ATOM     17  C   LIG    1       -6.308  -0.064   7.046  0.00  0.00    +0.220 C 
ENDBRANCH   9  13
ENDBRANCH   5   7
BRANCH   3  18
ATOM     18  C   LIG    1       -0.017   1.090   0.004  0.00  0.00    +0.340 C 
BRANCH  18  19
ATOM     19  C   LIG    1        1.397   1.613  -0.008  0.00  0.00    -0.090 A 
ATOM     20  C   LIG    1        1.659   2.907   0.401  0.00  0.00    +0.020 A 
ATOM     21  C   LIG    1        2.956   3.385   0.394  0.00  0.00    +0.000 A 
ATOM     22  C   LIG    1        3.990   2.572  -0.031  0.00  0.00    +0.000 A 
ATOM     23  C   LIG    1        3.727   1.279  -0.445  0.00  0.00    +0.000 A 
ATOM     24  C   LIG    1        2.431   0.800  -0.434  0.00  0.00    +0.010 A 
ENDBRANCH  18  19
BRANCH  18  25
ATOM     25  C   LIG    1       -0.759   1.597  -1.234  0.00  0.00    +0.110 C 
ATOM     26  C   LIG    1       -2.060   0.832  -1.528  0.00  0.00    +0.030 C 
ATOM     27  C   LIG    1       -1.677   0.915  -3.017  0.00  0.00    +0.000 C 
ATOM     28  C   LIG    1       -0.214   1.028  -2.554  0.00  0.00    +0.000 C 
BRANCH  25  29
ATOM     29  O   LIG    1       -0.915   3.017  -1.244  0.00  0.00    -0.540 OA
ATOM     30  H   LIG    1       -1.382   3.356  -2.020  0.00  0.00    +0.380 HD
ENDBRANCH  25  29
ENDBRANCH  18  25
ENDBRANCH   3  18
TORSDOF 6
