REMARK  Name = ZINCrg00000fRd8D.0
REMARK                            x       y       z     vdW  Elec       q    Type
REMARK                         _______ _______ _______ _____ _____    ______ ____
ROOT
ATOM      1  N   LIG    1        2.228   5.996  -2.171  0.00  0.00    -1.090 NA
ATOM      2  H   LIG    1        3.116   5.970  -1.782  0.00  0.00    +0.430 HD
ENDROOT
BRANCH   1   3
ATOM      3  S   LIG    1        1.040   6.908  -1.465  0.00  0.00    +2.700 S 
ATOM      4  O   LIG    1        1.620   7.497  -0.309  0.00  0.00    -0.950 OA
ATOM      5  O   LIG    1        0.443   7.666  -2.507  0.00  0.00    -0.940 OA
BRANCH   3   6
ATOM      6  C   LIG    1       -0.198   5.795  -0.887  0.00  0.00    -0.680 A 
ATOM      7  C   LIG    1       -0.065   5.199   0.352  0.00  0.00    +0.140 A 
ATOM      8  C   LIG    1       -1.034   4.324   0.809  0.00  0.00    +0.020 A 
ATOM      9  C   LIG    1       -2.142   4.043   0.023  0.00  0.00    +0.110 A 
ATOM     10  O   LIG    1       -3.086   3.178   0.484  0.00  0.00    -0.300 OA
ATOM     11  C   LIG    1       -4.361   3.210  -0.166  0.00  0.00    +0.230 C 
ATOM     12  C   LIG    1       -4.126   3.223  -1.683  0.00  0.00    +0.230 C 
ATOM     13  O   LIG    1       -3.358   4.387  -2.007  0.00  0.00    -0.300 OA
ATOM     14  C   LIG    1       -2.276   4.645  -1.222  0.00  0.00    +0.030 A 
ATOM     15  C   LIG    1       -1.300   5.520  -1.675  0.00  0.00    +0.130 A 
ENDBRANCH   3   6
ENDBRANCH   1   3
BRANCH   1  16
ATOM     16  C   LIG    1        1.938   5.228  -3.385  0.00  0.00    +0.250 C 
BRANCH  16  17
ATOM     17  C   LIG    1        2.355   6.024  -4.594  0.00  0.00    +0.500 C 
ATOM     18  N   LIG    1        1.868   5.707  -5.810  0.00  0.00    -0.720 N 
ATOM     19  H   LIG    1        1.198   5.011  -5.898  0.00  0.00    +0.400 HD
ATOM     20  O   LIG    1        3.128   6.951  -4.474  0.00  0.00    -0.520 OA
BRANCH  18  21
ATOM     21  C   LIG    1        2.351   6.412  -7.000  0.00  0.00    +0.270 C 
BRANCH  21  22
ATOM     22  C   LIG    1        1.643   5.864  -8.241  0.00  0.00    +0.160 C 
ATOM     23  C   LIG    1        2.231   6.516  -9.510  0.00  0.00    +0.020 C 
ATOM     24  C   LIG    1        0.965   6.731 -10.386  0.00  0.00    +0.010 C 
ATOM     25  C   LIG    1       -0.097   7.036  -9.300  0.00  0.00    +0.200 C 
ATOM     26  O   LIG    1        0.249   6.193  -8.190  0.00  0.00    -0.380 OA
ENDBRANCH  21  22
ENDBRANCH  18  21
ENDBRANCH  16  17
BRANCH  16  28
ATOM     27  C   LIG    1        4.213   4.200  -3.287  0.00  0.00    +0.030 C 
ATOM     28  C   LIG    1        2.712   3.909  -3.351  0.00  0.00    +0.000 C 
ATOM     29  C   LIG    1        2.296   3.105  -2.117  0.00  0.00    +0.030 C 
ENDBRANCH  16  28
ENDBRANCH   1  16
TORSDOF 7
