REMARK  Name = ZINCrD0000075ruT.0
REMARK                            x       y       z     vdW  Elec       q    Type
REMARK                         _______ _______ _______ _____ _____    ______ ____
ROOT
ATOM      1  C   LIG    1       -6.276   6.040   0.283  0.00  0.00    +0.270 C 
ENDROOT
BRANCH   1   3
ATOM      2  O   LIG    1       -3.922   5.937   0.157  0.00  0.00    -0.480 OA
ATOM      3  C   LIG    1       -4.962   5.313   0.159  0.00  0.00    +0.520 C 
ATOM      4  N   LIG    1       -4.942   3.970   0.049  0.00  0.00    -0.670 N 
ATOM      5  H   LIG    1       -5.774   3.477  -0.027  0.00  0.00    +0.420 HD
BRANCH   4   6
ATOM      6  C   LIG    1       -3.721   3.287   0.044  0.00  0.00    +0.200 A 
ATOM      7  C   LIG    1       -2.653   3.765   0.791  0.00  0.00    +0.040 A 
ATOM      8  C   LIG    1       -1.449   3.089   0.784  0.00  0.00    +0.130 A 
ATOM      9  C   LIG    1       -1.307   1.935   0.034  0.00  0.00    -0.060 A 
ATOM     10  C   LIG    1       -2.367   1.459  -0.715  0.00  0.00    +0.130 A 
ATOM     11  C   LIG    1       -3.575   2.128  -0.708  0.00  0.00    +0.010 A 
BRANCH   9  12
ATOM     12  N   LIG    1       -0.015   1.213   0.029  0.00  0.00    +0.030 N 
ATOM     13  O   LIG    1        0.110   0.194  -0.627  0.00  0.00    -0.160 OA
ATOM     14  O   LIG    1        0.921   1.634   0.684  0.00  0.00    -0.160 OA
ENDBRANCH   9  12
ENDBRANCH   4   6
ENDBRANCH   1   3
BRANCH   1  15
ATOM     15  O   LIG    1       -6.033   7.467   0.386  0.00  0.00    -0.330 OA
BRANCH  15  16
ATOM     16  C   LIG    1       -7.108   8.262   0.505  0.00  0.00    +0.470 C 
ATOM     17  O   LIG    1       -8.216   7.781   0.521  0.00  0.00    -0.500 OA
BRANCH  16  18
ATOM     18  C   LIG    1       -6.933   9.755   0.617  0.00  0.00    +0.130 C 
BRANCH  18  19
ATOM     19  C   LIG    1       -8.304  10.422   0.739  0.00  0.00    +0.170 C 
BRANCH  19  20
ATOM     20  C   LIG    1       -8.129  11.914   0.851  0.00  0.00    +0.090 A 
ATOM     21  N   LIG    1       -8.093  12.711  -0.149  0.00  0.00    -0.460 NA
ATOM     22  C   LIG    1       -7.934  14.025   0.100  0.00  0.00    +0.080 A 
ATOM     23  C   LIG    1       -7.866  15.110  -0.798  0.00  0.00    +0.080 A 
ATOM     24  C   LIG    1       -7.694  16.379  -0.335  0.00  0.00    +0.030 A 
ATOM     25  C   LIG    1       -7.585  16.630   1.026  0.00  0.00    +0.040 A 
ATOM     26  C   LIG    1       -7.649  15.590   1.926  0.00  0.00    +0.060 A 
ATOM     27  C   LIG    1       -7.824  14.285   1.471  0.00  0.00    -0.180 A 
ATOM     28  S   LIG    1       -7.947  12.752   2.327  0.00  0.00    +0.110 S 
ENDBRANCH  19  20
ENDBRANCH  18  19
ENDBRANCH  16  18
ENDBRANCH  15  16
ENDBRANCH   1  15
TORSDOF 8
