REMARK  Name = ZINCtV00001bB3JK.0
REMARK                            x       y       z     vdW  Elec       q    Type
REMARK                         _______ _______ _______ _____ _____    ______ ____
ROOT
ATOM      1  O   LIG    1       -1.452  -2.218   0.294  0.00  0.00    -0.510 OA
ATOM      2  C   LIG    1       -2.489  -2.850   0.218  0.00  0.00    +0.570 C 
ATOM      3  N   LIG    1       -2.458  -4.197   0.214  0.00  0.00    -0.580 N 
ATOM      4  C   LIG    1       -1.324  -4.984   0.194  0.00  0.00    +0.390 C 
ATOM      5  N   LIG    1       -1.568  -6.258   0.296  0.00  0.00    -0.510 NA
ATOM      6  C   LIG    1       -3.010  -6.459   0.429  0.00  0.00    +0.130 C 
ATOM      7  C   LIG    1       -3.542  -7.629  -0.348  0.00  0.00    +0.050 C 
ATOM      8  C   LIG    1       -4.066  -7.255  -1.730  0.00  0.00    +0.010 C 
ATOM      9  C   LIG    1       -5.109  -6.145  -1.548  0.00  0.00    +0.020 C 
ATOM     10  C   LIG    1       -4.389  -4.890  -1.076  0.00  0.00    +0.010 C 
ATOM     11  C   LIG    1       -3.637  -5.099   0.224  0.00  0.00    +0.220 C 
ENDROOT
BRANCH   4  12
ATOM     12  C   LIG    1        0.031  -4.434   0.072  0.00  0.00    +0.030 C 
ATOM     13  C   LIG    1        1.086  -5.262  -0.041  0.00  0.00    +0.100 C 
BRANCH  13  14
ATOM     14  C   LIG    1        2.453  -4.716  -0.050  0.00  0.00    -0.060 A 
ATOM     15  C   LIG    1        2.665  -3.350   0.161  0.00  0.00    +0.050 A 
ATOM     16  C   LIG    1        3.949  -2.846   0.156  0.00  0.00    +0.030 A 
ATOM     17  C   LIG    1        5.026  -3.688  -0.067  0.00  0.00    -0.030 A 
ATOM     18  C   LIG    1        4.823  -5.042  -0.282  0.00  0.00    +0.030 A 
ATOM     19 CL   LIG    1        6.638  -3.044  -0.079  0.00  0.00    -0.070 Cl
ATOM     20  C   LIG    1        3.545  -5.560  -0.275  0.00  0.00    +0.050 A 
ENDBRANCH  13  14
ENDBRANCH   4  12
BRANCH   2  21
ATOM     21  C   LIG    1       -3.769  -2.147   0.131  0.00  0.00    -0.080 C 
ATOM     22  C   LIG    1       -3.795  -0.802   0.028  0.00  0.00    +0.140 C 
BRANCH  22  23
ATOM     23  C   LIG    1       -5.080  -0.087   0.052  0.00  0.00    -0.080 A 
ATOM     24  C   LIG    1       -5.107   1.311   0.052  0.00  0.00    +0.060 A 
ATOM     25  C   LIG    1       -6.315   1.975   0.074  0.00  0.00    +0.030 A 
ATOM     26  C   LIG    1       -7.501   1.259   0.095  0.00  0.00    -0.020 A 
ATOM     27  C   LIG    1       -7.483  -0.126   0.094  0.00  0.00    +0.030 A 
ATOM     28 CL   LIG    1       -9.018   2.103   0.122  0.00  0.00    -0.060 Cl
ATOM     29  C   LIG    1       -6.282  -0.803   0.073  0.00  0.00    +0.050 A 
ENDBRANCH  22  23
ENDBRANCH   2  21
TORSDOF 4
