REMARK  Name = ZINCpk000000oeSF.0
REMARK                            x       y       z     vdW  Elec       q    Type
REMARK                         _______ _______ _______ _____ _____    ______ ____
ROOT
ATOM      1  C   LIG    1        1.832  -1.714  -0.025  0.00  0.00    +0.360 C 
ENDROOT
BRANCH   1   5
ATOM      2  N   LIG    1        1.279   1.873  -0.000  0.00  0.00    -0.570 N 
ATOM      3  C   LIG    1       -0.018   1.496   0.010  0.00  0.00    +0.510 C 
ATOM      4  C   LIG    1        0.002  -0.004   0.002  0.00  0.00    +0.510 C 
ATOM      5  N   LIG    1        1.309  -0.346  -0.012  0.00  0.00    -0.570 N 
ATOM      6  O   LIG    1       -0.953  -0.752   0.008  0.00  0.00    -0.400 OA
ATOM      7  O   LIG    1       -0.993   2.217   0.019  0.00  0.00    -0.400 OA
ATOM      8  C   LIG    1        2.050   0.774  -0.013  0.00  0.00    +0.720 C 
ATOM      9  O   LIG    1        3.265   0.790  -0.024  0.00  0.00    -0.480 OA
BRANCH   2  10
ATOM     10  C   LIG    1        1.764   3.255   0.002  0.00  0.00    +0.330 C 
BRANCH  10  11
ATOM     11  C   LIG    1        1.947   3.729   1.446  0.00  0.00    +0.000 C 
BRANCH  11  13
ATOM     12  C   LIG    1        2.638   5.646   2.891  0.00  0.00    +0.030 C 
ATOM     13  C   LIG    1        2.455   5.172   1.448  0.00  0.00    +0.020 C 
ENDBRANCH  11  13
ENDBRANCH  10  11
ENDBRANCH   2  10
ENDBRANCH   1   5
BRANCH   1  14
ATOM     14  C   LIG    1        1.997  -2.175  -1.450  0.00  0.00    +0.390 C 
ATOM     15  O   LIG    1        1.706  -1.434  -2.365  0.00  0.00    -0.430 OA
BRANCH  14  16
ATOM     16  C   LIG    1        2.508  -3.519  -1.730  0.00  0.00    -0.240 A 
ATOM     17  C   LIG    1        2.850  -4.377  -0.676  0.00  0.00    +0.150 A 
ATOM     18  C   LIG    1        3.321  -5.630  -0.940  0.00  0.00    -0.110 A 
ATOM     19  C   LIG    1        3.476  -6.063  -2.254  0.00  0.00    +0.210 A 
ATOM     20  C   LIG    1        3.148  -5.225  -3.311  0.00  0.00    -0.110 A 
ATOM     21  C   LIG    1        2.664  -3.954  -3.059  0.00  0.00    +0.230 A 
BRANCH  19  22
ATOM     22  O   LIG    1        3.951  -7.309  -2.502  0.00  0.00    -0.310 OA
ATOM     23  C   LIG    1        4.270  -8.120  -1.370  0.00  0.00    +0.250 C 
ENDBRANCH  19  22
BRANCH  21  24
ATOM     24  O   LIG    1        2.341  -3.131  -4.088  0.00  0.00    -0.280 OA
ATOM     25  C   LIG    1        2.526  -3.642  -5.410  0.00  0.00    +0.250 C 
ENDBRANCH  21  24
ENDBRANCH  14  16
ENDBRANCH   1  14
TORSDOF 8
