REMARK  Name = ZINCfA000000bkOx.0
REMARK                            x       y       z     vdW  Elec       q    Type
REMARK                         _______ _______ _______ _____ _____    ______ ____
ROOT
ATOM      1  N   LIG    1       -2.025   1.187  -1.473  0.00  0.00    -0.510 N 
ATOM      2  H   LIG    1       -2.572   1.496  -0.683  0.00  0.00    +0.430 HD
ATOM      3  H   LIG    1       -2.004   0.178  -1.494  0.00  0.00    +0.430 HD
ENDROOT
BRANCH   1   4
ATOM      4  C   LIG    1       -0.654   1.702  -1.350  0.00  0.00    +0.270 C 
BRANCH   4   5
ATOM      5  C   LIG    1       -0.026   1.177  -0.058  0.00  0.00    -0.010 C 
ATOM      6  C   LIG    1       -0.781   1.747   1.145  0.00  0.00    +0.030 C 
BRANCH   5   7
ATOM      7  C   LIG    1        1.440   1.610   0.009  0.00  0.00    +0.030 C 
BRANCH   7   9
ATOM      8  C   LIG    1        3.667   1.437  -1.109  0.00  0.00    +0.010 C 
ATOM      9  C   LIG    1        2.227   0.921  -1.107  0.00  0.00    +0.200 C 
BRANCH   9  10
ATOM     10  O   LIG    1        2.228  -0.491  -0.887  0.00  0.00    -0.570 OA
ATOM     11  H   LIG    1        2.628  -0.759  -0.049  0.00  0.00    +0.380 HD
ENDBRANCH   9  10
ENDBRANCH   7   9
ENDBRANCH   5   7
ENDBRANCH   4   5
ENDBRANCH   1   4
BRANCH   1  12
ATOM     12  C   LIG    1       -2.628   1.690  -2.714  0.00  0.00    +0.370 C 
BRANCH  12  13
ATOM     13  C   LIG    1       -4.033   1.162  -2.840  0.00  0.00    -0.280 A 
ATOM     14  C   LIG    1       -5.126   1.762  -2.363  0.00  0.00    -0.050 A 
ATOM     15  C   LIG    1       -6.312   1.088  -2.602  0.00  0.00    +0.030 A 
ATOM     16  C   LIG    1       -6.181  -0.062  -3.265  0.00  0.00    +0.030 A 
ATOM     17 BR   LIG    1       -5.060   3.408  -1.436  0.00  0.00    -0.000 Br
ATOM     18  S   LIG    1       -4.484  -0.343  -3.631  0.00  0.00    +0.210 S 
ENDBRANCH  12  13
ENDBRANCH   1  12
TORSDOF 7
