REMARK  Name = ZINCrH000004rRac.0
REMARK                            x       y       z     vdW  Elec       q    Type
REMARK                         _______ _______ _______ _____ _____    ______ ____
ROOT
ATOM      1  N   LIG    1       -4.747   1.498   3.527  0.00  0.00    -0.500 N 
ATOM      2  C   LIG    1       -5.250   2.538   2.618  0.00  0.00    +0.200 C 
ATOM      3  C   LIG    1       -4.649   2.328   1.226  0.00  0.00    +0.210 C 
ATOM      4  N   LIG    1       -3.183   2.375   1.315  0.00  0.00    -0.550 NA
ATOM      5  C   LIG    1       -2.681   1.335   2.224  0.00  0.00    +0.200 C 
ATOM      6  C   LIG    1       -3.281   1.544   3.616  0.00  0.00    +0.190 C 
ENDROOT
BRANCH   1  12
ATOM      7  C   LIG    1       -7.607  -0.380   7.055  0.00  0.00    +0.090 C 
ATOM      8  C   LIG    1       -6.721   0.718   6.527  0.00  0.00    -0.080 A 
ATOM      9  C   LIG    1       -6.483   1.843   7.295  0.00  0.00    +0.000 A 
ATOM     10  C   LIG    1       -5.670   2.854   6.815  0.00  0.00    +0.010 A 
ATOM     11  C   LIG    1       -5.089   2.740   5.568  0.00  0.00    -0.030 A 
ATOM     12  C   LIG    1       -5.330   1.614   4.791  0.00  0.00    +0.090 A 
ATOM     13  C   LIG    1       -6.147   0.601   5.276  0.00  0.00    -0.060 A 
ATOM     14  C   LIG    1       -6.406  -0.625   4.439  0.00  0.00    +0.100 C 
ENDBRANCH   1  12
BRANCH   4  15
ATOM     15  C   LIG    1       -2.571   2.253  -0.014  0.00  0.00    +0.530 C 
BRANCH  15  16
ATOM     16  N   LIG    1       -1.244   2.875   0.000  0.00  0.00    -0.370 N 
ATOM     17  N   LIG    1       -0.972   4.250   0.001  0.00  0.00    -0.260 NA
ATOM     18  C   LIG    1        0.313   4.407   0.009  0.00  0.00    +0.490 A 
ATOM     19  N   LIG    1        0.910   3.168   0.020  0.00  0.00    -0.450 N 
ATOM     20  C   LIG    1       -0.059   2.231   0.018  0.00  0.00    +0.470 A 
ATOM     21  S   LIG    1        0.172   0.534   0.029  0.00  0.00    -0.570 S 
BRANCH  19  22
ATOM     22  C   LIG    1        2.289   2.922   0.032  0.00  0.00    +0.110 A 
ATOM     23  C   LIG    1        2.883   2.341   1.144  0.00  0.00    +0.060 A 
ATOM     24  C   LIG    1        4.242   2.095   1.150  0.00  0.00    +0.030 A 
ATOM     25  C   LIG    1        5.013   2.437   0.055  0.00  0.00    +0.030 A 
ATOM     26  C   LIG    1        4.426   3.021  -1.053  0.00  0.00    +0.030 A 
ATOM     27  C   LIG    1        3.066   3.265  -1.067  0.00  0.00    +0.030 A 
ENDBRANCH  19  22
ENDBRANCH  15  16
ENDBRANCH   4  15
TORSDOF 4
