REMARK  Name = ZINCrH00000No4Ty.0
REMARK                            x       y       z     vdW  Elec       q    Type
REMARK                         _______ _______ _______ _____ _____    ______ ____
ROOT
ATOM      1  N   LIG    1        2.338  -4.076   0.001  0.00  0.00    -0.570 N 
ATOM      2  C   LIG    1        2.301  -4.733  -1.164  0.00  0.00    +0.520 C 
ATOM      3  S   LIG    1        2.465  -6.457  -0.789  0.00  0.00    +0.000 S 
ATOM      4  C   LIG    1        2.579  -6.210   0.965  0.00  0.00    -0.230 C 
ATOM      5  C   LIG    1        2.727  -7.150   1.932  0.00  0.00    +0.250 C 
ATOM      6  O   LIG    1        2.179  -4.240  -2.269  0.00  0.00    -0.420 OA
ATOM      7  C   LIG    1        2.483  -4.755   1.128  0.00  0.00    +0.560 C 
ATOM      8  O   LIG    1        2.529  -4.213   2.216  0.00  0.00    -0.460 OA
ENDROOT
BRANCH   5   9
ATOM      9  C   LIG    1        2.633  -8.576   1.591  0.00  0.00    -0.130 A 
ATOM     10  C   LIG    1        2.018  -8.976   0.400  0.00  0.00    +0.080 A 
ATOM     11  C   LIG    1        1.934 -10.316   0.087  0.00  0.00    +0.010 A 
ATOM     12  C   LIG    1        2.455 -11.267   0.948  0.00  0.00    +0.080 A 
ATOM     13  C   LIG    1        3.065 -10.883   2.128  0.00  0.00    -0.010 A 
ATOM     14  C   LIG    1        3.164  -9.544   2.455  0.00  0.00    +0.140 A 
ATOM     15  F   LIG    1        3.764  -9.170   3.606  0.00  0.00    -0.130 F 
ENDBRANCH   5   9
BRANCH   1  16
ATOM     16  C   LIG    1        2.226  -2.616   0.029  0.00  0.00    +0.310 C 
BRANCH  16  17
ATOM     17  C   LIG    1        0.753  -2.220   0.149  0.00  0.00    +0.270 C 
BRANCH  17  20
ATOM     18  O   LIG    1       -1.574  -0.868   0.347  0.00  0.00    -0.540 OA
ATOM     19  C   LIG    1       -0.572  -0.179   0.278  0.00  0.00    +0.560 C 
ATOM     20  N   LIG    1        0.640  -0.760   0.176  0.00  0.00    -0.730 N 
ATOM     21  H   LIG    1        1.438  -0.210   0.121  0.00  0.00    +0.400 HD
BRANCH  19  22
ATOM     22  C   LIG    1       -0.681   1.231   0.304  0.00  0.00    -0.120 C 
ATOM     23  C   LIG    1       -1.901   1.816   0.401  0.00  0.00    +0.190 C 
BRANCH  23  24
ATOM     24  C   LIG    1       -2.010   3.227   0.428  0.00  0.00    -0.210 A 
ATOM     25  C   LIG    1       -3.181   3.933   0.517  0.00  0.00    +0.060 A 
ATOM     26  C   LIG    1       -2.994   5.295   0.527  0.00  0.00    -0.010 A 
ATOM     27  C   LIG    1       -1.719   5.694   0.439  0.00  0.00    -0.070 A 
ATOM     28  S   LIG    1       -0.664   4.356   0.344  0.00  0.00    +0.200 S 
ENDBRANCH  23  24
ENDBRANCH  19  22
ENDBRANCH  17  20
ENDBRANCH  16  17
ENDBRANCH   1  16
TORSDOF 6
