REMARK  Name = ZINCqH0000007pe5.0
REMARK                            x       y       z     vdW  Elec       q    Type
REMARK                         _______ _______ _______ _____ _____    ______ ____
ROOT
ATOM      1  N   LIG    1       -1.559   3.593   0.154  0.00  0.00    -0.730 N 
ATOM      2  H   LIG    1       -1.133   3.834  -0.683  0.00  0.00    +0.400 HD
ATOM      3  C   LIG    1       -2.896   3.703   0.286  0.00  0.00    +0.520 C 
ATOM      4  O   LIG    1       -3.429   3.401   1.333  0.00  0.00    -0.540 OA
ENDROOT
BRANCH   1   5
ATOM      5  C   LIG    1       -0.750   3.109   1.275  0.00  0.00    +0.300 C 
BRANCH   5   9
ATOM      6  C   LIG    1        3.241   4.590   0.894  0.00  0.00    +0.130 A 
ATOM      7  C   LIG    1        2.635   4.540   2.141  0.00  0.00    -0.020 A 
ATOM      8  C   LIG    1        1.344   4.061   2.261  0.00  0.00    +0.070 A 
ATOM      9  C   LIG    1        0.658   3.631   1.141  0.00  0.00    -0.130 A 
ATOM     10  C   LIG    1        1.262   3.675  -0.102  0.00  0.00    +0.050 A 
ATOM     11  C   LIG    1        2.550   4.159  -0.229  0.00  0.00    -0.080 A 
BRANCH   6  13
ATOM     12  C   LIG    1        5.071   5.084  -0.542  0.00  0.00    +0.250 C 
ATOM     13  O   LIG    1        4.510   5.061   0.773  0.00  0.00    -0.320 OA
ENDBRANCH   6  13
ENDBRANCH   5   9
BRANCH   5  14
ATOM     14  C   LIG    1       -0.729   1.579   1.267  0.00  0.00    -0.020 C 
ATOM     15  C   LIG    1        0.011   1.072   2.506  0.00  0.00    +0.030 C 
ATOM     16  C   LIG    1       -0.013   1.086   0.008  0.00  0.00    +0.020 C 
ENDBRANCH   5  14
ENDBRANCH   1   5
BRANCH   3  17
ATOM     17  C   LIG    1       -3.729   4.200  -0.867  0.00  0.00    +0.060 C 
BRANCH  17  18
ATOM     18  C   LIG    1       -5.202   4.229  -0.457  0.00  0.00    +0.040 C 
BRANCH  18  19
ATOM     19  C   LIG    1       -6.048   4.734  -1.628  0.00  0.00    +0.260 C 
BRANCH  19  20
ATOM     20  N   LIG    1       -7.459   4.762  -1.235  0.00  0.00    -0.730 N 
ATOM     21  H   LIG    1       -7.720   4.483  -0.343  0.00  0.00    +0.400 HD
ATOM     22  C   LIG    1       -8.395   5.176  -2.112  0.00  0.00    +0.580 C 
ATOM     23  O   LIG    1       -8.068   5.526  -3.230  0.00  0.00    -0.530 OA
BRANCH  22  24
ATOM     24  C   LIG    1       -9.812   5.204  -1.718  0.00  0.00    -0.160 A 
ATOM     25  C   LIG    1      -10.256   4.829  -0.488  0.00  0.00    -0.040 A 
ATOM     26  S   LIG    1      -11.949   4.989  -0.380  0.00  0.00    +0.190 S 
ATOM     27  C   LIG    1      -12.074   5.576  -2.029  0.00  0.00    -0.060 A 
ATOM     28  C   LIG    1      -10.874   5.638  -2.595  0.00  0.00    +0.070 A 
ENDBRANCH  22  24
ENDBRANCH  19  20
ENDBRANCH  18  19
ENDBRANCH  17  18
ENDBRANCH   3  17
TORSDOF 9
