REMARK  Name = ZINCqH0000006H6Z.0
REMARK                            x       y       z     vdW  Elec       q    Type
REMARK                         _______ _______ _______ _____ _____    ______ ____
ROOT
ATOM      1  C   LIG    1       -2.905   2.993   1.660  0.00  0.00    +0.560 C 
ATOM      2  N   LIG    1       -1.751   2.347   1.404  0.00  0.00    -0.720 N 
ATOM      3  H   LIG    1       -1.197   2.034   2.137  0.00  0.00    +0.400 HD
ATOM      4  O   LIG    1       -3.599   3.385   0.741  0.00  0.00    -0.530 OA
ENDROOT
BRANCH   1   7
ATOM      5  C   LIG    1       -4.917   4.112   4.633  0.00  0.00    +0.190 A 
ATOM      6  C   LIG    1       -4.524   3.896   3.323  0.00  0.00    -0.030 A 
ATOM      7  C   LIG    1       -3.328   3.227   3.057  0.00  0.00    -0.040 A 
ATOM      8  C   LIG    1       -2.537   2.773   4.112  0.00  0.00    -0.070 A 
ATOM      9  C   LIG    1       -2.934   2.997   5.420  0.00  0.00    +0.190 A 
ATOM     10  C   LIG    1       -4.124   3.664   5.681  0.00  0.00    -0.140 A 
ATOM     11 BR   LIG    1       -4.666   3.961   7.468  0.00  0.00    -0.010 Br
BRANCH   5  13
ATOM     12  C   LIG    1       -6.847   5.198   3.768  0.00  0.00    +0.250 C 
ATOM     13  O   LIG    1       -6.081   4.764   4.893  0.00  0.00    -0.300 OA
ENDBRANCH   5  13
BRANCH   9  14
ATOM     14  O   LIG    1       -2.162   2.560   6.449  0.00  0.00    -0.300 OA
ATOM     15  C   LIG    1       -0.951   1.881   6.108  0.00  0.00    +0.250 C 
ENDBRANCH   9  14
ENDBRANCH   1   7
BRANCH   2  16
ATOM     16  C   LIG    1       -1.331   2.115   0.020  0.00  0.00    +0.330 C 
BRANCH  16  17
ATOM     17  C   LIG    1       -0.017   1.379   0.010  0.00  0.00    -0.140 A 
ATOM     18  C   LIG    1        0.002  -0.004   0.002  0.00  0.00    +0.060 A 
ATOM     19  C   LIG    1        1.206  -0.676  -0.010  0.00  0.00    -0.030 A 
ATOM     20  C   LIG    1        2.409   0.030  -0.015  0.00  0.00    +0.140 A 
ATOM     21  C   LIG    1        2.385   1.414  -0.013  0.00  0.00    -0.130 A 
ATOM     22  C   LIG    1        3.649   2.236  -0.029  0.00  0.00    +0.080 C 
ATOM     23  C   LIG    1        4.842   1.354   0.347  0.00  0.00    +0.040 C 
ATOM     24  C   LIG    1        4.750   0.061  -0.475  0.00  0.00    +0.190 C 
ATOM     25  N   LIG    1        3.592  -0.707  -0.013  0.00  0.00    -0.500 N 
ATOM     26  C   LIG    1        3.442  -1.947  -0.785  0.00  0.00    +0.220 C 
ATOM     27  C   LIG    1        1.171   2.083   0.002  0.00  0.00    +0.050 A 
ENDBRANCH  16  17
ENDBRANCH   2  16
TORSDOF 5
