REMARK  Name = ZINCpe000027pHlO.0
REMARK                            x       y       z     vdW  Elec       q    Type
REMARK                         _______ _______ _______ _____ _____    ______ ____
ROOT
ATOM      1  N   LIG    1        2.387  -0.323  -0.022  0.00  0.00    -0.680 N 
ATOM      2  H   LIG    1        1.550  -0.811  -0.067  0.00  0.00    +0.400 HD
ATOM      3  C   LIG    1        2.379   1.013   0.155  0.00  0.00    +0.710 C 
ATOM      4  N   LIG    1        1.211   1.685   0.164  0.00  0.00    -0.520 N 
ATOM      5  H   LIG    1        1.205   2.647   0.292  0.00  0.00    +0.450 HD
ATOM      6  O   LIG    1        3.426   1.612   0.308  0.00  0.00    -0.550 OA
ENDROOT
BRANCH   1  10
ATOM      7  C   LIG    1        6.005  -2.355  -0.383  0.00  0.00    -0.150 A 
ATOM      8  C   LIG    1        4.914  -2.972   0.234  0.00  0.00    +0.110 A 
ATOM      9  C   LIG    1        3.719  -2.298   0.352  0.00  0.00    -0.010 A 
ATOM     10  C   LIG    1        3.598  -1.003  -0.143  0.00  0.00    +0.190 A 
ATOM     11  C   LIG    1        4.681  -0.388  -0.763  0.00  0.00    +0.010 A 
ATOM     12  C   LIG    1        5.880  -1.054  -0.878  0.00  0.00    +0.070 A 
BRANCH   7  15
ATOM     13  N   LIG    1        8.339  -2.478  -1.106  0.00  0.00    -0.730 N 
ATOM     14  H   LIG    1        8.253  -1.575  -1.450  0.00  0.00    +0.400 HD
ATOM     15  C   LIG    1        7.287  -3.075  -0.511  0.00  0.00    +0.560 C 
ATOM     16  O   LIG    1        7.394  -4.207  -0.080  0.00  0.00    -0.540 OA
BRANCH  13  18
ATOM     17  C   LIG    1       10.630  -2.298  -1.941  0.00  0.00    +0.030 C 
ATOM     18  C   LIG    1        9.611  -3.193  -1.234  0.00  0.00    +0.250 C 
ENDBRANCH  13  18
ENDBRANCH   7  15
ENDBRANCH   1  10
BRANCH   4  19
ATOM     19  N   LIG    1        0.004   0.995  -0.012  0.00  0.00    -0.530 N 
ATOM     20  H   LIG    1        0.010   0.033  -0.140  0.00  0.00    +0.420 HD
ATOM     21  C   LIG    1       -1.164   1.667  -0.008  0.00  0.00    +0.580 C 
ATOM     22  O   LIG    1       -1.171   2.872   0.152  0.00  0.00    -0.530 OA
BRANCH  21  23
ATOM     23  C   LIG    1       -2.433   0.941  -0.200  0.00  0.00    -0.250 A 
ATOM     24  C   LIG    1       -3.655   1.631  -0.198  0.00  0.00    +0.180 A 
ATOM     25  C   LIG    1       -4.809   0.917  -0.380  0.00  0.00    -0.100 A 
ATOM     26  C   LIG    1       -4.738  -0.463  -0.559  0.00  0.00    +0.430 A 
ATOM     27  N   LIG    1       -3.570  -1.092  -0.556  0.00  0.00    -0.550 NA
ATOM     28  C   LIG    1       -2.437  -0.442  -0.391  0.00  0.00    +0.350 A 
BRANCH  26  29
ATOM     29  N   LIG    1       -5.903  -1.189  -0.742  0.00  0.00    -0.840 N 
ATOM     30  H   LIG    1       -5.861  -2.150  -0.868  0.00  0.00    +0.410 HD
ATOM     31  H   LIG    1       -6.761  -0.736  -0.745  0.00  0.00    +0.410 HD
ENDBRANCH  26  29
ENDBRANCH  21  23
ENDBRANCH   4  19
TORSDOF 6
