REMARK  Name = ZINCrH00000No4IE.0
REMARK                            x       y       z     vdW  Elec       q    Type
REMARK                         _______ _______ _______ _____ _____    ______ ____
ROOT
ATOM      1  C   LIG    1        4.640  -3.229   1.218  0.00  0.00    +0.250 C 
ATOM      2  C   LIG    1        5.856  -2.614   1.431  0.00  0.00    -0.100 C 
ATOM      3  N   LIG    1        7.096  -3.159   1.271  0.00  0.00    -0.470 NA
ATOM      4  C   LIG    1        7.997  -2.264   1.570  0.00  0.00    +0.340 C 
ATOM      5  O   LIG    1        7.432  -1.097   1.938  0.00  0.00    -0.290 OA
ATOM      6  C   LIG    1        6.090  -1.227   1.873  0.00  0.00    +0.480 C 
ATOM      7  O   LIG    1        5.252  -0.382   2.128  0.00  0.00    -0.410 OA
ENDROOT
BRANCH   1  11
ATOM      8  C   LIG    1        1.058  -1.261   2.301  0.00  0.00    +0.180 A 
ATOM      9  C   LIG    1        1.095  -2.055   1.158  0.00  0.00    +0.000 A 
ATOM     10  C   LIG    1        2.251  -2.689   0.800  0.00  0.00    +0.090 A 
ATOM     11  C   LIG    1        3.399  -2.547   1.593  0.00  0.00    -0.130 A 
ATOM     12  C   LIG    1        3.355  -1.751   2.747  0.00  0.00    +0.100 A 
ATOM     13  C   LIG    1        2.195  -1.117   3.092  0.00  0.00    -0.030 A 
BRANCH   8  16
ATOM     14  C   LIG    1       -2.296   0.422   2.084  0.00  0.00    +0.110 C 
ATOM     15  C   LIG    1       -0.960  -0.161   1.702  0.00  0.00    +0.510 C 
ATOM     16  N   LIG    1       -0.123  -0.612   2.658  0.00  0.00    -0.680 N 
ATOM     17  H   LIG    1       -0.343  -0.485   3.594  0.00  0.00    +0.410 HD
ATOM     18  O   LIG    1       -0.640  -0.230   0.534  0.00  0.00    -0.520 OA
ENDBRANCH   8  16
ENDBRANCH   1  11
BRANCH   4  19
ATOM     19  C   LIG    1        9.453  -2.499   1.513  0.00  0.00    -0.090 A 
ATOM     20  C   LIG    1        9.946  -3.747   1.124  0.00  0.00    +0.130 A 
ATOM     21  C   LIG    1       11.305  -3.961   1.066  0.00  0.00    -0.020 A 
ATOM     22  C   LIG    1       12.186  -2.941   1.405  0.00  0.00    +0.170 A 
ATOM     23  C   LIG    1       11.700  -1.700   1.798  0.00  0.00    -0.080 A 
ATOM     24  C   LIG    1       10.342  -1.476   1.853  0.00  0.00    +0.110 A 
BRANCH  22  25
ATOM     25  O   LIG    1       13.525  -3.158   1.353  0.00  0.00    -0.300 OA
BRANCH  25  26
ATOM     26  C   LIG    1       14.374  -2.035   1.599  0.00  0.00    +0.150 C 
ATOM     27  C   LIG    1       15.735  -2.270   0.940  0.00  0.00    +0.070 C 
ATOM     28  C   LIG    1       14.562  -1.858   3.107  0.00  0.00    +0.030 C 
ENDBRANCH  25  26
ENDBRANCH  22  25
ENDBRANCH   4  19
TORSDOF 5
