REMARK  Name = ZINCvU00000003Z4.0
REMARK                            x       y       z     vdW  Elec       q    Type
REMARK                         _______ _______ _______ _____ _____    ______ ____
ROOT
ATOM      1  N   LIG    1        4.877   5.752   1.046  0.00  0.00    -0.490 N 
ATOM      2  C   LIG    1        4.078   6.248  -0.084  0.00  0.00    +0.210 C 
ATOM      3  C   LIG    1        2.661   5.675   0.008  0.00  0.00    +0.240 C 
ATOM      4  N   LIG    1        2.727   4.207  -0.001  0.00  0.00    -0.470 N 
ATOM      5  C   LIG    1        3.527   3.712   1.128  0.00  0.00    +0.220 C 
ATOM      6  C   LIG    1        4.943   4.284   1.037  0.00  0.00    +0.220 C 
ENDROOT
BRANCH   4   7
ATOM      7  C   LIG    1        1.460   3.654   0.008  0.00  0.00    +0.410 A 
ATOM      8  C   LIG    1        1.288   2.245   0.002  0.00  0.00    -0.190 A 
ATOM      9  C   LIG    1        2.269   1.181  -0.013  0.00  0.00    +0.070 A 
ATOM     10  C   LIG    1        1.755  -0.049  -0.015  0.00  0.00    -0.130 A 
ATOM     11  S   LIG    1        0.002  -0.004   0.002  0.00  0.00    +0.200 S 
ATOM     12  C   LIG    1       -0.022   1.753   0.012  0.00  0.00    +0.100 A 
ATOM     13  N   LIG    1       -1.042   2.620   0.031  0.00  0.00    -0.510 NA
ATOM     14  C   LIG    1       -0.830   3.916   0.032  0.00  0.00    +0.550 A 
ATOM     15  N   LIG    1        0.387   4.431   0.023  0.00  0.00    -0.560 NA
BRANCH  10  16
ATOM     16  C   LIG    1        2.558  -1.290  -0.029  0.00  0.00    -0.030 A 
ATOM     17  C   LIG    1        3.952  -1.222  -0.047  0.00  0.00    +0.030 A 
ATOM     18  C   LIG    1        4.696  -2.385  -0.054  0.00  0.00    +0.020 A 
ATOM     19  C   LIG    1        4.063  -3.615  -0.055  0.00  0.00    +0.020 A 
ATOM     20  C   LIG    1        2.681  -3.689  -0.042  0.00  0.00    +0.020 A 
ATOM     21  C   LIG    1        1.926  -2.534  -0.029  0.00  0.00    +0.010 A 
ENDBRANCH  10  16
ENDBRANCH   4   7
BRANCH   1  26
ATOM     22  C   LIG    1        8.337   6.526   2.012  0.00  0.00    -0.160 A 
ATOM     23  C   LIG    1        8.693   7.419   1.018  0.00  0.00    +0.040 A 
ATOM     24  C   LIG    1        7.784   7.759   0.032  0.00  0.00    +0.050 A 
ATOM     25  C   LIG    1        6.518   7.208   0.038  0.00  0.00    +0.000 A 
ATOM     26  C   LIG    1        6.157   6.311   1.036  0.00  0.00    +0.110 A 
ATOM     27  C   LIG    1        7.071   5.975   2.027  0.00  0.00    +0.050 A 
BRANCH  22  29
ATOM     28  F   LIG    1       10.531   6.842   2.861  0.00  0.00    -0.180 F 
ATOM     29  C   LIG    1        9.331   6.159   3.084  0.00  0.00    +0.510 C 
ATOM     30  F   LIG    1        9.566   4.780   3.049  0.00  0.00    -0.180 F 
ATOM     31  F   LIG    1        8.818   6.513   4.336  0.00  0.00    -0.170 F 
ENDBRANCH  22  29
ENDBRANCH   1  26
TORSDOF 4
