REMARK  Name = ZINCrD00000hQ6ZU.0
REMARK                            x       y       z     vdW  Elec       q    Type
REMARK                         _______ _______ _______ _____ _____    ______ ____
ROOT
ATOM      1  N   LIG    1        1.252   1.835   0.000  0.00  0.00    -0.470 N 
ATOM      2  C   LIG    1        2.157   0.793  -0.014  0.00  0.00    +0.060 A 
ATOM      3  C   LIG    1        3.547   0.741  -0.028  0.00  0.00    +0.040 A 
ATOM      4  C   LIG    1        4.191  -0.477  -0.041  0.00  0.00    -0.050 A 
ATOM      5  C   LIG    1        3.462  -1.663  -0.041  0.00  0.00    +0.110 A 
ATOM      6  C   LIG    1        2.080  -1.630  -0.027  0.00  0.00    +0.010 A 
ATOM      7  C   LIG    1        1.421  -0.403  -0.014  0.00  0.00    -0.030 A 
ATOM      8  C   LIG    1        0.002  -0.004   0.002  0.00  0.00    -0.230 A 
ATOM      9  C   LIG    1       -0.016   1.360   0.009  0.00  0.00    +0.150 A 
ATOM     10  C   LIG    1       -1.261   2.210   0.020  0.00  0.00    +0.150 C 
ENDROOT
BRANCH   8  11
ATOM     11  C   LIG    1       -1.163  -0.899   0.009  0.00  0.00    +0.600 C 
ATOM     12  N   LIG    1       -1.685  -1.316   1.179  0.00  0.00    -0.610 N 
ATOM     13  C   LIG    1       -1.091  -0.876   2.445  0.00  0.00    +0.290 C 
ATOM     14  O   LIG    1       -1.656  -1.264  -1.042  0.00  0.00    -0.530 OA
BRANCH  12  15
ATOM     15  C   LIG    1       -2.847  -2.208   1.186  0.00  0.00    +0.300 C 
BRANCH  15  16
ATOM     16  C   LIG    1       -2.373  -3.663   1.174  0.00  0.00    +0.160 C 
BRANCH  16  17
ATOM     17  C   LIG    1       -3.567  -4.581   1.181  0.00  0.00    +0.170 A 
ATOM     18  N   LIG    1       -4.188  -5.045   0.137  0.00  0.00    -0.380 NA
ATOM     19  O   LIG    1       -5.108  -5.757   0.478  0.00  0.00    +0.080 OA
ATOM     20  C   LIG    1       -5.165  -5.818   1.812  0.00  0.00    +0.180 A 
ATOM     21  C   LIG    1       -6.161  -6.595   2.634  0.00  0.00    +0.240 C 
ATOM     22  N   LIG    1       -4.184  -5.076   2.269  0.00  0.00    -0.480 NA
ENDBRANCH  16  17
ENDBRANCH  15  16
ENDBRANCH  12  15
ENDBRANCH   8  11
BRANCH   5  23
ATOM     23  O   LIG    1        4.112  -2.857  -0.054  0.00  0.00    -0.320 OA
ATOM     24  C   LIG    1        5.540  -2.819  -0.068  0.00  0.00    +0.230 C 
ENDBRANCH   5  23
BRANCH   1  25
ATOM     25  C   LIG    1        1.612   3.256   0.004  0.00  0.00    +0.280 C 
BRANCH  25  27
ATOM     26  C   LIG    1        2.127   5.226   1.451  0.00  0.00    +0.030 C 
ATOM     27  C   LIG    1        1.751   3.743   1.447  0.00  0.00    +0.000 C 
ENDBRANCH  25  27
ENDBRANCH   1  25
TORSDOF 7
