REMARK  Name = ZINCrD00000F5Lrw.0
REMARK                            x       y       z     vdW  Elec       q    Type
REMARK                         _______ _______ _______ _____ _____    ______ ____
ROOT
ATOM      1  C   LIG    1        1.321  -4.024   2.230  0.00  0.00    +0.230 A 
ATOM      2  C   LIG    1        0.665  -2.800   2.215  0.00  0.00    +0.040 A 
ATOM      3  C   LIG    1        0.538  -2.101   1.031  0.00  0.00    +0.110 A 
ATOM      4  C   LIG    1        1.062  -2.618  -0.139  0.00  0.00    -0.140 A 
ATOM      5  C   LIG    1        1.711  -3.840  -0.129  0.00  0.00    +0.110 A 
ATOM      6  C   LIG    1        1.847  -4.542   1.052  0.00  0.00    -0.050 A 
ENDROOT
BRANCH   4   7
ATOM      7  C   LIG    1        0.921  -1.853  -1.429  0.00  0.00    +0.470 C 
ATOM      8  N   LIG    1        0.521  -2.760  -2.530  0.00  0.00    -0.740 N 
ATOM      9  H   LIG    1       -0.384  -3.056  -2.713  0.00  0.00    +0.420 HD
ATOM     10  C   LIG    1        1.627  -3.111  -3.243  0.00  0.00    +0.540 C 
ATOM     11  C   LIG    1        2.806  -2.513  -2.535  0.00  0.00    +0.100 C 
ATOM     12  C   LIG    1        3.931  -2.000  -3.421  0.00  0.00    +0.070 C 
ATOM     13  C   LIG    1        5.000  -1.413  -2.481  0.00  0.00    +0.020 C 
ATOM     14  C   LIG    1        4.399  -0.335  -1.581  0.00  0.00    +0.030 C 
ATOM     15  C   LIG    1        3.152  -0.855  -0.847  0.00  0.00    +0.190 C 
ATOM     16  O   LIG    1        1.653  -3.779  -4.255  0.00  0.00    -0.500 OA
ATOM     17  N   LIG    1        2.218  -1.324  -1.856  0.00  0.00    -0.510 NA
ENDBRANCH   4   7
BRANCH   6  18
ATOM     18  N   LIG    1        2.546  -5.846   1.063  0.00  0.00    +0.030 N 
ATOM     19  O   LIG    1        2.661  -6.467   2.105  0.00  0.00    -0.120 OA
ATOM     20  O   LIG    1        3.007  -6.299   0.031  0.00  0.00    -0.170 OA
ENDBRANCH   6  18
BRANCH   1  22
ATOM     21  C   LIG    1        2.619  -4.515   4.284  0.00  0.00    +0.310 C 
ATOM     22  N   LIG    1        1.452  -4.734   3.426  0.00  0.00    -0.600 N 
BRANCH  22  23
ATOM     23  C   LIG    1        0.470  -5.653   3.805  0.00  0.00    +0.220 A 
ATOM     24  C   LIG    1       -0.641  -5.858   2.995  0.00  0.00    -0.080 A 
ATOM     25  C   LIG    1       -1.607  -6.770   3.370  0.00  0.00    +0.050 A 
ATOM     26  C   LIG    1       -1.476  -7.472   4.554  0.00  0.00    -0.050 A 
ATOM     27  C   LIG    1       -0.374  -7.267   5.365  0.00  0.00    +0.060 A 
ATOM     28  C   LIG    1        0.598  -6.359   4.994  0.00  0.00    -0.050 A 
ENDBRANCH  22  23
ENDBRANCH   1  22
TORSDOF 4
