REMARK  Name = ZINCnE000004RcN1.0
REMARK                            x       y       z     vdW  Elec       q    Type
REMARK                         _______ _______ _______ _____ _____    ______ ____
ROOT
ATOM      1  N   LIG    1        2.432   5.620   0.029  0.00  0.00    -0.720 N 
ATOM      2  H   LIG    1        1.585   6.090  -0.021  0.00  0.00    +0.400 HD
ATOM      3  C   LIG    1        2.452   4.275   0.113  0.00  0.00    +0.570 C 
ATOM      4  O   LIG    1        3.513   3.686   0.176  0.00  0.00    -0.540 OA
ENDROOT
BRANCH   3   5
ATOM      5  C   LIG    1        1.181   3.515   0.127  0.00  0.00    -0.120 A 
ATOM      6  C   LIG    1       -0.037   4.192   0.054  0.00  0.00    +0.000 A 
ATOM      7  C   LIG    1       -1.221   3.488   0.067  0.00  0.00    +0.070 A 
ATOM      8  C   LIG    1       -1.203   2.093   0.148  0.00  0.00    -0.140 A 
ATOM      9  C   LIG    1        0.018   1.413   0.227  0.00  0.00    +0.120 A 
ATOM     10  F   LIG    1        0.037   0.065   0.310  0.00  0.00    -0.120 F 
ATOM     11  C   LIG    1        1.203   2.123   0.214  0.00  0.00    +0.020 A 
BRANCH   8  12
ATOM     12  C   LIG    1       -2.471   1.337   0.157  0.00  0.00    +0.520 C 
ATOM     13  O   LIG    1       -2.455   0.117   0.232  0.00  0.00    -0.670 OA
ATOM     14  O   LIG    1       -3.538   1.931   0.088  0.00  0.00    -0.680 OA
ENDBRANCH   8  12
ENDBRANCH   3   5
BRANCH   1  16
ATOM     15  C   LIG    1        4.228   6.438  -1.415  0.00  0.00    +0.020 C 
ATOM     16  C   LIG    1        3.689   6.372   0.015  0.00  0.00    +0.240 C 
BRANCH  16  17
ATOM     17  C   LIG    1        3.440   7.791   0.533  0.00  0.00    +0.020 C 
ATOM     18  C   LIG    1        4.768   8.548   0.602  0.00  0.00    +0.040 C 
BRANCH  17  19
ATOM     19  C   LIG    1        2.827   7.724   1.908  0.00  0.00    -0.080 A 
ATOM     20  C   LIG    1        3.541   7.175   2.957  0.00  0.00    +0.010 A 
ATOM     21  C   LIG    1        2.980   7.118   4.219  0.00  0.00    +0.000 A 
ATOM     22  C   LIG    1        1.702   7.601   4.430  0.00  0.00    +0.000 A 
ATOM     23  C   LIG    1        0.987   8.145   3.380  0.00  0.00    +0.000 A 
ATOM     24  C   LIG    1        1.549   8.206   2.119  0.00  0.00    +0.000 A 
ENDBRANCH  17  19
ENDBRANCH  16  17
ENDBRANCH   1  16
TORSDOF 5
