REMARK  Name = ZINCrg000000oyfx.0
REMARK                            x       y       z     vdW  Elec       q    Type
REMARK                         _______ _______ _______ _____ _____    ______ ____
ROOT
ATOM      1  N   LIG    1        4.701  -4.873   1.600  0.00  0.00    -0.710 N 
ATOM      2  H   LIG    1        5.026  -5.405   0.857  0.00  0.00    +0.410 HD
ATOM      3  C   LIG    1        4.000  -3.745   1.366  0.00  0.00    +0.500 C 
ATOM      4  O   LIG    1        3.594  -3.080   2.295  0.00  0.00    -0.510 OA
ENDROOT
BRANCH   1   5
ATOM      5  C   LIG    1        4.971  -5.295   2.977  0.00  0.00    +0.250 C 
BRANCH   5   6
ATOM      6  C   LIG    1        5.765  -6.576   2.963  0.00  0.00    -0.100 A 
ATOM      7  C   LIG    1        6.652  -6.850   3.987  0.00  0.00    +0.040 A 
ATOM      8  C   LIG    1        7.378  -8.027   3.976  0.00  0.00    +0.010 A 
ATOM      9  C   LIG    1        7.222  -8.925   2.937  0.00  0.00    +0.020 A 
ATOM     10  C   LIG    1        6.338  -8.648   1.910  0.00  0.00    +0.010 A 
ATOM     11  C   LIG    1        5.611  -7.473   1.923  0.00  0.00    +0.030 A 
ENDBRANCH   5   6
BRANCH   5  13
ATOM     12  C   LIG    1        7.036  -3.890   2.894  0.00  0.00    +0.030 C 
ATOM     13  C   LIG    1        5.772  -4.207   3.696  0.00  0.00    +0.050 C 
ENDBRANCH   5  13
BRANCH   5  14
ATOM     14  C   LIG    1        3.668  -5.519   3.699  0.00  0.00    +0.470 C 
ATOM     15  O   LIG    1        3.574  -5.252   4.873  0.00  0.00    -0.490 OA
BRANCH  14  16
ATOM     16  O   LIG    1        2.611  -6.016   3.037  0.00  0.00    -0.350 OA
ATOM     17  C   LIG    1        1.388  -6.206   3.796  0.00  0.00    +0.260 C 
ENDBRANCH  14  16
ENDBRANCH   5  14
ENDBRANCH   1   5
BRANCH   3  18
ATOM     18  C   LIG    1        3.722  -3.312  -0.050  0.00  0.00    +0.410 C 
BRANCH  18  19
ATOM     19  N   LIG    1        2.950  -2.066  -0.036  0.00  0.00    -0.420 N 
ATOM     20  N   LIG    1        1.553  -1.958  -0.023  0.00  0.00    -0.280 NA
ATOM     21  C   LIG    1        1.248  -0.682  -0.013  0.00  0.00    +0.300 A 
ATOM     22  C   LIG    1        0.002  -0.004   0.002  0.00  0.00    +0.040 A 
ATOM     23  C   LIG    1       -0.016   1.351   0.009  0.00  0.00    +0.110 A 
ATOM     24  C   LIG    1        1.197   2.070   0.002  0.00  0.00    -0.020 A 
ATOM     25  C   LIG    1        2.375   1.423  -0.013  0.00  0.00    +0.300 A 
ATOM     26  N   LIG    1        2.421   0.049  -0.021  0.00  0.00    -0.480 N 
ATOM     27  C   LIG    1        3.456  -0.816  -0.035  0.00  0.00    +0.650 A 
ATOM     28  O   LIG    1        4.638  -0.520  -0.044  0.00  0.00    -0.540 OA
ENDBRANCH  18  19
ENDBRANCH   3  18
TORSDOF 7
