REMARK  Name = ZINCrD000000DdGg.0
REMARK                            x       y       z     vdW  Elec       q    Type
REMARK                         _______ _______ _______ _____ _____    ______ ____
ROOT
ATOM      1  C   LIG    1        5.044   1.527   0.469  0.00  0.00    +0.180 A 
ATOM      2  C   LIG    1        3.732   2.015   0.216  0.00  0.00    -0.150 A 
ATOM      3  C   LIG    1        3.563   3.354  -0.167  0.00  0.00    +0.090 A 
ATOM      4  S   LIG    1        1.867   3.685  -0.412  0.00  0.00    +0.190 S 
ATOM      5  C   LIG    1        1.411   2.038  -0.001  0.00  0.00    -0.160 A 
ATOM      6  C   LIG    1       -0.019   1.526   0.010  0.00  0.00    +0.120 C 
ATOM      7  C   LIG    1        0.002  -0.004   0.002  0.00  0.00    +0.030 C 
ATOM      8  C   LIG    1        0.951  -0.493   1.101  0.00  0.00    +0.030 C 
ATOM      9  C   LIG    1        2.390  -0.176   0.696  0.00  0.00    +0.100 C 
ATOM     10  N   LIG    1        4.614   4.173  -0.297  0.00  0.00    -0.460 NA
ATOM     11  C   LIG    1        5.818   3.667  -0.049  0.00  0.00    +0.380 A 
ATOM     12  C   LIG    1        2.482   1.293   0.301  0.00  0.00    -0.080 A 
ATOM     13  N   LIG    1        6.029   2.410   0.316  0.00  0.00    -0.480 NA
ENDROOT
BRANCH  11  14
ATOM     14  C   LIG    1        6.993   4.560  -0.187  0.00  0.00    -0.100 A 
ATOM     15  C   LIG    1        8.283   4.082   0.062  0.00  0.00    +0.130 A 
ATOM     16  C   LIG    1        9.346   4.956  -0.082  0.00  0.00    -0.050 A 
ATOM     17  C   LIG    1        9.101   6.263  -0.463  0.00  0.00    +0.280 A 
ATOM     18  N   LIG    1        7.873   6.686  -0.691  0.00  0.00    -0.490 NA
ATOM     19  C   LIG    1        6.830   5.890  -0.573  0.00  0.00    +0.320 A 
ENDBRANCH  11  14
BRANCH   1  20
ATOM     20  S   LIG    1        5.347  -0.140   0.955  0.00  0.00    +0.260 S 
BRANCH  20  23
ATOM     21  C   LIG    1        9.130  -0.761   1.468  0.00  0.00    +0.290 A 
ATOM     22  N   LIG    1        7.875  -1.131   1.462  0.00  0.00    -0.510 NA
ATOM     23  C   LIG    1        7.102  -0.102   1.103  0.00  0.00    +0.160 A 
ATOM     24  N   LIG    1        7.865   0.944   0.885  0.00  0.00    -0.240 NA
ATOM     25  N   LIG    1        9.188   0.535   1.117  0.00  0.00    -0.460 N 
ATOM     26  H   LIG    1        9.986   1.080   1.039  0.00  0.00    +0.450 HD
BRANCH  21  27
ATOM     27  C   LIG    1       10.308  -1.635   1.816  0.00  0.00    +0.340 C 
BRANCH  27  28
ATOM     28  O   LIG    1       11.513  -0.873   1.717  0.00  0.00    -0.580 OA
ATOM     29  H   LIG    1       12.313  -1.374   1.927  0.00  0.00    +0.400 HD
ENDBRANCH  27  28
ENDBRANCH  21  27
ENDBRANCH  20  23
ENDBRANCH   1  20
TORSDOF 5
