REMARK  Name = ZINCpk000000mRcx.0
REMARK                            x       y       z     vdW  Elec       q    Type
REMARK                         _______ _______ _______ _____ _____    ______ ____
ROOT
ATOM      1  C   LIG    1        6.834   1.766  -1.493  0.00  0.00    +0.060 C 
ENDROOT
BRANCH   1  10
ATOM      2  C   LIG    1       12.639  -0.624  -2.480  0.00  0.00    +0.090 C 
ATOM      3  C   LIG    1       11.562  -0.996  -3.466  0.00  0.00    +0.510 C 
ATOM      4  N   LIG    1       10.268  -0.761  -3.170  0.00  0.00    -0.600 N 
ATOM      5  C   LIG    1        9.226  -1.099  -4.076  0.00  0.00    +0.250 C 
ATOM      6  C   LIG    1        8.948  -0.026  -5.178  0.00  0.00    +0.010 C 
ATOM      7  C   LIG    1        9.107   1.373  -4.510  0.00  0.00    +0.250 C 
ATOM      8  N   LIG    1        8.619   1.459  -3.178  0.00  0.00    -0.600 N 
ATOM      9  C   LIG    1        9.608   1.282  -2.084  0.00  0.00    +0.270 C 
ATOM     10  C   LIG    1        7.316   1.686  -2.919  0.00  0.00    +0.520 C 
ATOM     11  O   LIG    1        6.531   1.827  -3.833  0.00  0.00    -0.530 OA
ATOM     12  C   LIG    1        9.867  -0.139  -1.882  0.00  0.00    +0.270 C 
ATOM     13  O   LIG    1       11.859  -1.505  -4.525  0.00  0.00    -0.530 OA
ENDBRANCH   1  10
BRANCH   1  14
ATOM     14  C   LIG    1        5.327   2.029  -1.478  0.00  0.00    +0.030 C 
BRANCH  14  15
ATOM     15  C   LIG    1        4.837   2.110  -0.031  0.00  0.00    +0.330 C 
BRANCH  15  16
ATOM     16  N   LIG    1        3.394   2.362  -0.017  0.00  0.00    -0.550 N 
ATOM     17  C   LIG    1        2.796   3.570  -0.005  0.00  0.00    +0.640 A 
ATOM     18  O   LIG    1        1.464   3.409   0.006  0.00  0.00    -0.240 OA
ATOM     19  C   LIG    1        1.175   2.085   0.002  0.00  0.00    +0.030 A 
ATOM     20  C   LIG    1       -0.017   1.377   0.010  0.00  0.00    +0.060 A 
ATOM     21  C   LIG    1        0.002  -0.004   0.002  0.00  0.00    +0.030 A 
ATOM     22  C   LIG    1        1.206  -0.686  -0.013  0.00  0.00    +0.040 A 
ATOM     23  C   LIG    1        2.399   0.011  -0.020  0.00  0.00    +0.030 A 
ATOM     24  O   LIG    1        3.375   4.640  -0.005  0.00  0.00    -0.480 OA
ATOM     25  C   LIG    1        2.388   1.396  -0.013  0.00  0.00    +0.070 A 
ENDBRANCH  15  16
ENDBRANCH  14  15
ENDBRANCH   1  14
TORSDOF 4
