REMARK  Name = ZINCqH0000036d7f.0
REMARK                            x       y       z     vdW  Elec       q    Type
REMARK                         _______ _______ _______ _____ _____    ______ ____
ROOT
ATOM      1  C   LIG    1       -0.154   1.298  -2.361  0.00  0.00    +0.600 C 
ATOM      2  N   LIG    1        1.068   0.806  -2.073  0.00  0.00    -0.660 N 
ATOM      3  H   LIG    1        1.271  -0.125  -2.255  0.00  0.00    +0.420 HD
ATOM      4  O   LIG    1       -0.389   2.479  -2.191  0.00  0.00    -0.480 OA
ENDROOT
BRANCH   1  10
ATOM      5  C   LIG    1       -4.768  -1.971  -4.513  0.00  0.00    +0.110 A 
ATOM      6  C   LIG    1       -3.827  -2.993  -4.423  0.00  0.00    -0.010 A 
ATOM      7  C   LIG    1       -2.554  -2.738  -3.963  0.00  0.00    +0.070 A 
ATOM      8  C   LIG    1       -2.196  -1.451  -3.582  0.00  0.00    +0.040 A 
ATOM      9  O   LIG    1       -1.054  -0.915  -3.106  0.00  0.00    -0.180 OA
ATOM     10  C   LIG    1       -1.201   0.407  -2.880  0.00  0.00    -0.040 A 
ATOM     11  C   LIG    1       -2.465   0.789  -3.198  0.00  0.00    -0.060 A 
ATOM     12  C   LIG    1       -3.047   2.175  -3.089  0.00  0.00    +0.140 C 
ATOM     13  C   LIG    1       -3.145  -0.416  -3.672  0.00  0.00    -0.100 A 
ATOM     14  C   LIG    1       -4.434  -0.685  -4.139  0.00  0.00    +0.040 A 
BRANCH   5  16
ATOM     15  C   LIG    1       -6.300  -3.593  -5.337  0.00  0.00    +0.240 C 
ATOM     16  O   LIG    1       -6.021  -2.241  -4.968  0.00  0.00    -0.310 OA
ENDBRANCH   5  16
ENDBRANCH   1  10
BRANCH   2  17
ATOM     17  C   LIG    1        2.044   1.639  -1.517  0.00  0.00    +0.130 A 
ATOM     18  C   LIG    1        2.929   1.137  -0.571  0.00  0.00    +0.020 A 
ATOM     19  C   LIG    1        3.900   1.955  -0.023  0.00  0.00    +0.030 A 
ATOM     20  C   LIG    1        3.988   3.278  -0.403  0.00  0.00    +0.030 A 
ATOM     21  C   LIG    1        3.100   3.794  -1.349  0.00  0.00    -0.120 A 
ATOM     22  C   LIG    1        2.125   2.967  -1.906  0.00  0.00    +0.090 A 
BRANCH  21  23
ATOM     23  C   LIG    1        3.193   5.211  -1.758  0.00  0.00    +0.560 C 
ATOM     24  N   LIG    1        4.352   5.883  -1.604  0.00  0.00    -0.620 N 
ATOM     25  C   LIG    1        5.440   5.295  -0.818  0.00  0.00    +0.300 C 
ATOM     26  C   LIG    1        4.523   7.200  -2.222  0.00  0.00    +0.300 C 
ATOM     27  O   LIG    1        2.225   5.771  -2.235  0.00  0.00    -0.520 OA
ENDBRANCH  21  23
ENDBRANCH   2  17
TORSDOF 4
