REMARK  Name = ZINCvU0000000A4s.0
REMARK                            x       y       z     vdW  Elec       q    Type
REMARK                         _______ _______ _______ _____ _____    ______ ____
ROOT
ATOM      1  C   LIG    1       -6.026  -1.391   4.590  0.00  0.00    +0.290 C 
ATOM      2  C   LIG    1       -6.412   0.087   4.543  0.00  0.00    +0.040 C 
ATOM      3  C   LIG    1       -6.040   0.639   3.162  0.00  0.00    +0.040 C 
ATOM      4  C   LIG    1       -4.517   0.703   3.063  0.00  0.00    +0.290 C 
ATOM      5  C   LIG    1       -3.906  -0.620   3.446  0.00  0.00    -0.090 A 
ATOM      6  C   LIG    1       -2.592  -0.859   3.066  0.00  0.00    +0.030 A 
ATOM      7  C   LIG    1       -1.974  -2.049   3.391  0.00  0.00    +0.000 A 
ATOM      8  C   LIG    1       -2.667  -3.011   4.101  0.00  0.00    +0.000 A 
ATOM      9  C   LIG    1       -3.974  -2.776   4.479  0.00  0.00    +0.020 A 
ATOM     10  C   LIG    1       -4.598  -1.579   4.151  0.00  0.00    -0.090 A 
ENDROOT
BRANCH   1  12
ATOM     11  C   LIG    1       -6.397  -3.198   6.181  0.00  0.00    +0.510 C 
ATOM     12  N   LIG    1       -6.181  -1.886   5.960  0.00  0.00    -0.730 N 
ATOM     13  H   LIG    1       -6.127  -1.271   6.707  0.00  0.00    +0.400 HD
ATOM     14  O   LIG    1       -6.464  -3.968   5.247  0.00  0.00    -0.510 OA
BRANCH  11  15
ATOM     15  C   LIG    1       -6.555  -3.708   7.590  0.00  0.00    +0.020 C 
BRANCH  15  16
ATOM     16  C   LIG    1       -6.788  -5.220   7.562  0.00  0.00    +0.220 C 
BRANCH  16  17
ATOM     17  O   LIG    1       -5.623  -5.872   7.053  0.00  0.00    -0.540 OA
ATOM     18  H   LIG    1       -4.825  -5.716   7.576  0.00  0.00    +0.370 HD
ENDBRANCH  16  17
BRANCH  16  19
ATOM     19  C   LIG    1       -7.073  -5.719   8.980  0.00  0.00    -0.010 C 
BRANCH  19  20
ATOM     20  C   LIG    1       -7.429  -7.206   8.937  0.00  0.00    +0.010 C 
BRANCH  20  21
ATOM     21  C   LIG    1       -7.713  -7.705  10.355  0.00  0.00    +0.000 C 
BRANCH  21  23
ATOM     22  C   LIG    1       -8.354  -9.691  11.729  0.00  0.00    +0.000 C 
ATOM     23  C   LIG    1       -8.069  -9.192  10.311  0.00  0.00    -0.010 C 
ENDBRANCH  21  23
ENDBRANCH  20  21
ENDBRANCH  19  20
ENDBRANCH  16  19
ENDBRANCH  15  16
ENDBRANCH  11  15
ENDBRANCH   1  12
BRANCH   4  24
ATOM     24  N   LIG    1       -4.135   1.030   1.687  0.00  0.00    -0.720 N 
ATOM     25  H   LIG    1       -4.734   0.819   0.954  0.00  0.00    +0.400 HD
ATOM     26  C   LIG    1       -2.951   1.625   1.440  0.00  0.00    +0.520 C 
ATOM     27  O   LIG    1       -2.202   1.890   2.356  0.00  0.00    -0.520 OA
BRANCH  26  28
ATOM     28  C   LIG    1       -2.559   1.962   0.024  0.00  0.00    +0.130 C 
BRANCH  28  29
ATOM     29  C   LIG    1       -1.201   2.616   0.022  0.00  0.00    -0.070 A 
ATOM     30  C   LIG    1       -1.042   3.940   0.032  0.00  0.00    -0.030 A 
ATOM     31  S   LIG    1        0.674   4.328   0.018  0.00  0.00    +0.150 S 
ATOM     32  C   LIG    1        1.091   2.620   0.006  0.00  0.00    +0.000 A 
ATOM     33  C   LIG    1       -0.024   1.887   0.012  0.00  0.00    -0.090 A 
ATOM     34 BR   LIG    1        0.002  -0.004   0.002  0.00  0.00    -0.030 Br
ENDBRANCH  28  29
ENDBRANCH  26  28
ENDBRANCH   4  24
TORSDOF 11
