REMARK  Name = ZINCpe000000UWsZ.0
REMARK                            x       y       z     vdW  Elec       q    Type
REMARK                         _______ _______ _______ _____ _____    ______ ____
ROOT
ATOM      1  C   LIG    1       -2.489  -2.928   0.022  0.00  0.00    +0.240 C 
ATOM      2  C   LIG    1       -1.987  -4.368  -0.174  0.00  0.00    +0.140 C 
ATOM      3  C   LIG    1       -0.495  -4.226  -0.374  0.00  0.00    -0.130 A 
ATOM      4  C   LIG    1        0.485  -5.176  -0.590  0.00  0.00    +0.060 A 
ATOM      5  C   LIG    1        1.804  -4.790  -0.746  0.00  0.00    +0.000 A 
ATOM      6  C   LIG    1        2.140  -3.451  -0.684  0.00  0.00    +0.050 A 
ATOM      7  C   LIG    1        1.167  -2.499  -0.468  0.00  0.00    -0.030 A 
ATOM      8  C   LIG    1       -0.167  -2.880  -0.310  0.00  0.00    +0.150 A 
ATOM      9  N   LIG    1       -1.295  -2.086  -0.085  0.00  0.00    -0.520 N 
ATOM     10  C   LIG    1       -1.284  -0.743   0.023  0.00  0.00    +0.620 C 
ATOM     11  O   LIG    1       -2.329  -0.135   0.143  0.00  0.00    -0.480 OA
ENDROOT
BRANCH  10  12
ATOM     12  C   LIG    1        0.005  -0.006  -0.003  0.00  0.00    +0.380 A 
ATOM     13  N   LIG    1        0.601   0.291   1.142  0.00  0.00    -0.560 NA
ATOM     14  C   LIG    1        1.754   0.949   1.157  0.00  0.00    +0.390 A 
ATOM     15  C   LIG    1        2.334   1.326  -0.051  0.00  0.00    -0.080 A 
ATOM     16  C   LIG    1        1.678   0.996  -1.233  0.00  0.00    +0.390 A 
ATOM     17  N   LIG    1        0.528   0.337  -1.171  0.00  0.00    -0.560 NA
BRANCH  16  18
ATOM     18  O   LIG    1        2.207   1.343  -2.432  0.00  0.00    -0.290 OA
ATOM     19  C   LIG    1        1.421   1.065  -3.592  0.00  0.00    +0.270 C 
ENDBRANCH  16  18
BRANCH  14  20
ATOM     20  O   LIG    1        2.358   1.249   2.333  0.00  0.00    -0.290 OA
ATOM     21  C   LIG    1        1.697   0.827   3.527  0.00  0.00    +0.280 C 
ENDBRANCH  14  20
ENDBRANCH  10  12
BRANCH   1  25
ATOM     22  C   LIG    1       -5.732  -2.590  -1.984  0.00  0.00    +0.290 C 
ATOM     23  N   LIG    1       -4.770  -2.937  -0.935  0.00  0.00    -0.730 N 
ATOM     24  H   LIG    1       -5.063  -3.429  -0.152  0.00  0.00    +0.400 HD
ATOM     25  C   LIG    1       -3.479  -2.572  -1.057  0.00  0.00    +0.510 C 
ATOM     26  O   LIG    1       -3.113  -1.956  -2.036  0.00  0.00    -0.510 OA
ENDBRANCH   1  25
TORSDOF 4
