REMARK  Name = ZINCvU0000000Ax8.0
REMARK                            x       y       z     vdW  Elec       q    Type
REMARK                         _______ _______ _______ _____ _____    ______ ____
ROOT
ATOM      1  C   LIG    1       -0.056  -0.025   0.043  0.00  0.00    +0.160 A 
ATOM      2  N   LIG    1       -0.099   1.285   0.147  0.00  0.00    -0.280 NA
ATOM      3  N   LIG    1        1.091   1.769   0.116  0.00  0.00    -0.260 NA
ATOM      4  C   LIG    1        1.967   0.799  -0.010  0.00  0.00    +0.240 A 
ATOM      5  N   LIG    1        1.259  -0.380  -0.061  0.00  0.00    -0.460 N 
ENDROOT
BRANCH   4   6
ATOM      6  C   LIG    1        3.436   0.946  -0.083  0.00  0.00    -0.020 A 
ATOM      7  C   LIG    1        4.043   2.135   0.323  0.00  0.00    +0.070 A 
ATOM      8  C   LIG    1        5.415   2.264   0.257  0.00  0.00    +0.020 A 
ATOM      9  C   LIG    1        6.188   1.220  -0.220  0.00  0.00    +0.030 A 
ATOM     10  C   LIG    1        5.592   0.041  -0.630  0.00  0.00    +0.020 A 
ATOM     11  C   LIG    1        4.222  -0.103  -0.564  0.00  0.00    +0.010 A 
ENDBRANCH   4   6
BRANCH   1  12
ATOM     12  S   LIG    1       -1.437  -1.119   0.036  0.00  0.00    +0.050 S 
BRANCH  12  13
ATOM     13  C   LIG    1       -2.785   0.077   0.206  0.00  0.00    +0.240 C 
BRANCH  13  16
ATOM     14  C   LIG    1       -5.845  -1.682   0.864  0.00  0.00    +0.230 A 
ATOM     15  N   LIG    1       -4.736  -1.120   1.313  0.00  0.00    -0.460 NA
ATOM     16  C   LIG    1       -4.104  -0.653   0.225  0.00  0.00    +0.180 A 
ATOM     17  N   LIG    1       -4.838  -0.938  -0.810  0.00  0.00    -0.360 NA
ATOM     18  O   LIG    1       -5.839  -1.533  -0.469  0.00  0.00    +0.100 OA
BRANCH  14  23
ATOM     19 CL   LIG    1      -10.068  -4.370   4.142  0.00  0.00    -0.050 Cl
ATOM     20  C   LIG    1       -8.842  -3.590   3.191  0.00  0.00    -0.010 A 
ATOM     21  C   LIG    1       -8.981  -3.515   1.815  0.00  0.00    +0.040 A 
ATOM     22  C   LIG    1       -8.011  -2.897   1.054  0.00  0.00    +0.090 A 
ATOM     23  C   LIG    1       -6.888  -2.346   1.674  0.00  0.00    -0.030 A 
ATOM     24  C   LIG    1       -6.751  -2.429   3.061  0.00  0.00    +0.100 A 
ATOM     25  C   LIG    1       -7.731  -3.045   3.812  0.00  0.00    +0.040 A 
ENDBRANCH  14  23
ENDBRANCH  13  16
ENDBRANCH  12  13
ENDBRANCH   1  12
BRANCH   5  26
ATOM     26  C   LIG    1        1.802  -1.733  -0.197  0.00  0.00    +0.440 C 
BRANCH  26  27
ATOM     27  C   LIG    1        1.754  -2.150  -1.645  0.00  0.00    -0.060 A 
ATOM     28  C   LIG    1        2.770  -2.068  -2.522  0.00  0.00    -0.020 A 
ATOM     29  C   LIG    1        2.288  -2.564  -3.755  0.00  0.00    -0.060 A 
ATOM     30  C   LIG    1        1.006  -2.920  -3.558  0.00  0.00    +0.200 A 
ATOM     31  O   LIG    1        0.689  -2.673  -2.276  0.00  0.00    -0.160 OA
ENDBRANCH  26  27
ENDBRANCH   5  26
TORSDOF 7
