REMARK  Name = ZINCpe000000WX6Z.0
REMARK                            x       y       z     vdW  Elec       q    Type
REMARK                         _______ _______ _______ _____ _____    ______ ____
ROOT
ATOM      1  N   LIG    1       -3.217  -2.946   2.068  0.00  0.00    -0.720 N 
ATOM      2  H   LIG    1       -3.327  -2.298   2.782  0.00  0.00    +0.410 HD
ATOM      3  C   LIG    1       -3.127  -4.259   2.358  0.00  0.00    +0.500 C 
ATOM      4  O   LIG    1       -2.990  -5.069   1.466  0.00  0.00    -0.530 OA
ENDROOT
BRANCH   1   5
ATOM      5  C   LIG    1       -3.148  -2.496   0.676  0.00  0.00    +0.280 C 
BRANCH   5   6
ATOM      6  C   LIG    1       -3.274  -0.972   0.625  0.00  0.00    +0.180 C 
BRANCH   6   7
ATOM      7  O   LIG    1       -2.145  -0.379   1.270  0.00  0.00    -0.370 OA
BRANCH   7  14
ATOM      8  C   LIG    1       -0.013   1.086   0.008  0.00  0.00    +0.010 C 
ATOM      9  C   LIG    1       -0.729   1.579   1.267  0.00  0.00    -0.010 C 
ATOM     10  C   LIG    1        0.011   1.072   2.506  0.00  0.00    +0.020 C 
ATOM     11  C   LIG    1       -0.705   1.566   3.765  0.00  0.00    +0.000 C 
ATOM     12  C   LIG    1       -2.140   1.036   3.776  0.00  0.00    +0.020 C 
ATOM     13  C   LIG    1       -2.880   1.543   2.537  0.00  0.00    -0.010 C 
ATOM     14  C   LIG    1       -2.164   1.050   1.278  0.00  0.00    +0.160 C 
ENDBRANCH   7  14
ENDBRANCH   6   7
ENDBRANCH   5   6
ENDBRANCH   1   5
BRANCH   3  15
ATOM     15  C   LIG    1       -3.199  -4.721   3.791  0.00  0.00    +0.340 C 
BRANCH  15  16
ATOM     16  N   LIG    1       -3.078  -6.180   3.839  0.00  0.00    -0.530 N 
ATOM     17  C   LIG    1       -1.854  -6.754   3.952  0.00  0.00    +0.640 A 
ATOM     18  N   LIG    1       -1.675  -8.041   4.001  0.00  0.00    -0.530 NA
ATOM     19  C   LIG    1       -2.703  -8.902   3.943  0.00  0.00    +0.330 A 
ATOM     20  C   LIG    1       -4.009  -8.402   3.826  0.00  0.00    -0.340 A 
ATOM     21  C   LIG    1       -4.878  -9.508   3.787  0.00  0.00    +0.330 A 
ATOM     22  N   LIG    1       -4.163 -10.595   3.872  0.00  0.00    -0.270 NA
ATOM     23  N   LIG    1       -2.808 -10.256   3.971  0.00  0.00    -0.350 N 
ATOM     24  C   LIG    1       -1.693 -11.201   4.084  0.00  0.00    +0.360 C 
ATOM     25  C   LIG    1       -4.189  -6.951   3.777  0.00  0.00    +0.580 A 
ATOM     26  O   LIG    1       -5.298  -6.455   3.681  0.00  0.00    -0.510 OA
ENDBRANCH  15  16
ENDBRANCH   3  15
TORSDOF 6
