REMARK  Name = ZINCrD0000074UW8.0
REMARK                            x       y       z     vdW  Elec       q    Type
REMARK                         _______ _______ _______ _____ _____    ______ ____
ROOT
ATOM      1  C   LIG    1        3.498   1.163  -0.025  0.00  0.00    +0.560 C 
ATOM      2  N   LIG    1        2.166   0.958  -0.013  0.00  0.00    -0.460 N 
ATOM      3  N   LIG    1        1.193   1.955   0.001  0.00  0.00    -0.230 NA
ATOM      4  C   LIG    1       -0.018   1.508   0.010  0.00  0.00    +0.190 C 
ATOM      5  C   LIG    1        0.002  -0.004   0.002  0.00  0.00    +0.110 C 
ATOM      6  C   LIG    1        1.503  -0.356  -0.014  0.00  0.00    +0.330 C 
ATOM      7  O   LIG    1        4.258   0.217  -0.037  0.00  0.00    -0.480 OA
ENDROOT
BRANCH   4   8
ATOM      8  C   LIG    1       -1.227   2.338   0.021  0.00  0.00    +0.020 A 
ATOM      9  C   LIG    1       -1.262   3.702   0.034  0.00  0.00    +0.030 A 
ATOM     10  C   LIG    1       -2.620   4.071   0.038  0.00  0.00    -0.060 A 
ATOM     11  C   LIG    1       -3.341   2.932   0.036  0.00  0.00    +0.210 A 
ATOM     12  O   LIG    1       -2.497   1.887   0.025  0.00  0.00    -0.160 OA
ENDBRANCH   4   8
BRANCH   6  13
ATOM     13  C   LIG    1        1.877  -1.139   1.217  0.00  0.00    -0.030 A 
ATOM     14  C   LIG    1        2.032  -2.474   1.284  0.00  0.00    -0.030 A 
ATOM     15  C   LIG    1        2.381  -2.780   2.619  0.00  0.00    -0.060 A 
ATOM     16  C   LIG    1        2.419  -1.614   3.289  0.00  0.00    +0.180 A 
ATOM     17  O   LIG    1        2.119  -0.623   2.433  0.00  0.00    -0.170 OA
ENDBRANCH   6  13
BRANCH   1  18
ATOM     18  C   LIG    1        4.044   2.567  -0.023  0.00  0.00    +0.280 C 
BRANCH  18  19
ATOM     19  O   LIG    1        5.496   2.522  -0.037  0.00  0.00    -0.330 OA
BRANCH  19  20
ATOM     20  C   LIG    1        6.145   3.705  -0.037  0.00  0.00    +0.560 C 
ATOM     21  O   LIG    1        5.515   4.745  -0.025  0.00  0.00    -0.480 OA
BRANCH  20  24
ATOM     22  C   LIG    1        7.908   6.287  -0.052  0.00  0.00    +0.140 C 
ATOM     23  C   LIG    1        8.389   4.859  -0.058  0.00  0.00    -0.060 A 
ATOM     24  C   LIG    1        7.609   3.736  -0.051  0.00  0.00    -0.080 A 
ATOM     25  O   LIG    1        8.425   2.662  -0.065  0.00  0.00    -0.150 OA
ATOM     26  C   LIG    1        9.700   3.072  -0.075  0.00  0.00    +0.240 A 
ATOM     27  C   LIG    1        9.723   4.423  -0.068  0.00  0.00    -0.070 A 
ENDBRANCH  20  24
ENDBRANCH  19  20
ENDBRANCH  18  19
ENDBRANCH   1  18
TORSDOF 6
