REMARK  Name = ZINCqH0000006jzk.0
REMARK                            x       y       z     vdW  Elec       q    Type
REMARK                         _______ _______ _______ _____ _____    ______ ____
ROOT
ATOM      1  N   LIG    1        1.153  -1.636  -1.927  0.00  0.00    -0.530 N 
ATOM      2  C   LIG    1        1.872  -1.976  -3.022  0.00  0.00    +0.550 A 
ATOM      3  C   LIG    1        2.379  -0.887  -3.868  0.00  0.00    -0.200 A 
ATOM      4  C   LIG    1        3.129  -1.137  -5.016  0.00  0.00    +0.100 A 
ATOM      5  C   LIG    1        3.582  -0.080  -5.775  0.00  0.00    -0.010 A 
ATOM      6  C   LIG    1        3.297   1.228  -5.405  0.00  0.00    +0.060 A 
ATOM      7  C   LIG    1        2.559   1.498  -4.276  0.00  0.00    +0.030 A 
ATOM      8  C   LIG    1        2.088   0.444  -3.489  0.00  0.00    +0.160 A 
ATOM      9  N   LIG    1        1.354   0.665  -2.373  0.00  0.00    -0.530 NA
ATOM     10  O   LIG    1        2.090  -3.142  -3.296  0.00  0.00    -0.460 OA
ATOM     11  C   LIG    1        0.917  -0.323  -1.632  0.00  0.00    +0.370 A 
ENDROOT
BRANCH   1  12
ATOM     12  C   LIG    1        0.625  -2.684  -1.050  0.00  0.00    +0.240 C 
ATOM     13  C   LIG    1        1.760  -3.621  -0.633  0.00  0.00    +0.070 C 
BRANCH  12  14
ATOM     14  C   LIG    1       -0.447  -3.481  -1.796  0.00  0.00    +0.170 C 
BRANCH  14  16
ATOM     15  C   LIG    1       -0.762  -4.977  -3.642  0.00  0.00    +0.200 C 
ATOM     16  O   LIG    1        0.157  -4.196  -2.876  0.00  0.00    -0.350 OA
ENDBRANCH  14  16
ENDBRANCH  12  14
ENDBRANCH   1  12
BRANCH  11  17
ATOM     17  S   LIG    1       -0.025   0.058  -0.193  0.00  0.00    -0.000 S 
BRANCH  17  18
ATOM     18  C   LIG    1       -0.026   1.866  -0.288  0.00  0.00    +0.160 C 
BRANCH  18  19
ATOM     19  C   LIG    1       -0.798   2.430   0.877  0.00  0.00    -0.040 A 
ATOM     20  C   LIG    1       -0.149   2.723   2.058  0.00  0.00    +0.040 A 
ATOM     21  C   LIG    1       -0.856   3.241   3.129  0.00  0.00    +0.050 A 
ATOM     22  C   LIG    1       -2.217   3.468   3.023  0.00  0.00    +0.030 A 
ATOM     23  C   LIG    1       -2.878   3.178   1.848  0.00  0.00    +0.070 A 
ATOM     24  C   LIG    1       -2.170   2.661   0.761  0.00  0.00    -0.010 A 
BRANCH  24  25
ATOM     25  C   LIG    1       -2.849   2.364  -0.464  0.00  0.00    +0.240 C 
ATOM     26  N   LIG    1       -3.387   2.129  -1.436  0.00  0.00    -0.400 NA
ENDBRANCH  24  25
ENDBRANCH  18  19
ENDBRANCH  17  18
ENDBRANCH  11  17
TORSDOF 7
