REMARK  Name = ZINCkj00000y7xuu.0
REMARK                            x       y       z     vdW  Elec       q    Type
REMARK                         _______ _______ _______ _____ _____    ______ ____
ROOT
ATOM      1  C   LIG    1       -1.680   2.047  -1.416  0.00  0.00    +0.080 C 
ATOM      2  C   LIG    1       -1.290   1.681   0.017  0.00  0.00    +0.390 C 
ENDROOT
BRANCH   2   3
ATOM      3  C   LIG    1       -2.354   0.799   0.618  0.00  0.00    +0.180 A 
ATOM      4  N   LIG    1       -3.249   1.152   1.509  0.00  0.00    -0.420 NA
ATOM      5  C   LIG    1       -3.980   0.048   1.744  0.00  0.00    +0.090 A 
ATOM      6  N   LIG    1       -3.497  -0.904   1.003  0.00  0.00    -0.310 NA
ATOM      7  O   LIG    1       -2.562  -0.493   0.348  0.00  0.00    +0.120 OA
BRANCH   5   8
ATOM      8  C   LIG    1       -5.143  -0.066   2.696  0.00  0.00    +0.580 C 
ATOM      9  F   LIG    1       -6.266   0.553   2.136  0.00  0.00    -0.150 F 
ATOM     10  F   LIG    1       -4.819   0.560   3.905  0.00  0.00    -0.150 F 
ATOM     11  F   LIG    1       -5.423  -1.416   2.931  0.00  0.00    -0.150 F 
ENDBRANCH   5   8
ENDBRANCH   2   3
BRANCH   2  12
ATOM     12  N   LIG    1       -0.011   0.966   0.007  0.00  0.00    -0.720 N 
ATOM     13  H   LIG    1        0.002  -0.004   0.002  0.00  0.00    +0.410 HD
ATOM     14  C   LIG    1        1.147   1.655   0.000  0.00  0.00    +0.550 C 
ATOM     15  O   LIG    1        1.130   2.872   0.007  0.00  0.00    -0.520 OA
BRANCH  14  16
ATOM     16  C   LIG    1        2.431   0.937  -0.016  0.00  0.00    +0.010 C 
ATOM     17  C   LIG    1        3.573   1.618  -0.023  0.00  0.00    +0.010 C 
BRANCH  17  18
ATOM     18  C   LIG    1        4.888   0.882  -0.040  0.00  0.00    +0.310 C 
BRANCH  18  19
ATOM     19  N   LIG    1        5.693   1.343  -1.180  0.00  0.00    -0.390 N 
ATOM     20  C   LIG    1        5.023   0.971  -2.433  0.00  0.00    +0.320 C 
ATOM     21  C   LIG    1        7.020   0.715  -1.128  0.00  0.00    +0.330 C 
ATOM     22  H   LIG    1        5.793   2.346  -1.137  0.00  0.00    +0.430 HD
ENDBRANCH  18  19
ENDBRANCH  17  18
ENDBRANCH  14  16
ENDBRANCH   2  12
TORSDOF 6
