REMARK  Name = ZINCrD000000fRb5.0
REMARK                            x       y       z     vdW  Elec       q    Type
REMARK                         _______ _______ _______ _____ _____    ______ ____
ROOT
ATOM      1  C   LIG    1        1.280   1.980   0.007  0.00  0.00    +0.300 C 
ATOM      2  C   LIG    1        1.358   2.845   1.268  0.00  0.00    +0.100 C 
ENDROOT
BRANCH   1   3
ATOM      3  N   LIG    1        2.407   1.044  -0.013  0.00  0.00    -0.330 N 
ATOM      4  C   LIG    1        2.963   0.450   1.065  0.00  0.00    +0.380 A 
ATOM      5  C   LIG    1        3.970  -0.339   0.635  0.00  0.00    -0.160 A 
ATOM      6  C   LIG    1        4.038  -0.226  -0.769  0.00  0.00    +0.210 A 
ATOM      7  N   LIG    1        3.090   0.605  -1.154  0.00  0.00    -0.240 NA
BRANCH   6   8
ATOM      8  C   LIG    1        4.998  -0.921  -1.653  0.00  0.00    +0.090 A 
ATOM      9  N   LIG    1        5.931  -1.740  -1.260  0.00  0.00    -0.390 NA
ATOM     10  C   LIG    1        6.692  -2.269  -2.191  0.00  0.00    +0.230 A 
ATOM     11  C   LIG    1        6.424  -1.894  -3.446  0.00  0.00    -0.040 A 
ATOM     12  S   LIG    1        5.069  -0.768  -3.407  0.00  0.00    +0.140 S 
ENDBRANCH   6   8
BRANCH   5  13
ATOM     13  N   LIG    1        4.848  -1.174   1.485  0.00  0.00    +0.060 N 
ATOM     14  O   LIG    1        5.728  -1.846   0.978  0.00  0.00    -0.080 OA
ATOM     15  O   LIG    1        4.691  -1.188   2.693  0.00  0.00    -0.200 OA
ENDBRANCH   5  13
ENDBRANCH   1   3
BRANCH   1  18
ATOM     16  N   LIG    1       -1.191   1.867   0.018  0.00  0.00    -0.660 N 
ATOM     17  H   LIG    1       -1.205   2.833   0.098  0.00  0.00    +0.420 HD
ATOM     18  C   LIG    1       -0.014   1.209   0.007  0.00  0.00    +0.500 C 
ATOM     19  O   LIG    1        0.002  -0.004  -0.009  0.00  0.00    -0.490 OA
BRANCH  16  24
ATOM     20  C   LIG    1       -3.709  -0.802   0.392  0.00  0.00    -0.150 A 
ATOM     21  C   LIG    1       -4.785  -0.240  -0.304  0.00  0.00    +0.060 A 
ATOM     22  C   LIG    1       -4.656   1.006  -0.881  0.00  0.00    +0.030 A 
ATOM     23  C   LIG    1       -3.469   1.706  -0.770  0.00  0.00    +0.020 A 
ATOM     24  C   LIG    1       -2.391   1.155  -0.086  0.00  0.00    +0.130 A 
ATOM     25  C   LIG    1       -2.508  -0.096   0.498  0.00  0.00    +0.090 A 
BRANCH  20  27
ATOM     26  C   LIG    1       -5.139  -2.890   0.892  0.00  0.00    +0.080 C 
ATOM     27  C   LIG    1       -3.842  -2.131   1.009  0.00  0.00    +0.390 C 
ATOM     28  O   LIG    1       -2.908  -2.616   1.611  0.00  0.00    -0.450 OA
ENDBRANCH  20  27
ENDBRANCH  16  24
ENDBRANCH   1  18
TORSDOF 6
