REMARK  Name = ZINCtV000002MsMG.0
REMARK                            x       y       z     vdW  Elec       q    Type
REMARK                         _______ _______ _______ _____ _____    ______ ____
ROOT
ATOM      1  O   LIG    1       -0.184   9.306   2.384  0.00  0.00    -0.470 OA
ATOM      2  C   LIG    1       -0.165  10.098   1.472  0.00  0.00    +0.460 C 
ENDROOT
BRANCH   2   3
ATOM      3  O   LIG    1       -0.137  11.416   1.728  0.00  0.00    -0.290 OA
BRANCH   3   4
ATOM      4  C   LIG    1       -0.235  11.794   3.031  0.00  0.00    +0.070 A 
ATOM      5  C   LIG    1       -1.431  12.292   3.518  0.00  0.00    +0.080 A 
ATOM      6  C   LIG    1       -1.526  12.672   4.852  0.00  0.00    -0.110 A 
ATOM      7  C   LIG    1       -0.415  12.562   5.700  0.00  0.00    +0.090 A 
ATOM      8  O   LIG    1       -0.769  12.998   6.930  0.00  0.00    -0.200 OA
ATOM      9  C   LIG    1       -2.059  13.399   6.962  0.00  0.00    +0.080 A 
ATOM     10  C   LIG    1       -2.854  13.912   7.980  0.00  0.00    +0.030 A 
ATOM     11  C   LIG    1       -4.168  14.245   7.730  0.00  0.00    +0.060 A 
ATOM     12  C   LIG    1       -4.712  14.071   6.466  0.00  0.00    +0.000 A 
ATOM     13  C   LIG    1       -3.939  13.563   5.444  0.00  0.00    +0.070 A 
ATOM     14  C   LIG    1        0.779  12.064   5.193  0.00  0.00    +0.050 A 
ATOM     15  C   LIG    1       -2.611  13.225   5.685  0.00  0.00    -0.120 A 
ATOM     16  C   LIG    1        0.867  11.684   3.871  0.00  0.00    +0.060 A 
ENDBRANCH   3   4
ENDBRANCH   2   3
BRANCH   2  17
ATOM     17  C   LIG    1       -0.172   9.608   0.047  0.00  0.00    +0.170 C 
BRANCH  17  18
ATOM     18  C   LIG    1       -0.205   8.101   0.035  0.00  0.00    -0.080 A 
ATOM     19  C   LIG    1       -1.418   7.438   0.027  0.00  0.00    +0.020 A 
ATOM     20  C   LIG    1       -1.454   6.058   0.016  0.00  0.00    +0.020 A 
ATOM     21  C   LIG    1       -0.264   5.333   0.013  0.00  0.00    -0.040 A 
ATOM     22  C   LIG    1        0.956   6.006   0.027  0.00  0.00    +0.020 A 
ATOM     23  C   LIG    1        0.980   7.386   0.032  0.00  0.00    +0.030 A 
BRANCH  21  24
ATOM     24  C   LIG    1       -0.296   3.850   0.002  0.00  0.00    -0.050 A 
ATOM     25  C   LIG    1        0.894   3.125  -0.001  0.00  0.00    +0.020 A 
ATOM     26  C   LIG    1        0.859   1.745  -0.012  0.00  0.00    +0.010 A 
ATOM     27  C   LIG    1       -0.355   1.082  -0.020  0.00  0.00    +0.000 A 
ATOM     28  C   LIG    1       -1.539   1.797  -0.022  0.00  0.00    +0.010 A 
ATOM     29  C   LIG    1       -1.516   3.176  -0.006  0.00  0.00    +0.020 A 
ENDBRANCH  21  24
ENDBRANCH  17  18
ENDBRANCH   2  17
TORSDOF 5
