REMARK  Name = ZINCrD00000lblED.0
REMARK                            x       y       z     vdW  Elec       q    Type
REMARK                         _______ _______ _______ _____ _____    ______ ____
ROOT
ATOM      1  C   LIG    1        3.593   1.813  -0.127  0.00  0.00    +0.310 A 
ATOM      2  N   LIG    1        3.701   3.104  -0.132  0.00  0.00    -0.340 NA
ATOM      3  N   LIG    1        4.982   3.595  -0.254  0.00  0.00    -0.260 NA
ATOM      4  C   LIG    1        5.917   2.702  -0.349  0.00  0.00    +0.010 A 
ATOM      5  S   LIG    1        5.195   1.098  -0.278  0.00  0.00    +0.100 S 
ENDROOT
BRANCH   1   6
ATOM      6  N   LIG    1        2.402   1.104  -0.015  0.00  0.00    -0.620 N 
ATOM      7  H   LIG    1        2.419   0.138   0.066  0.00  0.00    +0.430 HD
BRANCH   6  11
ATOM      8  C   LIG    1       -1.239   3.133  -0.024  0.00  0.00    +0.110 A 
ATOM      9  C   LIG    1       -0.153   3.656  -0.708  0.00  0.00    -0.050 A 
ATOM     10  C   LIG    1        1.053   2.982  -0.711  0.00  0.00    +0.060 A 
ATOM     11  C   LIG    1        1.180   1.785  -0.017  0.00  0.00    +0.120 A 
ATOM     12  C   LIG    1        0.093   1.265   0.673  0.00  0.00    +0.040 A 
ATOM     13  C   LIG    1       -1.113   1.937   0.669  0.00  0.00    +0.010 A 
BRANCH   8  15
ATOM     14  C   LIG    1       -2.486   5.019  -0.761  0.00  0.00    +0.250 C 
ATOM     15  O   LIG    1       -2.428   3.794  -0.027  0.00  0.00    -0.320 OA
ENDBRANCH   8  15
ENDBRANCH   6  11
ENDBRANCH   1   6
BRANCH   4  16
ATOM     16  S   LIG    1        7.639   3.040  -0.514  0.00  0.00    +0.060 S 
BRANCH  16  17
ATOM     17  C   LIG    1        7.701   4.853  -0.512  0.00  0.00    +0.200 C 
BRANCH  17  18
ATOM     18  C   LIG    1        9.131   5.306  -0.649  0.00  0.00    +0.210 A 
ATOM     19  C   LIG    1        9.593   5.810  -1.846  0.00  0.00    -0.070 A 
ATOM     20  C   LIG    1       10.921   6.228  -1.946  0.00  0.00    +0.540 A 
ATOM     21  N   LIG    1       11.745   6.124  -0.864  0.00  0.00    -0.370 N 
ATOM     22  N   LIG    1       13.086   6.482  -0.784  0.00  0.00    -0.240 NA
ATOM     23  C   LIG    1       13.722   6.316   0.322  0.00  0.00    +0.120 A 
ATOM     24  S   LIG    1       12.549   5.623   1.456  0.00  0.00    +0.150 S 
ATOM     25  C   LIG    1       15.167   6.643   0.598  0.00  0.00    +0.260 C 
ATOM     26  C   LIG    1       11.221   5.612   0.282  0.00  0.00    +0.310 A 
ATOM     27  O   LIG    1       11.344   6.681  -2.998  0.00  0.00    -0.490 OA
ATOM     28  N   LIG    1        9.965   5.221   0.381  0.00  0.00    -0.480 NA
ENDBRANCH  17  18
ENDBRANCH  16  17
ENDBRANCH   4  16
TORSDOF 6
