REMARK  Name = ZINCvU00000006QC.0
REMARK                            x       y       z     vdW  Elec       q    Type
REMARK                         _______ _______ _______ _____ _____    ______ ____
ROOT
ATOM      1  C   LIG    1        4.410   4.625  -2.679  0.00  0.00    -0.030 A 
ATOM      2  C   LIG    1        5.040   5.210  -3.696  0.00  0.00    -0.020 A 
ATOM      3  S   LIG    1        4.257   4.850  -5.223  0.00  0.00    +0.190 S 
ATOM      4  C   LIG    1        3.027   3.866  -4.443  0.00  0.00    +0.120 A 
ATOM      5  N   LIG    1        1.989   3.189  -4.951  0.00  0.00    -0.530 NA
ATOM      6  C   LIG    1        1.179   2.507  -4.175  0.00  0.00    +0.560 A 
ATOM      7  N   LIG    1        1.346   2.447  -2.866  0.00  0.00    -0.580 NA
ATOM      8  C   LIG    1        2.341   3.089  -2.272  0.00  0.00    +0.500 A 
ATOM      9  C   LIG    1        3.244   3.840  -3.065  0.00  0.00    -0.220 A 
ENDROOT
BRANCH   1  14
ATOM     10 BR   LIG    1        6.265   5.189   3.149  0.00  0.00    -0.040 Br
ATOM     11  C   LIG    1        5.694   5.015   1.355  0.00  0.00    -0.090 A 
ATOM     12  C   LIG    1        6.556   4.496   0.404  0.00  0.00    +0.060 A 
ATOM     13  C   LIG    1        6.144   4.368  -0.907  0.00  0.00    +0.050 A 
ATOM     14  C   LIG    1        4.857   4.761  -1.273  0.00  0.00    -0.020 A 
ATOM     15  C   LIG    1        3.995   5.287  -0.312  0.00  0.00    +0.030 A 
ATOM     16  C   LIG    1        4.415   5.406   0.997  0.00  0.00    +0.050 A 
ENDBRANCH   1  14
BRANCH   8  17
ATOM     17  N   LIG    1        2.500   3.023  -0.899  0.00  0.00    -0.700 N 
ATOM     18  H   LIG    1        3.281   3.418  -0.481  0.00  0.00    +0.410 HD
BRANCH  17  19
ATOM     19  C   LIG    1        1.488   2.355  -0.076  0.00  0.00    +0.290 C 
BRANCH  19  20
ATOM     20  C   LIG    1        1.793   0.881  -0.004  0.00  0.00    -0.070 A 
ATOM     21  C   LIG    1        0.765  -0.041  -0.066  0.00  0.00    +0.040 A 
ATOM     22  C   LIG    1        1.044  -1.393  -0.000  0.00  0.00    +0.000 A 
ATOM     23  C   LIG    1        2.352  -1.823   0.129  0.00  0.00    +0.000 A 
ATOM     24  C   LIG    1        3.380  -0.901   0.191  0.00  0.00    +0.000 A 
ATOM     25  C   LIG    1        3.100   0.451   0.124  0.00  0.00    +0.000 A 
ENDBRANCH  19  20
BRANCH  19  26
ATOM     26  C   LIG    1        1.504   2.949   1.333  0.00  0.00    +0.180 C 
BRANCH  26  27
ATOM     27  N   LIG    1        0.430   2.343   2.132  0.00  0.00    -0.520 NA
ATOM     28  C   LIG    1       -0.887   2.840   1.708  0.00  0.00    +0.140 C 
ATOM     29  C   LIG    1       -1.977   2.140   2.524  0.00  0.00    +0.220 C 
ATOM     30  O   LIG    1       -1.738   2.360   3.917  0.00  0.00    -0.380 OA
ATOM     31  C   LIG    1       -0.465   1.887   4.364  0.00  0.00    +0.220 C 
ATOM     32  C   LIG    1        0.641   2.584   3.567  0.00  0.00    +0.150 C 
ENDBRANCH  26  27
ENDBRANCH  19  26
ENDBRANCH  17  19
ENDBRANCH   8  17
TORSDOF 6
