REMARK  Name = ZINCah0000001L3F.0
REMARK                            x       y       z     vdW  Elec       q    Type
REMARK                         _______ _______ _______ _____ _____    ______ ____
ROOT
ATOM      1  C   LIG    1       -2.688   1.700   2.677  0.00  0.00    +0.050 C 
ENDROOT
BRANCH   1   5
ATOM      2  C   LIG    1       -0.013   1.086   0.008  0.00  0.00    +0.280 C 
ATOM      3  N   LIG    1       -0.698   1.558   1.213  0.00  0.00    -0.740 N 
ATOM      4  H   LIG    1       -0.229   2.119   1.850  0.00  0.00    +0.400 HD
ATOM      5  C   LIG    1       -1.982   1.214   1.437  0.00  0.00    +0.510 C 
ATOM      6  O   LIG    1       -2.570   0.513   0.640  0.00  0.00    -0.540 OA
ENDBRANCH   1   5
BRANCH   1   7
ATOM      7  C   LIG    1       -4.123   1.170   2.688  0.00  0.00    +0.060 C 
BRANCH   7   8
ATOM      8  C   LIG    1       -4.839   1.664   3.947  0.00  0.00    +0.290 C 
ATOM      9  F   LIG    1       -4.858   3.063   3.954  0.00  0.00    -0.200 F 
ATOM     10  F   LIG    1       -4.162   1.200   5.080  0.00  0.00    -0.200 F 
ATOM     11  C   LIG    1       -6.274   1.134   3.957  0.00  0.00    +0.060 C 
ENDBRANCH   7   8
ENDBRANCH   1   7
TORSDOF 3
