REMARK  Name = ZINCrg00000J2lhZ.0
REMARK                            x       y       z     vdW  Elec       q    Type
REMARK                         _______ _______ _______ _____ _____    ______ ____
ROOT
ATOM      1  O   LIG    1       -2.840  -1.675  -1.645  0.00  0.00    -0.340 OA
ENDROOT
BRANCH   1   2
ATOM      2  C   LIG    1       -1.703  -1.002  -1.407  0.00  0.00    +0.460 C 
ATOM      3  O   LIG    1       -1.037  -0.596  -2.330  0.00  0.00    -0.490 OA
BRANCH   2   4
ATOM      4  C   LIG    1       -1.257  -0.753   0.011  0.00  0.00    +0.440 C 
BRANCH   4   5
ATOM      5  N   LIG    1        0.002  -0.004   0.002  0.00  0.00    -0.450 N 
ATOM      6  N   LIG    1        1.220  -0.688  -0.013  0.00  0.00    +0.090 NA
ATOM      7  N   LIG    1        2.357  -0.091  -0.021  0.00  0.00    -0.190 NA
ATOM      8  C   LIG    1        2.457   1.262  -0.015  0.00  0.00    +0.060 A 
ATOM      9  C   LIG    1        3.700   1.898  -0.024  0.00  0.00    +0.080 A 
ATOM     10  C   LIG    1        3.764   3.274  -0.017  0.00  0.00    +0.070 A 
ATOM     11  C   LIG    1        2.605   4.039  -0.002  0.00  0.00    +0.040 A 
ATOM     12  C   LIG    1        1.367   3.434   0.007  0.00  0.00    +0.100 A 
ATOM     13  C   LIG    1        1.281   2.043   0.001  0.00  0.00    -0.150 A 
ATOM     14  C   LIG    1       -0.016   1.350   0.009  0.00  0.00    +0.540 A 
ATOM     15  O   LIG    1       -1.065   1.968   0.018  0.00  0.00    -0.500 OA
ENDBRANCH   4   5
ENDBRANCH   2   4
ENDBRANCH   1   2
BRANCH   1  16
ATOM     16  C   LIG    1       -3.207  -1.878  -3.035  0.00  0.00    +0.340 C 
BRANCH  16  19
ATOM     17  C   LIG    1       -5.552  -4.704  -3.209  0.00  0.00    +0.480 A 
ATOM     18  N   LIG    1       -4.450  -3.969  -3.151  0.00  0.00    -0.580 NA
ATOM     19  C   LIG    1       -4.502  -2.647  -3.105  0.00  0.00    +0.370 A 
ATOM     20  N   LIG    1       -5.628  -1.975  -3.123  0.00  0.00    -0.530 NA
ATOM     21  C   LIG    1       -6.803  -2.620  -3.186  0.00  0.00    +0.190 A 
ATOM     22  C   LIG    1       -8.025  -1.935  -3.207  0.00  0.00    +0.040 A 
ATOM     23  C   LIG    1       -9.191  -2.640  -3.271  0.00  0.00    +0.070 A 
ATOM     24  C   LIG    1       -9.186  -4.031  -3.316  0.00  0.00    +0.000 A 
ATOM     25  C   LIG    1       -8.014  -4.729  -3.297  0.00  0.00    +0.060 A 
ATOM     26  C   LIG    1       -6.801  -4.035  -3.231  0.00  0.00    -0.190 A 
BRANCH  17  27
ATOM     27  N   LIG    1       -5.484  -6.080  -3.251  0.00  0.00    -0.820 N 
ATOM     28  H   LIG    1       -4.622  -6.523  -3.235  0.00  0.00    +0.410 HD
ATOM     29  H   LIG    1       -6.299  -6.604  -3.296  0.00  0.00    +0.410 HD
ENDBRANCH  17  27
ENDBRANCH  16  19
ENDBRANCH   1  16
TORSDOF 6
