REMARK  Name = ZINCqH0000003Tx5.0
REMARK                            x       y       z     vdW  Elec       q    Type
REMARK                         _______ _______ _______ _____ _____    ______ ____
ROOT
ATOM      1  C   LIG    1        2.419   3.937   0.002  0.00  0.00    +0.530 C 
ATOM      2  N   LIG    1        2.396   5.285   0.007  0.00  0.00    -0.650 N 
ATOM      3  H   LIG    1        1.550   5.756  -0.057  0.00  0.00    +0.420 HD
ATOM      4  O   LIG    1        3.482   3.348  -0.011  0.00  0.00    -0.430 OA
ENDROOT
BRANCH   1  10
ATOM      5  C   LIG    1        1.173   1.780   0.006  0.00  0.00    -0.610 A 
ATOM      6  C   LIG    1       -0.013   1.076   0.016  0.00  0.00    +0.130 A 
ATOM      7  C   LIG    1       -1.222   1.750   0.025  0.00  0.00    +0.030 A 
ATOM      8  C   LIG    1       -1.249   3.133   0.036  0.00  0.00    +0.070 A 
ATOM      9  C   LIG    1       -0.070   3.850   0.027  0.00  0.00    +0.020 A 
ATOM     10  C   LIG    1        1.152   3.176   0.011  0.00  0.00    -0.050 A 
BRANCH   5  11
ATOM     11  S   LIG    1        2.711   0.920  -0.013  0.00  0.00    +2.500 S 
ATOM     12  O   LIG    1        2.344  -0.453   0.012  0.00  0.00    -0.950 OA
ATOM     13  O   LIG    1        3.450   1.500   1.053  0.00  0.00    -0.900 OA
BRANCH  11  15
ATOM     14  C   LIG    1        4.808   0.658  -1.748  0.00  0.00    +0.090 C 
ATOM     15  C   LIG    1        3.452   1.352  -1.611  0.00  0.00    -0.330 C 
ENDBRANCH  11  15
ENDBRANCH   5  11
ENDBRANCH   1  10
BRANCH   2  16
ATOM     16  C   LIG    1        3.586   6.002   0.105  0.00  0.00    +0.360 A 
ATOM     17  C   LIG    1        3.545   7.388   0.217  0.00  0.00    -0.060 A 
ATOM     18  C   LIG    1        4.730   8.091   0.319  0.00  0.00    +0.100 A 
ATOM     19  C   LIG    1        5.932   7.376   0.294  0.00  0.00    -0.120 A 
ATOM     20  C   LIG    1        5.893   5.989   0.175  0.00  0.00    +0.310 A 
ATOM     21  N   LIG    1        4.741   5.355   0.085  0.00  0.00    -0.470 NA
BRANCH  19  22
ATOM     22  C   LIG    1        7.231   8.086   0.394  0.00  0.00    -0.040 A 
ATOM     23  C   LIG    1        7.263   9.475   0.508  0.00  0.00    +0.010 A 
ATOM     24  C   LIG    1        8.474  10.129   0.605  0.00  0.00    +0.000 A 
ATOM     25  C   LIG    1        9.655   9.410   0.580  0.00  0.00    +0.000 A 
ATOM     26  C   LIG    1        9.630   8.032   0.462  0.00  0.00    +0.020 A 
ATOM     27  C   LIG    1        8.425   7.367   0.369  0.00  0.00    +0.020 A 
ENDBRANCH  19  22
ENDBRANCH   2  16
TORSDOF 5
