REMARK  Name = ZINCrH00000No4Ev.0
REMARK                            x       y       z     vdW  Elec       q    Type
REMARK                         _______ _______ _______ _____ _____    ______ ____
ROOT
ATOM      1  C   LIG    1       -1.027   2.379  -0.065  0.00  0.00    +0.090 A 
ATOM      2  N   LIG    1       -0.558   1.142   0.018  0.00  0.00    -0.430 NA
ATOM      3  C   LIG    1        0.731   0.898   0.099  0.00  0.00    +0.260 A 
ATOM      4  C   LIG    1        1.649   1.935   0.093  0.00  0.00    +0.020 A 
ATOM      5  C   LIG    1        1.198   3.247   0.001  0.00  0.00    -0.070 A 
ATOM      6  C   LIG    1        2.209   4.361   0.007  0.00  0.00    +0.340 C 
ATOM      7  N   LIG    1        1.552   5.622  -0.357  0.00  0.00    -0.630 N 
ATOM      8  C   LIG    1        2.116   6.480  -1.230  0.00  0.00    +0.710 C 
ATOM      9  N   LIG    1        3.349   6.235  -1.714  0.00  0.00    -0.670 N 
ATOM     10  H   LIG    1        3.804   5.409  -1.487  0.00  0.00    +0.410 HD
ATOM     11  O   LIG    1        1.512   7.475  -1.580  0.00  0.00    -0.560 OA
ATOM     12  C   LIG    1        0.251   5.912   0.269  0.00  0.00    +0.320 C 
ATOM     13  C   LIG    1       -0.747   4.855  -0.201  0.00  0.00    +0.110 C 
ATOM     14  C   LIG    1       -0.158   3.476  -0.083  0.00  0.00    -0.050 A 
ENDROOT
BRANCH   9  15
ATOM     15  C   LIG    1        3.970   7.165  -2.536  0.00  0.00    +0.160 A 
ATOM     16  C   LIG    1        3.547   8.499  -2.519  0.00  0.00    +0.060 A 
ATOM     17  C   LIG    1        4.148   9.419  -3.320  0.00  0.00    -0.040 A 
ATOM     18  C   LIG    1        5.208   9.022  -4.176  0.00  0.00    +0.080 A 
ATOM     19  C   LIG    1        5.629   7.667  -4.185  0.00  0.00    +0.080 A 
ATOM     20  C   LIG    1        5.018   6.764  -3.372  0.00  0.00    -0.100 A 
ATOM     21  C   LIG    1        5.467   5.326  -3.375  0.00  0.00    +0.110 C 
BRANCH  18  22
ATOM     22  N   LIG    1        5.800   9.910  -4.960  0.00  0.00    -0.310 NA
ATOM     23  N   LIG    1        5.464  10.982  -4.949  0.00  0.00    +0.270 NA
ATOM     24  N   LIG    1        5.128  12.055  -4.938  0.00  0.00    -0.140 NA
ENDBRANCH  18  22
ENDBRANCH   9  15
BRANCH   1  25
ATOM     25  C   LIG    1       -2.489   2.603  -0.146  0.00  0.00    +0.520 C 
ATOM     26  O   LIG    1       -2.928   3.735  -0.184  0.00  0.00    -0.490 OA
BRANCH  25  28
ATOM     27  C   LIG    1       -4.750   1.847  -0.258  0.00  0.00    +0.280 C 
ATOM     28  O   LIG    1       -3.330   1.552  -0.178  0.00  0.00    -0.330 OA
ENDBRANCH  25  28
ENDBRANCH   1  25
TORSDOF 4
