REMARK  Name = ZINCpe000000OcaS.0
REMARK                            x       y       z     vdW  Elec       q    Type
REMARK                         _______ _______ _______ _____ _____    ______ ____
ROOT
ATOM      1  N   LIG    1       -3.458  -3.021   0.107  0.00  0.00    -0.580 N 
ATOM      2  C   LIG    1       -4.277  -1.957  -0.010  0.00  0.00    +0.620 C 
ATOM      3  O   LIG    1       -3.812  -0.836  -0.081  0.00  0.00    -0.510 OA
ENDROOT
BRANCH   2   4
ATOM      4  C   LIG    1       -5.740  -2.153  -0.051  0.00  0.00    +0.000 A 
ATOM      5  N   LIG    1       -6.375  -3.308  -0.093  0.00  0.00    -0.270 NA
ATOM      6  N   LIG    1       -7.644  -3.114  -0.120  0.00  0.00    -0.230 N 
ATOM      7  C   LIG    1       -7.913  -1.782  -0.103  0.00  0.00    +0.190 A 
ATOM      8  C   LIG    1       -6.725  -1.137  -0.052  0.00  0.00    +0.010 A 
BRANCH   6   9
ATOM      9  C   LIG    1       -8.611  -4.128  -0.167  0.00  0.00    +0.160 A 
ATOM     10  C   LIG    1       -9.960  -3.801  -0.199  0.00  0.00    +0.000 A 
ATOM     11  C   LIG    1      -10.912  -4.802  -0.240  0.00  0.00    +0.090 A 
ATOM     12  C   LIG    1      -10.523  -6.128  -0.255  0.00  0.00    +0.000 A 
ATOM     13  C   LIG    1       -9.177  -6.458  -0.228  0.00  0.00    +0.130 A 
ATOM     14  F   LIG    1       -8.800  -7.755  -0.243  0.00  0.00    -0.130 F 
ATOM     15  C   LIG    1       -8.221  -5.460  -0.187  0.00  0.00    +0.000 A 
ENDBRANCH   6   9
ENDBRANCH   2   4
BRANCH   1  16
ATOM     16  C   LIG    1       -2.013  -2.821   0.243  0.00  0.00    +0.390 C 
BRANCH  16  17
ATOM     17  C   LIG    1       -1.641  -2.826   1.704  0.00  0.00    +0.440 C 
ATOM     18  O   LIG    1       -2.495  -2.981   2.544  0.00  0.00    -0.500 OA
BRANCH  17  20
ATOM     19  C   LIG    1       -0.076  -2.675   3.494  0.00  0.00    +0.260 C 
ATOM     20  O   LIG    1       -0.361  -2.659   2.071  0.00  0.00    -0.360 OA
ENDBRANCH  17  20
ENDBRANCH  16  17
ENDBRANCH   1  16
BRANCH   1  21
ATOM     21  C   LIG    1       -4.012  -4.377   0.096  0.00  0.00    +0.380 C 
BRANCH  21  22
ATOM     22  C   LIG    1       -4.208  -4.829  -1.328  0.00  0.00    +0.450 C 
ATOM     23  O   LIG    1       -3.915  -4.094  -2.241  0.00  0.00    -0.500 OA
BRANCH  22  24
ATOM     24  O   LIG    1       -4.708  -6.048  -1.582  0.00  0.00    -0.360 OA
ATOM     25  C   LIG    1       -4.870  -6.417  -2.978  0.00  0.00    +0.260 C 
ENDBRANCH  22  24
ENDBRANCH  21  22
ENDBRANCH   1  21
TORSDOF 8
