REMARK  Name = ZINCrD0000071IZq.0
REMARK                            x       y       z     vdW  Elec       q    Type
REMARK                         _______ _______ _______ _____ _____    ______ ____
ROOT
ATOM      1  N   LIG    1       -0.011   0.966   0.007  0.00  0.00    -0.640 N 
ATOM      2  H   LIG    1        0.002  -0.004   0.002  0.00  0.00    +0.420 HD
ATOM      3  C   LIG    1       -1.187   1.624   0.017  0.00  0.00    +0.520 C 
ATOM      4  O   LIG    1       -1.204   2.836   0.023  0.00  0.00    -0.460 OA
ENDROOT
BRANCH   1  13
ATOM      5  N   LIG    1        2.424   1.115  -0.015  0.00  0.00    -0.500 N 
ATOM      6  C   LIG    1        3.340   2.153  -0.018  0.00  0.00    +0.050 A 
ATOM      7  C   LIG    1        4.725   2.214  -0.032  0.00  0.00    +0.010 A 
ATOM      8  C   LIG    1        5.359   3.439  -0.032  0.00  0.00    +0.030 A 
ATOM      9  C   LIG    1        4.619   4.613  -0.019  0.00  0.00    +0.010 A 
ATOM     10  C   LIG    1        3.243   4.572  -0.004  0.00  0.00    +0.060 A 
ATOM     11  C   LIG    1        2.586   3.339  -0.005  0.00  0.00    +0.060 A 
ATOM     12  N   LIG    1        1.276   2.979   0.000  0.00  0.00    -0.470 NA
ATOM     13  C   LIG    1        1.179   1.674  -0.000  0.00  0.00    +0.500 A 
BRANCH   5  14
ATOM     14  C   LIG    1        2.733  -0.317  -0.025  0.00  0.00    +0.300 C 
BRANCH  14  16
ATOM     15  C   LIG    1        3.151  -2.303  -1.482  0.00  0.00    +0.030 C 
ATOM     16  C   LIG    1        2.828  -0.807  -1.471  0.00  0.00    +0.000 C 
ENDBRANCH  14  16
ENDBRANCH   5  14
ENDBRANCH   1  13
BRANCH   3  17
ATOM     17  C   LIG    1       -2.482   0.853   0.018  0.00  0.00    +0.060 C 
BRANCH  17  18
ATOM     18  C   LIG    1       -3.658   1.831   0.029  0.00  0.00    +0.370 C 
BRANCH  18  19
ATOM     19  N   LIG    1       -4.917   1.081   0.031  0.00  0.00    -0.550 N 
ATOM     20  C   LIG    1       -5.597   0.668   1.119  0.00  0.00    +0.640 A 
ATOM     21  O   LIG    1       -6.703   0.013   0.733  0.00  0.00    -0.230 OA
ATOM     22  C   LIG    1       -6.758  -0.009  -0.621  0.00  0.00    +0.030 A 
ATOM     23  C   LIG    1       -7.666  -0.542  -1.522  0.00  0.00    +0.060 A 
ATOM     24  C   LIG    1       -7.452  -0.403  -2.880  0.00  0.00    +0.030 A 
ATOM     25  C   LIG    1       -6.334   0.266  -3.346  0.00  0.00    +0.040 A 
ATOM     26  C   LIG    1       -5.423   0.800  -2.456  0.00  0.00    +0.040 A 
ATOM     27  O   LIG    1       -5.261   0.860   2.272  0.00  0.00    -0.480 OA
ATOM     28  C   LIG    1       -5.634   0.670  -1.092  0.00  0.00    +0.070 A 
ENDBRANCH  18  19
ENDBRANCH  17  18
ENDBRANCH   3  17
TORSDOF 6
