REMARK  Name = ZINCnE000001FJSk.0
REMARK                            x       y       z     vdW  Elec       q    Type
REMARK                         _______ _______ _______ _____ _____    ______ ____
ROOT
ATOM      1  S   LIG    1       -0.075   5.557   0.081  0.00  0.00    +2.690 S 
ATOM      2  O   LIG    1        1.277   5.992   0.055  0.00  0.00    -0.960 OA
ATOM      3  O   LIG    1       -0.980   5.891   1.125  0.00  0.00    -0.940 OA
ENDROOT
BRANCH   1   4
ATOM      4  C   LIG    1       -0.034   3.797   0.004  0.00  0.00    -0.690 A 
ATOM      5  C   LIG    1       -0.764   3.051   0.904  0.00  0.00    +0.170 A 
ATOM      6  C   LIG    1       -0.730   1.656   0.841  0.00  0.00    -0.150 A 
ATOM      7  C   LIG    1        0.046   1.026  -0.135  0.00  0.00    +0.120 A 
ATOM      8  C   LIG    1        0.776   1.785  -1.026  0.00  0.00    -0.030 A 
ATOM      9  C   LIG    1        0.732   3.166  -0.962  0.00  0.00    +0.000 A 
ATOM     10  C   LIG    1        1.528   3.988  -1.943  0.00  0.00    +0.100 C 
BRANCH   6  11
ATOM     11  C   LIG    1       -1.509   0.851   1.802  0.00  0.00    +0.520 C 
ATOM     12  O   LIG    1       -2.187   1.405   2.656  0.00  0.00    -0.680 OA
ATOM     13  O   LIG    1       -1.476  -0.370   1.744  0.00  0.00    -0.680 OA
ENDBRANCH   6  11
ENDBRANCH   1   4
BRANCH   1  14
ATOM     14  N   LIG    1       -0.766   6.093  -1.326  0.00  0.00    -1.060 N 
ATOM     15  H   LIG    1       -0.236   6.593  -1.966  0.00  0.00    +0.420 HD
BRANCH  14  19
ATOM     16  C   LIG    1       -4.775   5.294  -2.114  0.00  0.00    -0.100 A 
ATOM     17  C   LIG    1       -4.272   6.567  -2.316  0.00  0.00    +0.020 A 
ATOM     18  C   LIG    1       -2.943   6.835  -2.056  0.00  0.00    +0.000 A 
ATOM     19  C   LIG    1       -2.111   5.825  -1.590  0.00  0.00    +0.160 A 
ATOM     20  C   LIG    1       -2.618   4.547  -1.393  0.00  0.00    -0.010 A 
ATOM     21  C   LIG    1       -3.949   4.287  -1.651  0.00  0.00    +0.050 A 
BRANCH  16  22
ATOM     22  C   LIG    1       -6.226   5.005  -2.399  0.00  0.00    +0.060 C 
BRANCH  22  24
ATOM     23  C   LIG    1       -7.855   4.266  -4.144  0.00  0.00    +0.010 C 
ATOM     24  C   LIG    1       -6.381   4.559  -3.854  0.00  0.00    +0.000 C 
ENDBRANCH  22  24
ENDBRANCH  16  22
ENDBRANCH  14  19
ENDBRANCH   1  14
TORSDOF 6
