REMARK  Name = ZINCrD000000CWIG.1
REMARK                            x       y       z     vdW  Elec       q    Type
REMARK                         _______ _______ _______ _____ _____    ______ ____
ROOT
ATOM      1  N   LIG    1        4.947   1.690   0.982  0.00  0.00    -1.050 N 
ATOM      2  H   LIG    1        5.198   2.321   1.675  0.00  0.00    +0.430 HD
ENDROOT
BRANCH   1   7
ATOM      3  C   LIG    1        6.692  -1.446   1.791  0.00  0.00    +0.210 A 
ATOM      4  C   LIG    1        5.708  -2.377   1.484  0.00  0.00    -0.040 A 
ATOM      5  C   LIG    1        4.479  -1.956   1.013  0.00  0.00    +0.080 A 
ATOM      6  C   LIG    1        4.223  -0.609   0.850  0.00  0.00    -0.060 A 
ATOM      7  C   LIG    1        5.205   0.328   1.151  0.00  0.00    +0.190 A 
ATOM      8  C   LIG    1        6.440  -0.092   1.624  0.00  0.00    +0.000 A 
BRANCH   3  14
ATOM      9  O   LIG    1        8.915   0.136   2.501  0.00  0.00    -0.500 OA
ATOM     10  C   LIG    1        8.963  -1.075   2.591  0.00  0.00    +0.650 C 
ATOM     11  O   LIG    1       10.044  -1.733   3.026  0.00  0.00    -0.320 OA
ATOM     12  C   LIG    1        9.779  -3.166   3.010  0.00  0.00    +0.260 C 
ATOM     13  C   LIG    1        8.333  -3.272   2.490  0.00  0.00    +0.260 C 
ATOM     14  N   LIG    1        7.936  -1.873   2.268  0.00  0.00    -0.570 N 
ENDBRANCH   3  14
ENDBRANCH   1   7
BRANCH   1  15
ATOM     15  S   LIG    1        4.213   2.228  -0.402  0.00  0.00    +2.700 S 
ATOM     16  O   LIG    1        4.100   3.639  -0.273  0.00  0.00    -0.930 OA
ATOM     17  O   LIG    1        4.884   1.598  -1.484  0.00  0.00    -0.930 OA
BRANCH  15  18
ATOM     18  C   LIG    1        2.568   1.595  -0.400  0.00  0.00    -0.690 A 
ATOM     19  C   LIG    1        2.171   0.701  -1.374  0.00  0.00    +0.170 A 
ATOM     20  C   LIG    1        0.881   0.203  -1.373  0.00  0.00    +0.000 A 
ATOM     21  C   LIG    1       -0.015   0.600  -0.397  0.00  0.00    +0.130 A 
ATOM     22  C   LIG    1        0.378   1.495   0.579  0.00  0.00    -0.070 A 
ATOM     23  C   LIG    1        1.671   1.996   0.580  0.00  0.00    +0.210 A 
BRANCH  23  24
ATOM     24  O   LIG    1        2.060   2.876   1.540  0.00  0.00    -0.310 OA
BRANCH  24  25
ATOM     25  C   LIG    1        1.054   3.334   2.446  0.00  0.00    +0.610 C 
ATOM     26  F   LIG    1       -0.007   3.890   1.724  0.00  0.00    -0.160 F 
ATOM     27  F   LIG    1        1.598   4.302   3.296  0.00  0.00    -0.120 F 
ATOM     28  F   LIG    1        0.587   2.256   3.206  0.00  0.00    -0.160 F 
ENDBRANCH  24  25
ENDBRANCH  23  24
ENDBRANCH  15  18
ENDBRANCH   1  15
TORSDOF 6
