REMARK  Name = ZINCpe000027pGVs.0
REMARK                            x       y       z     vdW  Elec       q    Type
REMARK                         _______ _______ _______ _____ _____    ______ ____
ROOT
ATOM      1  C   LIG    1       -1.658   4.295   0.038  0.00  0.00    +0.080 C 
ATOM      2  C   LIG    1       -1.038   5.480  -0.733  0.00  0.00    +0.280 C 
ATOM      3  N   LIG    1       -1.444   6.679   0.039  0.00  0.00    -0.620 N 
ATOM      4  C   LIG    1       -1.328   6.263   1.456  0.00  0.00    +0.270 C 
ATOM      5  C   LIG    1       -1.834   7.877  -0.441  0.00  0.00    +0.570 C 
ATOM      6  O   LIG    1       -1.878   8.065  -1.638  0.00  0.00    -0.530 OA
ATOM      7  C   LIG    1       -1.850   4.810   1.479  0.00  0.00    +0.270 C 
ENDROOT
BRANCH   1  12
ATOM      8  C   LIG    1        2.474   1.445  -0.013  0.00  0.00    +0.330 C 
ATOM      9  N   LIG    1        1.074   1.878   0.002  0.00  0.00    -0.460 N 
ATOM     10  C   LIG    1       -0.013   1.076   0.008  0.00  0.00    +0.400 A 
ATOM     11  N   LIG    1       -1.083   1.822   0.017  0.00  0.00    -0.480 NA
ATOM     12  C   LIG    1       -0.722   3.114   0.024  0.00  0.00    +0.010 A 
ATOM     13  C   LIG    1        0.623   3.170   0.012  0.00  0.00    +0.140 A 
ENDBRANCH   1  12
BRANCH   5  14
ATOM     14  C   LIG    1       -2.214   8.983   0.510  0.00  0.00    -0.070 C 
ATOM     15  C   LIG    1       -3.686   9.400   0.556  0.00  0.00    +0.050 C 
ATOM     16  C   LIG    1       -2.649  10.318  -0.097  0.00  0.00    +0.080 C 
ENDBRANCH   5  14
BRANCH   7  17
ATOM     17  N   LIG    1       -3.269   4.785   1.845  0.00  0.00    -0.690 N 
ATOM     18  H   LIG    1       -3.948   4.831   1.154  0.00  0.00    +0.410 HD
BRANCH  17  19
ATOM     19  C   LIG    1       -3.639   4.695   3.175  0.00  0.00    +0.410 A 
ATOM     20  N   LIG    1       -2.713   4.626   4.122  0.00  0.00    -0.490 NA
ATOM     21  C   LIG    1       -3.071   4.545   5.392  0.00  0.00    +0.320 A 
ATOM     22  C   LIG    1       -4.412   4.521   5.742  0.00  0.00    +0.170 A 
ATOM     23  N   LIG    1       -5.344   4.584   4.811  0.00  0.00    -0.360 NA
ATOM     24  C   LIG    1       -5.000   4.671   3.529  0.00  0.00    +0.070 A 
BRANCH  24  25
ATOM     25  C   LIG    1       -6.009   4.739   2.516  0.00  0.00    +0.260 C 
ATOM     26  N   LIG    1       -6.810   4.792   1.712  0.00  0.00    -0.380 NA
ENDBRANCH  24  25
ENDBRANCH  17  19
ENDBRANCH   7  17
TORSDOF 5
