REMARK  Name = ZINCzw0000000hV4.1
REMARK                            x       y       z     vdW  Elec       q    Type
REMARK                         _______ _______ _______ _____ _____    ______ ____
ROOT
ATOM      1  C   LIG    1        2.174   3.223   1.309  0.00  0.00    +0.550 C 
ATOM      2  N   LIG    1        3.192   4.047   0.992  0.00  0.00    -0.650 N 
ATOM      3  C   LIG    1        4.638   3.905   0.764  0.00  0.00    +0.310 C 
ATOM      4  C   LIG    1        4.557   5.139  -0.149  0.00  0.00    +0.150 C 
ATOM      5  C   LIG    1        3.346   5.486   0.729  0.00  0.00    +0.320 C 
ATOM      6  O   LIG    1        1.052   3.665   1.437  0.00  0.00    -0.500 OA
ENDROOT
BRANCH   4   7
ATOM      7  N   LIG    1        5.687   6.068  -0.011  0.00  0.00    -0.370 N 
ATOM      8  H   LIG    1        5.924   6.166   0.965  0.00  0.00    +0.420 HD
BRANCH   7   9
ATOM      9  C   LIG    1        5.313   7.379  -0.559  0.00  0.00    +0.320 C 
BRANCH   9  10
ATOM     10  C   LIG    1        4.247   7.999   0.306  0.00  0.00    -0.160 A 
ATOM     11  C   LIG    1        2.921   7.941  -0.082  0.00  0.00    +0.040 A 
ATOM     12  C   LIG    1        1.942   8.506   0.714  0.00  0.00    +0.030 A 
ATOM     13  C   LIG    1        2.290   9.138   1.893  0.00  0.00    +0.060 A 
ATOM     14  C   LIG    1        3.616   9.201   2.278  0.00  0.00    +0.030 A 
ATOM     15  C   LIG    1        4.594   8.632   1.485  0.00  0.00    +0.030 A 
ENDBRANCH   9  10
ENDBRANCH   7   9
BRANCH   7  16
ATOM     16  C   LIG    1        6.846   5.543  -0.745  0.00  0.00    +0.320 C 
BRANCH  16  17
ATOM     17  C   LIG    1        8.039   6.431  -0.503  0.00  0.00    -0.160 A 
ATOM     18  C   LIG    1        8.288   7.498  -1.345  0.00  0.00    +0.030 A 
ATOM     19  C   LIG    1        9.380   8.316  -1.120  0.00  0.00    +0.030 A 
ATOM     20  C   LIG    1       10.228   8.060  -0.059  0.00  0.00    +0.060 A 
ATOM     21  C   LIG    1        9.982   6.989   0.780  0.00  0.00    +0.030 A 
ATOM     22  C   LIG    1        8.887   6.174   0.558  0.00  0.00    +0.040 A 
ENDBRANCH  16  17
ENDBRANCH   7  16
ENDBRANCH   4   7
BRANCH   1  23
ATOM     23  C   LIG    1        2.430   1.750   1.505  0.00  0.00    +0.070 C 
BRANCH  23  24
ATOM     24  C   LIG    1        1.117   1.047   1.855  0.00  0.00    +0.140 C 
BRANCH  24  27
ATOM     25  C   LIG    1        1.595  -0.005   4.498  0.00  0.00    +0.120 C 
ATOM     26  C   LIG    1        1.599  -0.920   3.301  0.00  0.00    +0.120 A 
ATOM     27  C   LIG    1        1.373  -0.425   2.051  0.00  0.00    -0.270 A 
ATOM     28  C   LIG    1        1.385  -1.291   0.946  0.00  0.00    +0.560 A 
ATOM     29  N   LIG    1        1.612  -2.608   1.102  0.00  0.00    -0.600 N 
ATOM     30  H   LIG    1        1.616  -3.189   0.325  0.00  0.00    +0.420 HD
ATOM     31  C   LIG    1        1.835  -3.135   2.335  0.00  0.00    +0.450 A 
ATOM     32  N   LIG    1        2.085  -4.405   2.766  0.00  0.00    -0.480 N 
ATOM     33  H   LIG    1        2.144  -5.187   2.195  0.00  0.00    +0.450 HD
ATOM     34  N   LIG    1        2.243  -4.411   4.155  0.00  0.00    -0.500 N 
ATOM     35  H   LIG    1        2.429  -5.194   4.697  0.00  0.00    +0.450 HD
ATOM     36  C   LIG    1        2.097  -3.153   4.621  0.00  0.00    +0.570 A 
ATOM     37  O   LIG    1        2.172  -2.795   5.781  0.00  0.00    -0.510 OA
ATOM     38  O   LIG    1        1.187  -0.844  -0.171  0.00  0.00    -0.530 OA
ATOM     39  C   LIG    1        1.830  -2.299   3.457  0.00  0.00    -0.330 A 
ENDBRANCH  24  27
ENDBRANCH  23  24
ENDBRANCH   1  23
TORSDOF 8
