REMARK  Name = ZINCpk00000xI3ms.0
REMARK                            x       y       z     vdW  Elec       q    Type
REMARK                         _______ _______ _______ _____ _____    ______ ____
ROOT
ATOM      1  C   LIG    1       -0.013   1.086   0.008  0.00  0.00    +0.160 C 
ATOM      2  C   LIG    1       -0.198   1.711  -1.387  0.00  0.00    +0.290 C 
ATOM      3  N   LIG    1        1.275   1.708  -1.473  0.00  0.00    -0.640 N 
ATOM      4  C   LIG    1        2.161   1.696  -2.489  0.00  0.00    +0.520 C 
ATOM      5  O   LIG    1        3.351   1.698  -2.255  0.00  0.00    -0.530 OA
ATOM      6  C   LIG    1        1.388   1.725  -0.002  0.00  0.00    +0.300 C 
ENDROOT
BRANCH   4   7
ATOM      7  C   LIG    1        1.674   1.681  -3.914  0.00  0.00    +0.130 C 
ATOM      8  C   LIG    1        1.391   3.113  -4.372  0.00  0.00    +0.090 C 
BRANCH   7   9
ATOM      9  O   LIG    1        0.475   0.908  -3.999  0.00  0.00    -0.540 OA
ATOM     10  H   LIG    1        0.580  -0.013  -3.724  0.00  0.00    +0.380 HD
ENDBRANCH   7   9
BRANCH   7  11
ATOM     11  C   LIG    1        2.745   1.060  -4.813  0.00  0.00    +0.030 C 
BRANCH  11  12
ATOM     12  C   LIG    1        2.304   1.157  -6.275  0.00  0.00    +0.080 C 
BRANCH  12  13
ATOM     13  C   LIG    1        3.359   0.546  -7.160  0.00  0.00    -0.080 A 
ATOM     14  C   LIG    1        4.380   1.331  -7.663  0.00  0.00    +0.000 A 
ATOM     15  C   LIG    1        5.350   0.770  -8.471  0.00  0.00    +0.000 A 
ATOM     16  C   LIG    1        5.295  -0.576  -8.785  0.00  0.00    +0.000 A 
ATOM     17  C   LIG    1        4.271  -1.360  -8.286  0.00  0.00    +0.000 A 
ATOM     18  C   LIG    1        3.304  -0.799  -7.474  0.00  0.00    +0.000 A 
ENDBRANCH  12  13
ENDBRANCH  11  12
ENDBRANCH   7  11
ENDBRANCH   4   7
BRANCH   1  19
ATOM     19  O   LIG    1       -0.884   1.626   1.004  0.00  0.00    -0.360 OA
BRANCH  19  20
ATOM     20  C   LIG    1       -1.879   0.709   1.464  0.00  0.00    +0.360 C 
BRANCH  20  25
ATOM     21  C   LIG    1       -3.711   2.392   5.842  0.00  0.00    +0.250 C 
ATOM     22  C   LIG    1       -3.520   2.099   4.376  0.00  0.00    +0.180 A 
ATOM     23  N   LIG    1       -4.298   2.484   3.405  0.00  0.00    -0.290 NA
ATOM     24  N   LIG    1       -3.830   2.054   2.286  0.00  0.00    -0.260 NA
ATOM     25  C   LIG    1       -2.737   1.380   2.506  0.00  0.00    +0.150 A 
ATOM     26  O   LIG    1       -2.518   1.388   3.831  0.00  0.00    -0.220 OA
ENDBRANCH  20  25
ENDBRANCH  19  20
ENDBRANCH   1  19
TORSDOF 8
