REMARK  Name = ZINCkj00000xIL1k.1
REMARK                            x       y       z     vdW  Elec       q    Type
REMARK                         _______ _______ _______ _____ _____    ______ ____
ROOT
ATOM      1  O   LIG    1       -2.582   4.929   0.209  0.00  0.00    -0.470 OA
ATOM      2  C   LIG    1       -2.539   3.726   0.045  0.00  0.00    +0.580 C 
ATOM      3  N   LIG    1       -3.682   3.017  -0.050  0.00  0.00    -0.620 N 
ATOM      4  C   LIG    1       -3.660   1.546  -0.066  0.00  0.00    +0.340 C 
ATOM      5  C   LIG    1       -4.664   1.038   0.981  0.00  0.00    +0.250 C 
ATOM      6  N   LIG    1       -5.982   1.628   0.716  0.00  0.00    -0.380 N 
ATOM      7  C   LIG    1       -5.926   3.083   0.899  0.00  0.00    +0.270 C 
ATOM      8  H   LIG    1       -6.258   1.420  -0.232  0.00  0.00    +0.420 HD
ATOM      9  C   LIG    1       -4.985   3.692  -0.146  0.00  0.00    +0.330 C 
ENDROOT
BRANCH   2  10
ATOM     10  C   LIG    1       -1.228   3.037  -0.052  0.00  0.00    +0.130 A 
ATOM     11  N   LIG    1       -1.163   1.749  -0.383  0.00  0.00    -0.490 NA
ATOM     12  C   LIG    1       -0.004   1.134  -0.465  0.00  0.00    +0.520 A 
ATOM     13  N   LIG    1        1.136   1.757  -0.235  0.00  0.00    -0.480 NA
ATOM     14  C   LIG    1        1.158   3.037   0.094  0.00  0.00    +0.370 A 
ATOM     15  C   LIG    1       -0.042   3.730   0.199  0.00  0.00    -0.100 A 
ATOM     16 CL   LIG    1       -0.066   5.411   0.629  0.00  0.00    +0.020 Cl
ENDBRANCH   2  10
BRANCH   6  17
ATOM     17  C   LIG    1       -6.967   1.057   1.645  0.00  0.00    +0.180 C 
ATOM     18  C   LIG    1       -6.938  -0.467   1.523  0.00  0.00    +0.070 C 
ATOM     19  C   LIG    1       -8.343  -1.028   1.865  0.00  0.00    +0.160 C 
ATOM     20  S   LIG    1       -9.422   0.192   1.008  0.00  0.00    -0.220 S 
ATOM     21  C   LIG    1       -8.351   1.646   1.326  0.00  0.00    +0.130 C 
ENDBRANCH   6  17
TORSDOF 2
