REMARK  Name = ZINCrD0000073S1p.0
REMARK                            x       y       z     vdW  Elec       q    Type
REMARK                         _______ _______ _______ _____ _____    ______ ____
ROOT
ATOM      1  N   LIG    1       -0.297   1.978  -2.301  0.00  0.00    -0.720 N 
ATOM      2  H   LIG    1       -0.269   2.749  -1.713  0.00  0.00    +0.400 HD
ATOM      3  C   LIG    1       -0.393   2.151  -3.635  0.00  0.00    +0.520 C 
ATOM      4  O   LIG    1       -0.427   1.187  -4.370  0.00  0.00    -0.530 OA
ENDROOT
BRANCH   3   5
ATOM      5  C   LIG    1       -0.457   3.541  -4.212  0.00  0.00    -0.010 C 
ATOM      6  C   LIG    1       -1.683   4.268  -3.654  0.00  0.00    +0.040 C 
ATOM      7  C   LIG    1       -1.727   5.692  -4.216  0.00  0.00    +0.280 C 
ATOM      8  N   LIG    1       -1.681   5.624  -5.683  0.00  0.00    -0.610 N 
ATOM      9  C   LIG    1       -0.593   4.871  -6.322  0.00  0.00    +0.280 C 
ATOM     10  C   LIG    1       -2.620   6.239  -6.429  0.00  0.00    +0.570 C 
ATOM     11  O   LIG    1       -3.566   6.780  -5.890  0.00  0.00    -0.530 OA
ATOM     12  C   LIG    1       -0.562   3.456  -5.736  0.00  0.00    +0.060 C 
BRANCH  10  13
ATOM     13  C   LIG    1       -2.499   6.257  -7.902  0.00  0.00    -0.190 A 
ATOM     14  C   LIG    1       -3.628   6.080  -8.711  0.00  0.00    +0.120 A 
ATOM     15  C   LIG    1       -3.462   6.109 -10.085  0.00  0.00    -0.020 A 
ATOM     16  C   LIG    1       -2.196   6.301 -10.609  0.00  0.00    +0.280 A 
ATOM     17  N   LIG    1       -1.149   6.460  -9.822  0.00  0.00    -0.480 NA
ATOM     18  C   LIG    1       -1.257   6.446  -8.510  0.00  0.00    +0.290 A 
ENDBRANCH  10  13
ENDBRANCH   3   5
BRANCH   1  20
ATOM     19  C   LIG    1        1.214   0.133  -1.760  0.00  0.00    +0.030 C 
ATOM     20  C   LIG    1       -0.234   0.626  -1.740  0.00  0.00    +0.240 C 
BRANCH  20  21
ATOM     21  C   LIG    1       -0.745   0.648  -0.298  0.00  0.00    +0.080 C 
BRANCH  21  22
ATOM     22  C   LIG    1       -2.206   1.016  -0.289  0.00  0.00    -0.070 A 
ATOM     23  C   LIG    1       -3.168   0.027  -0.370  0.00  0.00    +0.020 A 
ATOM     24  C   LIG    1       -4.509   0.364  -0.362  0.00  0.00    +0.030 A 
ATOM     25  C   LIG    1       -4.888   1.690  -0.279  0.00  0.00    +0.020 A 
ATOM     26  C   LIG    1       -3.926   2.680  -0.191  0.00  0.00    -0.030 A 
ATOM     27 CL   LIG    1       -4.402   4.346  -0.078  0.00  0.00    -0.070 Cl
ATOM     28  C   LIG    1       -2.584   2.343  -0.199  0.00  0.00    +0.020 A 
ENDBRANCH  21  22
ENDBRANCH  20  21
ENDBRANCH   1  20
TORSDOF 5
