REMARK  Name = ZINCqH0000001RZ6.0
REMARK                            x       y       z     vdW  Elec       q    Type
REMARK                         _______ _______ _______ _____ _____    ______ ____
ROOT
ATOM      1  C   LIG    1       -2.509   0.984   0.019  0.00  0.00    +0.580 C 
ATOM      2  N   LIG    1       -2.484  -0.364   0.011  0.00  0.00    -0.620 N 
ATOM      3  H   LIG    1       -1.635  -0.833   0.004  0.00  0.00    +0.420 HD
ATOM      4  O   LIG    1       -3.573   1.572   0.027  0.00  0.00    -0.500 OA
ENDROOT
BRANCH   1  10
ATOM      5  N   LIG    1        2.187   3.968   0.003  0.00  0.00    -0.380 N 
ATOM      6  N   LIG    1        1.659   5.262   0.015  0.00  0.00    -0.230 NA
ATOM      7  C   LIG    1        0.357   5.215   0.027  0.00  0.00    +0.310 A 
ATOM      8  C   LIG    1       -0.034   3.809   0.023  0.00  0.00    -0.240 A 
ATOM      9  C   LIG    1       -1.260   3.141   0.031  0.00  0.00    +0.250 A 
ATOM     10  C   LIG    1       -1.244   1.745   0.018  0.00  0.00    -0.240 A 
ATOM     11  C   LIG    1       -0.013   1.076   0.008  0.00  0.00    +0.380 A 
ATOM     12  N   LIG    1        1.123   1.734   0.001  0.00  0.00    -0.500 NA
ATOM     13  C   LIG    1        1.163   3.062   0.007  0.00  0.00    +0.340 A 
BRANCH   5  15
ATOM     14  C   LIG    1        4.262   4.227  -1.264  0.00  0.00    +0.050 C 
ATOM     15  C   LIG    1        3.613   3.635  -0.012  0.00  0.00    +0.270 C 
ATOM     16  C   LIG    1        4.285   4.215   1.234  0.00  0.00    +0.050 C 
ENDBRANCH   5  15
ENDBRANCH   1  10
BRANCH   2  17
ATOM     17  C   LIG    1       -3.674  -1.080   0.012  0.00  0.00    +0.270 A 
ATOM     18  N   LIG    1       -3.769  -2.373   0.000  0.00  0.00    -0.490 NA
ATOM     19  C   LIG    1       -4.992  -2.886   0.008  0.00  0.00    +0.120 A 
ATOM     20  C   LIG    1       -5.994  -1.987   0.018  0.00  0.00    -0.060 A 
ATOM     21  S   LIG    1       -5.287  -0.373   0.023  0.00  0.00    +0.220 S 
BRANCH  19  22
ATOM     22  C   LIG    1       -5.238  -4.347   0.002  0.00  0.00    +0.190 A 
ATOM     23  C   LIG    1       -4.160  -5.230  -0.008  0.00  0.00    +0.000 A 
ATOM     24  C   LIG    1       -4.405  -6.591  -0.014  0.00  0.00    +0.060 A 
ATOM     25  C   LIG    1       -5.723  -7.027  -0.011  0.00  0.00    -0.030 A 
ATOM     26  C   LIG    1       -6.745  -6.097  -0.001  0.00  0.00    +0.260 A 
ATOM     27  N   LIG    1       -6.484  -4.805   0.010  0.00  0.00    -0.480 NA
ENDBRANCH  19  22
ENDBRANCH   2  17
TORSDOF 4
