REMARK  Name = ZINCkj00000dD4bh.0
REMARK                            x       y       z     vdW  Elec       q    Type
REMARK                         _______ _______ _______ _____ _____    ______ ____
ROOT
ATOM      1  N   LIG    1        3.124   0.689  -1.606  0.00  0.00    -1.120 NA
ATOM      2  H   LIG    1        3.169  -0.209  -1.969  0.00  0.00    +0.420 HD
ENDROOT
BRANCH   1   6
ATOM      3  N   LIG    1        5.349   1.349  -3.799  0.00  0.00    -0.400 N 
ATOM      4  C   LIG    1        4.252   1.640  -4.757  0.00  0.00    +0.280 C 
ATOM      5  C   LIG    1        2.964   1.566  -3.908  0.00  0.00    +0.010 C 
ATOM      6  C   LIG    1        3.421   1.841  -2.461  0.00  0.00    +0.270 C 
ATOM      7  C   LIG    1        2.337   0.174  -4.012  0.00  0.00    +0.060 C 
ATOM      8  C   LIG    1        4.947   2.060  -2.555  0.00  0.00    +0.280 C 
ATOM      9  H   LIG    1        5.418   0.356  -3.633  0.00  0.00    +0.430 HD
BRANCH   3  11
ATOM     10  C   LIG    1        7.031   1.111  -5.562  0.00  0.00    +0.080 C 
ATOM     11  C   LIG    1        6.624   1.876  -4.302  0.00  0.00    +0.250 C 
ENDBRANCH   3  11
ENDBRANCH   1   6
BRANCH   1  12
ATOM     12  S   LIG    1        2.712   0.920  -0.019  0.00  0.00    +2.690 S 
ATOM     13  O   LIG    1        2.455  -0.369   0.521  0.00  0.00    -0.940 OA
ATOM     14  O   LIG    1        3.679   1.811   0.521  0.00  0.00    -0.950 OA
BRANCH  12  15
ATOM     15  C   LIG    1        1.176   1.783   0.000  0.00  0.00    -0.730 A 
ATOM     16  C   LIG    1       -0.013   1.076   0.008  0.00  0.00    +0.170 A 
ATOM     17  C   LIG    1       -1.218   1.750   0.017  0.00  0.00    -0.090 A 
ATOM     18  C   LIG    1       -1.237   3.137   0.031  0.00  0.00    +0.190 A 
ATOM     19  C   LIG    1       -0.043   3.844   0.024  0.00  0.00    -0.020 A 
ATOM     20  C   LIG    1        1.160   3.165   0.008  0.00  0.00    +0.160 A 
BRANCH  18  21
ATOM     21  O   LIG    1       -2.422   3.802   0.046  0.00  0.00    -0.310 OA
ATOM     22  C   LIG    1       -3.611   3.009   0.053  0.00  0.00    +0.250 C 
ENDBRANCH  18  21
ENDBRANCH  12  15
ENDBRANCH   1  12
TORSDOF 5
