REMARK  Name = ZINCvU0000000Bm3.0
REMARK                            x       y       z     vdW  Elec       q    Type
REMARK                         _______ _______ _______ _____ _____    ______ ____
ROOT
ATOM      1  C   LIG    1        7.720   3.348   0.559  0.00  0.00    +0.150 A 
ATOM      2  N   LIG    1        7.589   3.391  -0.747  0.00  0.00    -0.290 NA
ATOM      3  N   LIG    1        6.463   2.874  -1.089  0.00  0.00    -0.250 NA
ATOM      4  C   LIG    1        5.810   2.482  -0.032  0.00  0.00    +0.180 A 
ATOM      5  N   LIG    1        6.589   2.766   1.056  0.00  0.00    -0.420 N 
ENDROOT
BRANCH   5   6
ATOM      6  C   LIG    1        6.275   2.502   2.462  0.00  0.00    +0.190 C 
ATOM      7  C   LIG    1        7.094   3.243   3.520  0.00  0.00    +0.070 C 
ATOM      8  C   LIG    1        7.317   1.747   3.289  0.00  0.00    +0.060 C 
ENDBRANCH   5   6
BRANCH   1   9
ATOM      9  S   LIG    1        9.096   3.929   1.493  0.00  0.00    +0.100 S 
BRANCH   9  10
ATOM     10  C   LIG    1       10.149   4.542   0.154  0.00  0.00    +0.090 C 
BRANCH  10  12
ATOM     11  O   LIG    1       11.600   5.091   1.933  0.00  0.00    -0.530 OA
ATOM     12  C   LIG    1       11.422   5.103   0.733  0.00  0.00    +0.540 C 
ATOM     13  N   LIG    1       12.363   5.620  -0.082  0.00  0.00    -0.600 N 
ATOM     14  C   LIG    1       12.168   5.638  -1.539  0.00  0.00    +0.270 C 
ATOM     15  C   LIG    1       13.364   4.970  -2.214  0.00  0.00    +0.010 C 
ATOM     16  C   LIG    1       14.657   5.639  -1.740  0.00  0.00    +0.020 C 
ATOM     17  C   LIG    1       14.788   5.476  -0.226  0.00  0.00    -0.020 C 
ATOM     18  C   LIG    1       16.108   6.074   0.254  0.00  0.00    +0.030 C 
ATOM     19  C   LIG    1       16.141   7.572  -0.054  0.00  0.00    +0.010 C 
ATOM     20  C   LIG    1       14.977   8.260   0.662  0.00  0.00    +0.010 C 
ATOM     21  C   LIG    1       13.657   7.673   0.162  0.00  0.00    +0.010 C 
ATOM     22  C   LIG    1       13.613   6.173   0.465  0.00  0.00    +0.250 C 
ENDBRANCH  10  12
ENDBRANCH   9  10
ENDBRANCH   1   9
BRANCH   4  23
ATOM     23  C   LIG    1        4.452   1.831  -0.012  0.00  0.00    +0.350 C 
BRANCH  23  24
ATOM     24  O   LIG    1        3.442   2.837   0.093  0.00  0.00    -0.300 OA
BRANCH  24  25
ATOM     25  C   LIG    1        2.151   2.415   0.124  0.00  0.00    +0.140 A 
ATOM     26  C   LIG    1        1.861   1.061   0.055  0.00  0.00    -0.060 A 
ATOM     27  C   LIG    1        0.547   0.634   0.087  0.00  0.00    +0.060 A 
ATOM     28  C   LIG    1       -0.479   1.555   0.188  0.00  0.00    +0.000 A 
ATOM     29  C   LIG    1       -0.193   2.907   0.258  0.00  0.00    +0.070 A 
ATOM     30  C   LIG    1        1.119   3.339   0.226  0.00  0.00    -0.070 A 
ATOM     31 CL   LIG    1        1.478   5.035   0.313  0.00  0.00    -0.050 Cl
ENDBRANCH  24  25
ENDBRANCH  23  24
ENDBRANCH   4  23
TORSDOF 7
