REMARK  Name = ZINCvU0000000CyA.0
REMARK                            x       y       z     vdW  Elec       q    Type
REMARK                         _______ _______ _______ _____ _____    ______ ____
ROOT
ATOM      1  N   LIG    1       -4.567  -3.469   0.027  0.00  0.00    -0.710 N 
ATOM      2  H   LIG    1       -4.336  -4.411   0.020  0.00  0.00    +0.420 HD
ATOM      3  C   LIG    1       -3.594  -2.537   0.022  0.00  0.00    +0.610 C 
ATOM      4  O   LIG    1       -3.884  -1.354   0.031  0.00  0.00    -0.540 OA
ENDROOT
BRANCH   3   5
ATOM      5  C   LIG    1       -2.233  -2.932   0.008  0.00  0.00    -0.140 A 
ATOM      6  C   LIG    1       -1.137  -2.087   0.002  0.00  0.00    +0.190 A 
ATOM      7  C   LIG    1        0.003  -2.917  -0.020  0.00  0.00    -0.050 A 
ATOM      8  C   LIG    1       -0.432  -4.193  -0.017  0.00  0.00    +0.250 A 
ATOM      9  O   LIG    1       -1.772  -4.203  -0.004  0.00  0.00    -0.150 OA
BRANCH   6  10
ATOM     10  N   LIG    1       -1.156  -0.694   0.009  0.00  0.00    -0.620 N 
ATOM     11  H   LIG    1       -2.002  -0.220   0.020  0.00  0.00    +0.430 HD
ATOM     12  C   LIG    1        0.002  -0.004   0.002  0.00  0.00    +0.660 C 
ATOM     13  O   LIG    1        1.062  -0.597  -0.011  0.00  0.00    -0.550 OA
BRANCH  12  14
ATOM     14  O   LIG    1       -0.016   1.342   0.009  0.00  0.00    -0.350 OA
BRANCH  14  15
ATOM     15  C   LIG    1        1.268   2.019   0.001  0.00  0.00    +0.140 C 
ATOM     16  C   LIG    1        2.068   1.612   1.240  0.00  0.00    +0.030 C 
ATOM     17  C   LIG    1        1.047   3.533   0.011  0.00  0.00    +0.080 C 
ATOM     18  C   LIG    1        2.044   1.625  -1.258  0.00  0.00    +0.030 C 
ENDBRANCH  14  15
ENDBRANCH  12  14
ENDBRANCH   6  10
ENDBRANCH   3   5
BRANCH   1  20
ATOM     19  C   LIG    1       -6.415  -2.805   1.485  0.00  0.00    +0.040 C 
ATOM     20  C   LIG    1       -5.973  -3.060   0.042  0.00  0.00    +0.330 C 
BRANCH  20  21
ATOM     21  C   LIG    1       -6.821  -4.154  -0.556  0.00  0.00    +0.060 A 
ATOM     22  C   LIG    1       -8.009  -3.905  -1.116  0.00  0.00    -0.050 A 
ATOM     23  S   LIG    1       -8.677  -5.431  -1.692  0.00  0.00    +0.150 S 
ATOM     24  C   LIG    1       -7.247  -6.274  -1.104  0.00  0.00    +0.100 A 
ATOM     25  N   LIG    1       -6.435  -5.410  -0.565  0.00  0.00    -0.450 NA
BRANCH  24  26
ATOM     26  C   LIG    1       -7.004  -7.728  -1.210  0.00  0.00    -0.100 A 
ATOM     27  C   LIG    1       -5.823  -8.281  -0.708  0.00  0.00    +0.180 A 
ATOM     28  C   LIG    1       -5.606  -9.643  -0.807  0.00  0.00    -0.020 A 
ATOM     29  C   LIG    1       -6.549 -10.455  -1.409  0.00  0.00    +0.110 A 
ATOM     30  C   LIG    1       -7.718  -9.914  -1.914  0.00  0.00    -0.010 A 
ATOM     31  F   LIG    1       -4.899  -7.489  -0.123  0.00  0.00    -0.110 F 
ATOM     32  C   LIG    1       -7.952  -8.556  -1.818  0.00  0.00    +0.140 A 
ATOM     33  F   LIG    1       -9.094  -8.029  -2.312  0.00  0.00    -0.120 F 
ENDBRANCH  24  26
ENDBRANCH  20  21
ENDBRANCH   1  20
TORSDOF 7
