REMARK  Name = ZINCpe000000ZDzD.0
REMARK                            x       y       z     vdW  Elec       q    Type
REMARK                         _______ _______ _______ _____ _____    ______ ____
ROOT
ATOM      1  C   LIG    1       -1.770   2.355   1.466  0.00  0.00    +0.250 C 
ENDROOT
BRANCH   1   2
ATOM      2  C   LIG    1       -2.947   3.296   1.484  0.00  0.00    +0.520 C 
ATOM      3  N   LIG    1       -2.761   4.612   1.257  0.00  0.00    -0.610 N 
ATOM      4  C   LIG    1       -1.488   5.246   0.885  0.00  0.00    +0.230 C 
ATOM      5  C   LIG    1       -1.752   6.761   0.755  0.00  0.00    +0.040 C 
ATOM      6  C   LIG    1       -3.023   6.966   1.621  0.00  0.00    +0.030 C 
ATOM      7  C   LIG    1       -3.800   5.654   1.347  0.00  0.00    +0.250 C 
ATOM      8  O   LIG    1       -4.061   2.869   1.702  0.00  0.00    -0.530 OA
ENDBRANCH   1   2
BRANCH   1  10
ATOM      9  C   LIG    1       -1.822   1.262   3.643  0.00  0.00    +0.510 C 
ATOM     10  N   LIG    1       -2.057   1.198   2.318  0.00  0.00    -0.700 N 
ATOM     11  H   LIG    1       -2.417   0.386   1.927  0.00  0.00    +0.410 HD
ATOM     12  O   LIG    1       -1.372   2.277   4.131  0.00  0.00    -0.520 OA
BRANCH   9  17
ATOM     13  O   LIG    1       -1.150  -0.052   7.933  0.00  0.00    -0.520 OA
ATOM     14  C   LIG    1       -1.867  -0.137   6.956  0.00  0.00    +0.660 C 
ATOM     15  N   LIG    1       -1.359   0.184   5.762  0.00  0.00    -0.710 N 
ATOM     16  H   LIG    1       -0.444   0.505   5.719  0.00  0.00    +0.420 HD
ATOM     17  C   LIG    1       -2.117   0.071   4.519  0.00  0.00    +0.230 C 
ATOM     18  C   LIG    1       -3.617   0.025   4.825  0.00  0.00    +0.040 C 
ATOM     19  C   LIG    1       -3.850  -0.999   5.944  0.00  0.00    +0.260 C 
ATOM     20  O   LIG    1       -3.134  -0.549   7.127  0.00  0.00    -0.340 OA
ENDBRANCH   9  17
ENDBRANCH   1  10
BRANCH   1  21
ATOM     21  C   LIG    1       -1.516   1.883   0.033  0.00  0.00    +0.110 C 
BRANCH  21  22
ATOM     22  C   LIG    1       -0.261   1.049  -0.006  0.00  0.00    -0.090 A 
ATOM     23  C   LIG    1        0.962   1.651  -0.239  0.00  0.00    +0.010 A 
ATOM     24  C   LIG    1        2.112   0.885  -0.281  0.00  0.00    +0.010 A 
ATOM     25  C   LIG    1        2.040  -0.482  -0.090  0.00  0.00    +0.000 A 
ATOM     26  C   LIG    1        0.817  -1.083   0.143  0.00  0.00    +0.000 A 
ATOM     27  C   LIG    1       -0.333  -0.318   0.185  0.00  0.00    +0.010 A 
ENDBRANCH  21  22
ENDBRANCH   1  21
TORSDOF 5
