REMARK  Name = ZINCrD000000AqUT.0
REMARK                            x       y       z     vdW  Elec       q    Type
REMARK                         _______ _______ _______ _____ _____    ______ ____
ROOT
ATOM      1  O   LIG    1       -7.502   5.103   5.974  0.00  0.00    -0.510 OA
ATOM      2  C   LIG    1       -7.908   5.039   4.833  0.00  0.00    +0.520 C 
ATOM      3  N   LIG    1       -9.153   5.460   4.536  0.00  0.00    -0.720 N 
ATOM      4  H   LIG    1       -9.477   5.410   3.623  0.00  0.00    +0.400 HD
ENDROOT
BRANCH   3   5
ATOM      5  C   LIG    1      -10.016   5.996   5.592  0.00  0.00    +0.290 C 
ATOM      6  C   LIG    1      -11.478   5.792   5.199  0.00  0.00    +0.020 C 
ATOM      7  C   LIG    1      -12.359   6.545   6.202  0.00  0.00    +0.030 C 
ATOM      8  C   LIG    1      -12.172   8.044   5.977  0.00  0.00    +0.080 C 
ATOM      9  C   LIG    1      -10.708   8.400   5.966  0.00  0.00    -0.070 A 
ATOM     10  C   LIG    1      -10.365   9.734   6.144  0.00  0.00    -0.010 A 
ATOM     11  C   LIG    1       -9.042  10.126   6.132  0.00  0.00    +0.010 A 
ATOM     12  C   LIG    1       -8.049   9.183   5.942  0.00  0.00    -0.010 A 
ATOM     13  C   LIG    1       -8.388   7.857   5.769  0.00  0.00    +0.020 A 
ATOM     14  C   LIG    1       -9.718   7.460   5.782  0.00  0.00    -0.100 A 
ENDBRANCH   3   5
BRANCH   2  15
ATOM     15  C   LIG    1       -7.020   4.488   3.748  0.00  0.00    +0.220 C 
BRANCH  15  16
ATOM     16  O   LIG    1       -5.760   4.112   4.308  0.00  0.00    -0.290 OA
BRANCH  16  17
ATOM     17  C   LIG    1       -4.836   3.592   3.456  0.00  0.00    +0.100 A 
ATOM     18  C   LIG    1       -3.592   3.206   3.934  0.00  0.00    +0.030 A 
ATOM     19  C   LIG    1       -2.654   2.678   3.069  0.00  0.00    +0.040 A 
ATOM     20  C   LIG    1       -2.955   2.535   1.721  0.00  0.00    +0.130 A 
ATOM     21  C   LIG    1       -4.198   2.927   1.243  0.00  0.00    +0.010 A 
ATOM     22  C   LIG    1       -5.138   3.449   2.109  0.00  0.00    -0.050 A 
BRANCH  20  23
ATOM     23  N   LIG    1       -2.003   2.000   0.844  0.00  0.00    -0.560 N 
ATOM     24  C   LIG    1       -2.219   1.807  -0.595  0.00  0.00    +0.260 C 
ATOM     25  C   LIG    1       -0.811   1.623  -1.203  0.00  0.00    +0.060 C 
ATOM     26  C   LIG    1       -0.013   1.086   0.008  0.00  0.00    +0.070 C 
ATOM     27  C   LIG    1       -0.771   1.598   1.213  0.00  0.00    +0.510 C 
ATOM     28  O   LIG    1       -0.333   1.640   2.343  0.00  0.00    -0.510 OA
ENDBRANCH  20  23
ENDBRANCH  16  17
ENDBRANCH  15  16
ENDBRANCH   2  15
TORSDOF 5
