REMARK  Name = ZINCrD000000fK8U.1
REMARK                            x       y       z     vdW  Elec       q    Type
REMARK                         _______ _______ _______ _____ _____    ______ ____
ROOT
ATOM      1  N   LIG    1        5.869   3.830  -0.045  0.00  0.00    -0.660 N 
ATOM      2  H   LIG    1        5.498   4.723  -0.116  0.00  0.00    +0.420 HD
ATOM      3  C   LIG    1        5.051   2.759  -0.037  0.00  0.00    +0.530 C 
ATOM      4  O   LIG    1        5.519   1.639  -0.032  0.00  0.00    -0.500 OA
ENDROOT
BRANCH   1   8
ATOM      5  C   LIG    1        9.996   3.306   0.238  0.00  0.00    +0.130 A 
ATOM      6  C   LIG    1        9.225   2.381  -0.452  0.00  0.00    +0.000 A 
ATOM      7  C   LIG    1        7.858   2.554  -0.546  0.00  0.00    +0.040 A 
ATOM      8  C   LIG    1        7.255   3.654   0.051  0.00  0.00    +0.120 A 
ATOM      9  C   LIG    1        8.028   4.582   0.737  0.00  0.00    +0.010 A 
ATOM     10  C   LIG    1        9.393   4.406   0.835  0.00  0.00    +0.040 A 
BRANCH   5  13
ATOM     11  C   LIG    1       13.507   3.213   1.598  0.00  0.00    +0.110 C 
ATOM     12  C   LIG    1       12.034   3.497   1.455  0.00  0.00    +0.510 C 
ATOM     13  N   LIG    1       11.383   3.130   0.333  0.00  0.00    -0.670 N 
ATOM     14  H   LIG    1       11.874   2.744  -0.409  0.00  0.00    +0.410 HD
ATOM     15  O   LIG    1       11.434   4.056   2.349  0.00  0.00    -0.530 OA
ENDBRANCH   5  13
ENDBRANCH   1   8
BRANCH   3  16
ATOM     16  C   LIG    1        3.557   2.951  -0.034  0.00  0.00    +0.110 C 
BRANCH  16  17
ATOM     17  S   LIG    1        2.740   1.336  -0.023  0.00  0.00    +0.100 S 
BRANCH  17  18
ATOM     18  C   LIG    1        1.054   1.846  -0.022  0.00  0.00    +0.250 A 
ATOM     19  N   LIG    1        0.622   3.088  -0.028  0.00  0.00    -0.530 NA
ATOM     20  C   LIG    1       -0.719   3.100  -0.024  0.00  0.00    +0.270 A 
ATOM     21  N   LIG    1       -1.155   1.860  -0.022  0.00  0.00    -0.280 NA
ATOM     22  N   LIG    1       -0.023   1.029  -0.015  0.00  0.00    -0.460 N 
ATOM     23  H   LIG    1       -0.015   0.059  -0.010  0.00  0.00    +0.450 HD
BRANCH  20  24
ATOM     24  C   LIG    1       -1.571   4.314  -0.029  0.00  0.00    -0.050 A 
ATOM     25  C   LIG    1       -0.987   5.578  -0.032  0.00  0.00    +0.090 A 
ATOM     26  C   LIG    1       -1.785   6.705  -0.043  0.00  0.00    +0.000 A 
ATOM     27  C   LIG    1       -3.163   6.581  -0.039  0.00  0.00    +0.070 A 
ATOM     28  C   LIG    1       -3.750   5.329  -0.029  0.00  0.00    -0.020 A 
ATOM     29  C   LIG    1       -2.962   4.194  -0.025  0.00  0.00    +0.130 A 
ATOM     30  F   LIG    1       -3.536   2.971  -0.015  0.00  0.00    -0.120 F 
ENDBRANCH  20  24
ENDBRANCH  17  18
ENDBRANCH  16  17
ENDBRANCH   3  16
TORSDOF 6
