REMARK  Name = ZINCrD000000fK8U.0
REMARK                            x       y       z     vdW  Elec       q    Type
REMARK                         _______ _______ _______ _____ _____    ______ ____
ROOT
ATOM      1  N   LIG    1        9.729  -4.938  -0.129  0.00  0.00    -0.660 N 
ATOM      2  H   LIG    1       10.230  -4.111  -0.209  0.00  0.00    +0.410 HD
ATOM      3  C   LIG    1        8.382  -4.910  -0.111  0.00  0.00    +0.540 C 
ATOM      4  O   LIG    1        7.754  -5.948  -0.095  0.00  0.00    -0.500 OA
ENDROOT
BRANCH   1   8
ATOM      5  C   LIG    1       11.744  -8.578   0.156  0.00  0.00    +0.130 A 
ATOM      6  C   LIG    1       10.536  -8.504  -0.525  0.00  0.00    +0.000 A 
ATOM      7  C   LIG    1        9.869  -7.299  -0.620  0.00  0.00    +0.040 A 
ATOM      8  C   LIG    1       10.406  -6.161  -0.033  0.00  0.00    +0.130 A 
ATOM      9  C   LIG    1       11.616  -6.233   0.644  0.00  0.00    +0.010 A 
ATOM     10  C   LIG    1       12.281  -7.439   0.743  0.00  0.00    +0.040 A 
BRANCH   5  13
ATOM     11  C   LIG    1       13.752 -11.459   1.514  0.00  0.00    +0.110 C 
ATOM     12  C   LIG    1       13.111 -10.103   1.369  0.00  0.00    +0.510 C 
ATOM     13  N   LIG    1       12.421  -9.800   0.252  0.00  0.00    -0.680 N 
ATOM     14  H   LIG    1       12.394 -10.429  -0.487  0.00  0.00    +0.410 HD
ATOM     15  O   LIG    1       13.215  -9.285   2.258  0.00  0.00    -0.530 OA
ENDBRANCH   5  13
ENDBRANCH   1   8
BRANCH   3  16
ATOM     16  C   LIG    1        7.655  -3.590  -0.109  0.00  0.00    +0.100 C 
BRANCH  16  17
ATOM     17  S   LIG    1        5.866  -3.885  -0.082  0.00  0.00    +0.120 S 
BRANCH  17  18
ATOM     18  C   LIG    1        5.196  -2.255  -0.084  0.00  0.00    +0.200 A 
ATOM     19  N   LIG    1        5.895  -1.143  -0.100  0.00  0.00    -0.310 NA
ATOM     20  N   LIG    1        4.976  -0.082  -0.099  0.00  0.00    -0.470 N 
ATOM     21  H   LIG    1        5.182   0.866  -0.113  0.00  0.00    +0.450 HD
ATOM     22  C   LIG    1        3.745  -0.642  -0.073  0.00  0.00    +0.340 A 
ATOM     23  N   LIG    1        3.896  -1.952  -0.067  0.00  0.00    -0.500 NA
BRANCH  22  24
ATOM     24  C   LIG    1        2.458   0.086  -0.059  0.00  0.00    -0.070 A 
ATOM     25  C   LIG    1        1.255  -0.619  -0.038  0.00  0.00    +0.110 A 
ATOM     26  C   LIG    1        0.057   0.066  -0.025  0.00  0.00    +0.010 A 
ATOM     27  C   LIG    1        0.046   1.449  -0.034  0.00  0.00    +0.070 A 
ATOM     28  C   LIG    1        1.234   2.156  -0.055  0.00  0.00    +0.000 A 
ATOM     29  C   LIG    1        2.442   1.483  -0.067  0.00  0.00    +0.120 A 
ATOM     30  F   LIG    1        3.602   2.175  -0.088  0.00  0.00    -0.140 F 
ENDBRANCH  22  24
ENDBRANCH  17  18
ENDBRANCH  16  17
ENDBRANCH   3  16
TORSDOF 6
