REMARK  Name = ZINCBI0000000d7N.0
REMARK                            x       y       z     vdW  Elec       q    Type
REMARK                         _______ _______ _______ _____ _____    ______ ____
ROOT
ATOM      1  C   LIG    1       -0.178  -3.286   0.003  0.00  0.00    +0.320 C 
ENDROOT
BRANCH   1   2
ATOM      2  N   LIG    1       -0.283  -4.709   0.354  0.00  0.00    -0.540 NA
ATOM      3  C   LIG    1        0.197  -4.951   1.720  0.00  0.00    +0.220 C 
ATOM      4  C   LIG    1        0.215  -6.460   1.983  0.00  0.00    +0.030 C 
ATOM      5  C   LIG    1       -1.231  -6.989   1.852  0.00  0.00    +0.060 C 
ATOM      6  C   LIG    1       -1.700  -6.707   0.418  0.00  0.00    +0.030 C 
ATOM      7  C   LIG    1       -0.754  -7.399  -0.567  0.00  0.00    +0.250 C 
ATOM      8  N   LIG    1        0.603  -6.865  -0.403  0.00  0.00    -0.380 N 
ATOM      9  H   LIG    1        0.589  -5.866  -0.544  0.00  0.00    +0.430 HD
ATOM     10  C   LIG    1        1.099  -7.160   0.946  0.00  0.00    +0.250 C 
ATOM     11  C   LIG    1       -1.657  -5.195   0.175  0.00  0.00    +0.200 C 
BRANCH   8  12
ATOM     12  C   LIG    1        1.493  -7.482  -1.396  0.00  0.00    +0.300 C 
BRANCH  12  13
ATOM     13  C   LIG    1        2.909  -7.029  -1.151  0.00  0.00    -0.150 A 
ATOM     14  C   LIG    1        3.390  -5.894  -1.776  0.00  0.00    +0.050 A 
ATOM     15  C   LIG    1        4.687  -5.476  -1.548  0.00  0.00    +0.020 A 
ATOM     16  C   LIG    1        5.508  -6.199  -0.703  0.00  0.00    +0.040 A 
ATOM     17  C   LIG    1        5.029  -7.337  -0.081  0.00  0.00    +0.010 A 
ATOM     18  C   LIG    1        3.730  -7.753  -0.306  0.00  0.00    +0.030 A 
ENDBRANCH  12  13
ENDBRANCH   8  12
ENDBRANCH   1   2
BRANCH   1  19
ATOM     19  C   LIG    1        1.154  -2.753   0.462  0.00  0.00    -0.110 A 
ATOM     20  C   LIG    1        2.284  -3.497   0.302  0.00  0.00    +0.080 A 
ATOM     21  C   LIG    1        3.524  -3.020   0.722  0.00  0.00    +0.000 A 
ATOM     22  C   LIG    1        3.646  -1.795   1.304  0.00  0.00    +0.090 A 
ATOM     23  C   LIG    1        2.504  -0.999   1.486  0.00  0.00    -0.120 A 
ATOM     24  C   LIG    1        2.567   0.272   2.079  0.00  0.00    +0.340 A 
ATOM     25  N   LIG    1        1.472   0.980   2.227  0.00  0.00    -0.480 NA
ATOM     26  C   LIG    1        0.281   0.549   1.837  0.00  0.00    +0.270 A 
ATOM     27  C   LIG    1        0.113  -0.669   1.251  0.00  0.00    -0.060 A 
ATOM     28  C   LIG    1        1.241  -1.486   1.058  0.00  0.00    +0.000 A 
ENDBRANCH   1  19
BRANCH   1  33
ATOM     29  N   LIG    1       -1.152  -2.325  -2.150  0.00  0.00    -0.290 N 
ATOM     30  N   LIG    1       -0.926  -2.482  -3.410  0.00  0.00    -0.070 NA
ATOM     31  N   LIG    1        0.018  -3.344  -3.559  0.00  0.00    -0.060 NA
ATOM     32  N   LIG    1        0.415  -3.748  -2.402  0.00  0.00    -0.290 NA
ATOM     33  C   LIG    1       -0.295  -3.127  -1.491  0.00  0.00    +0.170 A 
BRANCH  29  34
ATOM     34  C   LIG    1       -2.150  -1.438  -1.548  0.00  0.00    +0.350 C 
BRANCH  34  35
ATOM     35  C   LIG    1       -1.580  -0.022  -1.447  0.00  0.00    +0.040 C 
BRANCH  35  36
ATOM     36  C   LIG    1       -2.568   0.874  -0.698  0.00  0.00    +0.180 C 
BRANCH  36  38
ATOM     37  C   LIG    1       -2.938   3.142  -0.016  0.00  0.00    +0.220 C 
ATOM     38  O   LIG    1       -2.084   2.219  -0.695  0.00  0.00    -0.380 OA
ENDBRANCH  36  38
ENDBRANCH  35  36
ENDBRANCH  34  35
ENDBRANCH  29  34
ENDBRANCH   1  33
TORSDOF 9
