REMARK  Name = ZINCpk00000y6wSn.1
REMARK                            x       y       z     vdW  Elec       q    Type
REMARK                         _______ _______ _______ _____ _____    ______ ____
ROOT
ATOM      1  C   LIG    1       -4.154   4.968  -1.354  0.00  0.00    +0.160 C 
ATOM      2  C   LIG    1       -4.828   4.813  -2.720  0.00  0.00    +0.030 C 
ATOM      3  C   LIG    1       -3.786   4.726  -3.824  0.00  0.00    +0.030 C 
ATOM      4  C   LIG    1       -2.991   6.003  -4.025  0.00  0.00    +0.010 C 
ATOM      5  C   LIG    1       -2.104   6.290  -2.812  0.00  0.00    +0.290 C 
ATOM      6  N   LIG    1       -2.891   7.040  -1.820  0.00  0.00    -0.600 N 
ATOM      7  C   LIG    1       -3.855   6.435  -1.125  0.00  0.00    +0.520 C 
ATOM      8  O   LIG    1       -4.494   7.061  -0.306  0.00  0.00    -0.530 OA
ENDROOT
BRANCH   1   9
ATOM      9  N   LIG    1       -2.902   4.200  -1.331  0.00  0.00    -0.670 NA
ATOM     10  H   LIG    1       -2.241   4.606  -0.686  0.00  0.00    +0.340 HD
BRANCH   9  11
ATOM     11  C   LIG    1       -3.156   2.790  -1.008  0.00  0.00    +0.250 C 
BRANCH  11  15
ATOM     12  C   LIG    1        0.512   0.689  -0.889  0.00  0.00    +0.320 A 
ATOM     13  C   LIG    1       -0.170   0.757  -2.097  0.00  0.00    -0.050 A 
ATOM     14  C   LIG    1       -1.370   1.445  -2.155  0.00  0.00    +0.120 A 
ATOM     15  C   LIG    1       -1.851   2.035  -0.995  0.00  0.00    -0.180 A 
ATOM     16  C   LIG    1       -1.119   1.928   0.172  0.00  0.00    +0.300 A 
ATOM     17  N   LIG    1        0.024   1.270   0.195  0.00  0.00    -0.540 NA
BRANCH  12  19
ATOM     18  C   LIG    1        2.345  -0.011   0.450  0.00  0.00    +0.260 C 
ATOM     19  O   LIG    1        1.692   0.022  -0.820  0.00  0.00    -0.310 OA
ENDBRANCH  12  19
ENDBRANCH  11  15
ENDBRANCH   9  11
ENDBRANCH   1   9
BRANCH   6  20
ATOM     20  C   LIG    1       -2.614   8.461  -1.595  0.00  0.00    +0.450 C 
BRANCH  20  21
ATOM     21  C   LIG    1       -1.577   8.605  -0.511  0.00  0.00    +0.160 A 
ATOM     22  N   LIG    1       -0.277   8.646  -0.674  0.00  0.00    -0.470 NA
ATOM     23  C   LIG    1        0.239   8.781   0.560  0.00  0.00    +0.170 A 
ATOM     24  N   LIG    1       -0.755   8.816   1.396  0.00  0.00    -0.380 NA
ATOM     25  C   LIG    1        1.702   8.877   0.910  0.00  0.00    +0.210 C 
ATOM     26  O   LIG    1       -1.808   8.722   0.800  0.00  0.00    +0.090 OA
ENDBRANCH  20  21
ENDBRANCH   6  20
TORSDOF 6
