REMARK  Name = ZINC9p0000006ldU.0
REMARK                            x       y       z     vdW  Elec       q    Type
REMARK                         _______ _______ _______ _____ _____    ______ ____
ROOT
ATOM      1  C   LIG    1        0.094   1.656  -1.278  0.00  0.00    +0.020 C 
ATOM      2  C   LIG    1       -1.293   1.093  -1.630  0.00  0.00    +0.090 C 
ATOM      3  C   LIG    1       -0.855   1.155  -3.105  0.00  0.00    -0.100 C 
ATOM      4  C   LIG    1       -1.308  -0.050  -3.931  0.00  0.00    +0.070 C 
ATOM      5  C   LIG    1       -1.169   2.492  -3.780  0.00  0.00    +0.060 C 
ATOM      6  C   LIG    1        0.593   1.046  -2.599  0.00  0.00    +0.090 C 
ENDROOT
BRANCH   1   7
ATOM      7  N   LIG    1        0.144   3.124  -1.252  0.00  0.00    -0.620 N 
ATOM      8  H   LIG    1       -0.557   3.474  -0.617  0.00  0.00    +0.430 HD
ATOM      9  H   LIG    1       -0.033   3.483  -2.179  0.00  0.00    +0.430 HD
ATOM     10  H   LIG    1        1.057   3.424  -0.945  0.00  0.00    +0.430 HD
ENDBRANCH   1   7
BRANCH   1  12
ATOM     11  C   LIG    1        0.129   1.668   1.220  0.00  0.00    +0.020 C 
ATOM     12  C   LIG    1        0.717   1.019  -0.035  0.00  0.00    +0.070 C 
ENDBRANCH   1  12
TORSDOF 2
