REMARK  Name = ZINCqH00000518au.0
REMARK                            x       y       z     vdW  Elec       q    Type
REMARK                         _______ _______ _______ _____ _____    ______ ____
ROOT
ATOM      1  O   LIG    1        0.002  -0.004   0.002  0.00  0.00    -0.490 OA
ATOM      2  C   LIG    1       -0.014   1.209   0.009  0.00  0.00    +0.520 C 
ATOM      3  N   LIG    1        1.143   1.898   0.001  0.00  0.00    -0.620 N 
ATOM      4  H   LIG    1        1.130   2.868   0.007  0.00  0.00    +0.430 HD
ENDROOT
BRANCH   3   5
ATOM      5  C   LIG    1        2.356   1.220  -0.014  0.00  0.00    +0.270 A 
ATOM      6  N   LIG    1        3.527   1.778  -0.027  0.00  0.00    -0.500 NA
ATOM      7  C   LIG    1        4.578   0.970  -0.037  0.00  0.00    +0.130 A 
ATOM      8  C   LIG    1        4.295  -0.345  -0.042  0.00  0.00    -0.110 A 
ATOM      9  S   LIG    1        2.543  -0.531  -0.026  0.00  0.00    +0.210 S 
BRANCH   7  10
ATOM     10  C   LIG    1        5.970   1.482  -0.048  0.00  0.00    -0.030 A 
ATOM     11  C   LIG    1        7.042   0.591  -0.057  0.00  0.00    +0.070 A 
ATOM     12  C   LIG    1        8.336   1.071  -0.071  0.00  0.00    -0.010 A 
ATOM     13  C   LIG    1        8.570   2.437  -0.066  0.00  0.00    +0.100 A 
ATOM     14  C   LIG    1        7.508   3.326  -0.051  0.00  0.00    -0.020 A 
ATOM     15  F   LIG    1        9.838   2.902  -0.074  0.00  0.00    -0.140 F 
ATOM     16  C   LIG    1        6.211   2.855  -0.042  0.00  0.00    +0.080 A 
ENDBRANCH   7  10
ENDBRANCH   3   5
BRANCH   2  17
ATOM     17  C   LIG    1       -1.330   1.944   0.019  0.00  0.00    +0.070 C 
BRANCH  17  18
ATOM     18  C   LIG    1       -2.479   0.934   0.019  0.00  0.00    +0.290 C 
BRANCH  18  19
ATOM     19  N   LIG    1       -3.757   1.649   0.029  0.00  0.00    -0.730 N 
ATOM     20  H   LIG    1       -3.771   2.619   0.034  0.00  0.00    +0.400 HD
ATOM     21  C   LIG    1       -4.915   0.960   0.031  0.00  0.00    +0.560 C 
ATOM     22  O   LIG    1       -4.899  -0.256   0.024  0.00  0.00    -0.530 OA
BRANCH  21  23
ATOM     23  C   LIG    1       -6.206   1.682   0.041  0.00  0.00    -0.140 A 
ATOM     24  C   LIG    1       -6.228   3.077   0.054  0.00  0.00    +0.040 A 
ATOM     25  C   LIG    1       -7.436   3.744   0.058  0.00  0.00    +0.000 A 
ATOM     26  C   LIG    1       -8.622   3.034   0.060  0.00  0.00    +0.040 A 
ATOM     27  C   LIG    1       -8.607   1.650   0.052  0.00  0.00    +0.000 A 
ATOM     28  C   LIG    1       -7.407   0.970   0.043  0.00  0.00    +0.080 A 
ENDBRANCH  21  23
ENDBRANCH  18  19
ENDBRANCH  17  18
ENDBRANCH   2  17
TORSDOF 6
