REMARK  Name = ZINCvU0000000JGF.0
REMARK                            x       y       z     vdW  Elec       q    Type
REMARK                         _______ _______ _______ _____ _____    ______ ____
ROOT
ATOM      1  C   LIG    1        0.577   7.670   0.038  0.00  0.00    +0.040 A 
ATOM      2  C   LIG    1       -0.778   7.632   0.050  0.00  0.00    -0.530 A 
ATOM      3  N   LIG    1       -1.150   6.343   0.046  0.00  0.00    -0.380 NA
ATOM      4  C   LIG    1       -0.074   5.593   0.032  0.00  0.00    +0.240 A 
ATOM      5  O   LIG    1        1.010   6.393   0.032  0.00  0.00    -0.180 OA
ENDROOT
BRANCH   4   6
ATOM      6  C   LIG    1       -0.054   4.117   0.024  0.00  0.00    -0.040 A 
ATOM      7  C   LIG    1        1.163   3.432   0.009  0.00  0.00    +0.080 A 
ATOM      8  C   LIG    1        1.176   2.053   0.002  0.00  0.00    +0.000 A 
ATOM      9  C   LIG    1       -0.016   1.347   0.009  0.00  0.00    +0.130 A 
ATOM     10  C   LIG    1       -1.227   2.021   0.019  0.00  0.00    +0.000 A 
ATOM     11  F   LIG    1        0.002  -0.004   0.002  0.00  0.00    -0.130 F 
ATOM     12  C   LIG    1       -1.252   3.399   0.031  0.00  0.00    +0.110 A 
ENDBRANCH   4   6
BRANCH   2  13
ATOM     13  S   LIG    1       -1.857   9.025   0.068  0.00  0.00    +2.610 S 
ATOM     14  O   LIG    1       -3.096   8.580  -0.469  0.00  0.00    -0.910 OA
ATOM     15  O   LIG    1       -1.120  10.110  -0.477  0.00  0.00    -0.910 OA
BRANCH  13  16
ATOM     16  C   LIG    1       -2.161   9.427   1.756  0.00  0.00    -0.660 A 
ATOM     17  C   LIG    1       -3.231   8.856   2.421  0.00  0.00    +0.140 A 
ATOM     18  C   LIG    1       -3.466   9.168   3.746  0.00  0.00    +0.000 A 
ATOM     19  C   LIG    1       -2.639  10.059   4.404  0.00  0.00    +0.070 A 
ATOM     20  C   LIG    1       -1.573  10.634   3.738  0.00  0.00    +0.000 A 
ATOM     21  C   LIG    1       -1.334  10.318   2.414  0.00  0.00    +0.120 A 
ENDBRANCH  13  16
ENDBRANCH   2  13
BRANCH   1  22
ATOM     22  S   LIG    1        1.583   9.117   0.037  0.00  0.00    +0.130 S 
BRANCH  22  23
ATOM     23  C   LIG    1        3.267   8.443   0.018  0.00  0.00    +0.060 C 
BRANCH  23  25
ATOM     24  O   LIG    1        3.872  10.724   0.027  0.00  0.00    -0.430 OA
ATOM     25  C   LIG    1        4.261   9.576   0.016  0.00  0.00    +0.420 C 
BRANCH  25  26
ATOM     26  C   LIG    1        5.705   9.288   0.001  0.00  0.00    -0.170 A 
ATOM     27  C   LIG    1        6.157   7.964  -0.005  0.00  0.00    +0.060 A 
ATOM     28  C   LIG    1        7.511   7.703  -0.023  0.00  0.00    +0.000 A 
ATOM     29  C   LIG    1        8.421   8.746  -0.025  0.00  0.00    +0.050 A 
ATOM     30  C   LIG    1        7.981  10.058  -0.014  0.00  0.00    +0.000 A 
ATOM     31  C   LIG    1        6.630  10.336  -0.001  0.00  0.00    +0.090 A 
ENDBRANCH  25  26
ENDBRANCH  23  25
ENDBRANCH  22  23
ENDBRANCH   1  22
TORSDOF 7
