REMARK  Name = ZINCpk00000xIb8j.0
REMARK                            x       y       z     vdW  Elec       q    Type
REMARK                         _______ _______ _______ _____ _____    ______ ____
ROOT
ATOM      1  C   LIG    1       -0.016   1.461   0.009  0.00  0.00    +0.510 C 
ATOM      2  C   LIG    1        1.430   2.017   0.001  0.00  0.00    +0.040 C 
ATOM      3  C   LIG    1        1.227   3.421   0.629  0.00  0.00    +0.040 C 
ATOM      4  C   LIG    1        0.116   3.176   1.672  0.00  0.00    +0.270 C 
ATOM      5  N   LIG    1       -0.607   1.962   1.262  0.00  0.00    -1.020 NA
ENDROOT
BRANCH   1  13
ATOM      6  C   LIG    1        0.869  -5.553  -2.476  0.00  0.00    +0.190 C 
ATOM      7  N   LIG    1        0.115  -4.533  -1.735  0.00  0.00    -0.540 NA
ATOM      8  C   LIG    1        1.012  -3.705  -0.917  0.00  0.00    +0.170 C 
ATOM      9  C   LIG    1        0.177  -2.779  -0.028  0.00  0.00    +0.270 C 
ATOM     10  N   LIG    1       -0.756  -2.027  -0.881  0.00  0.00    -0.630 N 
ATOM     11  C   LIG    1       -1.597  -2.781  -1.824  0.00  0.00    +0.320 C 
ATOM     12  C   LIG    1       -0.842  -0.685  -0.798  0.00  0.00    +0.720 C 
ATOM     13  N   LIG    1        0.001  -0.004   0.003  0.00  0.00    -0.760 N 
ATOM     14  H   LIG    1        0.619  -0.484   0.576  0.00  0.00    +0.390 HD
ATOM     15  O   LIG    1       -1.681  -0.088  -1.445  0.00  0.00    -0.550 OA
ATOM     16  C   LIG    1       -0.688  -3.707  -2.647  0.00  0.00    +0.170 C 
ENDBRANCH   1  13
BRANCH   5  17
ATOM     17  S   LIG    1       -1.875   1.274   2.075  0.00  0.00    +2.700 S 
ATOM     18  O   LIG    1       -2.601   0.516   1.117  0.00  0.00    -0.920 OA
ATOM     19  O   LIG    1       -2.461   2.308   2.854  0.00  0.00    -0.950 OA
BRANCH  17  20
ATOM     20  C   LIG    1       -1.196   0.116   3.216  0.00  0.00    -0.680 A 
ATOM     21  C   LIG    1       -1.002  -1.199   2.833  0.00  0.00    +0.130 A 
ATOM     22  C   LIG    1       -0.465  -2.107   3.726  0.00  0.00    +0.020 A 
ATOM     23  C   LIG    1       -0.131  -1.703   5.006  0.00  0.00    +0.020 A 
ATOM     24  C   LIG    1       -0.330  -0.389   5.391  0.00  0.00    +0.020 A 
ATOM     25 CL   LIG    1        0.538  -2.844   6.130  0.00  0.00    -0.050 Cl
ATOM     26  C   LIG    1       -0.863   0.520   4.495  0.00  0.00    +0.140 A 
ENDBRANCH  17  20
ENDBRANCH   5  17
TORSDOF 3
