REMARK  Name = ZINCvU0000000HfO.0
REMARK                            x       y       z     vdW  Elec       q    Type
REMARK                         _______ _______ _______ _____ _____    ______ ____
ROOT
ATOM      1  O   LIG    1       -3.241   1.544  -5.559  0.00  0.00    -0.500 OA
ATOM      2  C   LIG    1       -2.794   0.427  -5.388  0.00  0.00    +0.510 C 
ENDROOT
BRANCH   2   3
ATOM      3  C   LIG    1       -3.062  -0.635  -6.379  0.00  0.00    -0.120 A 
ATOM      4  C   LIG    1       -2.545  -1.918  -6.189  0.00  0.00    +0.090 A 
ATOM      5  C   LIG    1       -2.803  -2.906  -7.117  0.00  0.00    +0.030 A 
ATOM      6  C   LIG    1       -3.563  -2.626  -8.238  0.00  0.00    -0.040 A 
ATOM      7  C   LIG    1       -4.074  -1.355  -8.435  0.00  0.00    +0.030 A 
ATOM      8  C   LIG    1       -3.829  -0.359  -7.513  0.00  0.00    +0.090 A 
BRANCH   6   9
ATOM      9  C   LIG    1       -3.835  -3.709  -9.250  0.00  0.00    +0.120 C 
BRANCH   9  10
ATOM     10  S   LIG    1       -2.526  -3.705 -10.506  0.00  0.00    -0.080 S 
BRANCH  10  11
ATOM     11  C   LIG    1       -3.007  -5.014 -11.583  0.00  0.00    -0.090 A 
ATOM     12  C   LIG    1       -4.159  -5.744 -11.320  0.00  0.00    +0.010 A 
ATOM     13  C   LIG    1       -4.536  -6.767 -12.168  0.00  0.00    +0.050 A 
ATOM     14  C   LIG    1       -3.761  -7.072 -13.274  0.00  0.00    -0.040 A 
ATOM     15  C   LIG    1       -2.610  -6.349 -13.536  0.00  0.00    +0.050 A 
ATOM     16 CL   LIG    1       -4.233  -8.363 -14.334  0.00  0.00    -0.060 Cl
ATOM     17  C   LIG    1       -2.231  -5.322 -12.694  0.00  0.00    +0.050 A 
ENDBRANCH  10  11
ENDBRANCH   9  10
ENDBRANCH   6   9
ENDBRANCH   2   3
BRANCH   2  18
ATOM     18  O   LIG    1       -2.054   0.158  -4.295  0.00  0.00    -0.330 OA
BRANCH  18  19
ATOM     19  C   LIG    1       -1.832   1.249  -3.364  0.00  0.00    +0.270 C 
BRANCH  19  20
ATOM     20  C   LIG    1       -0.990   0.764  -2.212  0.00  0.00    +0.520 C 
ATOM     21  N   LIG    1       -0.742   1.579  -1.168  0.00  0.00    -0.550 N 
ATOM     22  C   LIG    1       -1.173   2.983  -1.198  0.00  0.00    +0.260 C 
ATOM     23  C   LIG    1       -0.011   3.842  -0.679  0.00  0.00    +0.020 C 
ATOM     24  C   LIG    1        0.270   3.466   0.775  0.00  0.00    +0.080 C 
ATOM     25  C   LIG    1        0.433   1.976   0.915  0.00  0.00    -0.110 A 
ATOM     26  C   LIG    1        1.099   1.476   2.021  0.00  0.00    +0.030 A 
ATOM     27  C   LIG    1        1.257   0.113   2.182  0.00  0.00    -0.020 A 
ATOM     28  C   LIG    1        0.751  -0.762   1.238  0.00  0.00    +0.030 A 
ATOM     29  C   LIG    1        0.088  -0.271   0.130  0.00  0.00    +0.010 A 
ATOM     30  C   LIG    1       -0.070   1.100  -0.034  0.00  0.00    +0.150 A 
ATOM     31  O   LIG    1       -0.535  -0.361  -2.225  0.00  0.00    -0.490 OA
ENDBRANCH  19  20
ENDBRANCH  18  19
ENDBRANCH   2  18
TORSDOF 7
