REMARK  Name = ZINCqH0000001n8O.0
REMARK                            x       y       z     vdW  Elec       q    Type
REMARK                         _______ _______ _______ _____ _____    ______ ____
ROOT
ATOM      1  N   LIG    1       -3.703   1.743   0.037  0.00  0.00    -0.720 N 
ATOM      2  H   LIG    1       -3.702   2.712  -0.010  0.00  0.00    +0.400 HD
ATOM      3  C   LIG    1       -2.537   1.070   0.085  0.00  0.00    +0.560 C 
ATOM      4  O   LIG    1       -2.538  -0.145   0.144  0.00  0.00    -0.530 OA
ENDROOT
BRANCH   3   5
ATOM      5  C   LIG    1       -1.259   1.806   0.066  0.00  0.00    -0.150 A 
ATOM      6  C   LIG    1       -0.048   1.109   0.116  0.00  0.00    +0.100 A 
ATOM      7  C   LIG    1        1.143   1.798   0.092  0.00  0.00    +0.000 A 
ATOM      8  C   LIG    1        1.143   3.188   0.024  0.00  0.00    +0.170 A 
ATOM      9  C   LIG    1       -0.061   3.886  -0.021  0.00  0.00    +0.010 A 
ATOM     10  C   LIG    1       -1.256   3.202   0.002  0.00  0.00    +0.070 A 
BRANCH   8  11
ATOM     11  N   LIG    1        2.348   3.882  -0.000  0.00  0.00    -1.060 N 
ATOM     12  H   LIG    1        3.053   3.651   0.624  0.00  0.00    +0.430 HD
BRANCH  11  13
ATOM     13  S   LIG    1        2.578   5.103  -1.095  0.00  0.00    +2.610 S 
ATOM     14  O   LIG    1        3.917   5.524  -0.873  0.00  0.00    -0.950 OA
ATOM     15  O   LIG    1        1.486   5.984  -0.872  0.00  0.00    -0.950 OA
ATOM     16  C   LIG    1        2.425   4.296  -2.712  0.00  0.00    -0.270 C 
ENDBRANCH  11  13
ENDBRANCH   8  11
ENDBRANCH   3   5
BRANCH   1  17
ATOM     17  C   LIG    1       -4.973   1.012   0.056  0.00  0.00    +0.290 C 
ATOM     18  C   LIG    1       -5.370   0.719   1.504  0.00  0.00    +0.040 C 
BRANCH  17  22
ATOM     19  C   LIG    1       -8.006   3.377  -1.802  0.00  0.00    -0.070 A 
ATOM     20  C   LIG    1       -7.956   2.014  -2.029  0.00  0.00    +0.010 A 
ATOM     21  C   LIG    1       -6.975   1.249  -1.428  0.00  0.00    +0.020 A 
ATOM     22  C   LIG    1       -6.043   1.847  -0.600  0.00  0.00    -0.100 A 
ATOM     23  C   LIG    1       -6.096   3.208  -0.369  0.00  0.00    +0.010 A 
ATOM     24  C   LIG    1       -7.074   3.974  -0.974  0.00  0.00    +0.010 A 
BRANCH  19  25
ATOM     25  C   LIG    1       -9.076   4.211  -2.458  0.00  0.00    +0.060 C 
BRANCH  25  27
ATOM     26  C   LIG    1       -9.946   5.015  -0.258  0.00  0.00    +0.010 C 
ATOM     27  C   LIG    1      -10.304   4.273  -1.548  0.00  0.00    -0.020 C 
ATOM     28  C   LIG    1      -11.434   5.014  -2.265  0.00  0.00    +0.020 C 
ENDBRANCH  25  27
ENDBRANCH  19  25
ENDBRANCH  17  22
ENDBRANCH   1  17
TORSDOF 7
