REMARK  Name = ZINCpe000000YTN6.0
REMARK                            x       y       z     vdW  Elec       q    Type
REMARK                         _______ _______ _______ _____ _____    ______ ____
ROOT
ATOM      1  N   LIG    1       -3.480   3.122  -0.961  0.00  0.00    -0.520 NA
ATOM      2  C   LIG    1       -3.385   1.657  -1.000  0.00  0.00    +0.170 C 
ATOM      3  C   LIG    1       -2.464   1.177   0.127  0.00  0.00    +0.280 C 
ATOM      4  N   LIG    1       -1.181   1.887   0.015  0.00  0.00    -0.630 N 
ATOM      5  C   LIG    1       -1.203   3.355  -0.082  0.00  0.00    +0.320 C 
ATOM      6  C   LIG    1       -0.014   1.212   0.009  0.00  0.00    +0.710 C 
ATOM      7  N   LIG    1       -0.017  -0.136   0.009  0.00  0.00    -0.740 N 
ATOM      8  H   LIG    1       -0.854  -0.620   0.084  0.00  0.00    +0.400 HD
ATOM      9  O   LIG    1        1.040   1.818   0.008  0.00  0.00    -0.590 OA
ATOM     10  C   LIG    1       -2.174   3.748  -1.207  0.00  0.00    +0.180 C 
ENDROOT
BRANCH   1  11
ATOM     11  C   LIG    1       -4.486   3.611  -1.913  0.00  0.00    +0.210 C 
BRANCH  11  13
ATOM     12  O   LIG    1       -4.130   5.660  -0.798  0.00  0.00    -0.520 OA
ATOM     13  C   LIG    1       -4.732   5.078  -1.675  0.00  0.00    +0.530 C 
ATOM     14  N   LIG    1       -5.623   5.744  -2.437  0.00  0.00    -0.620 N 
ATOM     15  C   LIG    1       -6.414   5.166  -3.533  0.00  0.00    +0.240 C 
ATOM     16  C   LIG    1       -7.272   6.303  -4.128  0.00  0.00    +0.030 C 
ATOM     17  C   LIG    1       -6.493   7.578  -3.711  0.00  0.00    +0.030 C 
ATOM     18  C   LIG    1       -5.960   7.174  -2.313  0.00  0.00    +0.260 C 
ENDBRANCH  11  13
ENDBRANCH   1  11
BRANCH   7  19
ATOM     19  C   LIG    1        1.246  -0.871  -0.105  0.00  0.00    +0.340 C 
BRANCH  19  20
ATOM     20  C   LIG    1        0.969  -2.352  -0.080  0.00  0.00    -0.090 A 
ATOM     21  C   LIG    1        0.955  -3.032   1.123  0.00  0.00    +0.020 A 
ATOM     22  C   LIG    1        0.697  -4.390   1.150  0.00  0.00    +0.030 A 
ATOM     23  C   LIG    1        0.463  -5.073  -0.028  0.00  0.00    -0.010 A 
ATOM     24  C   LIG    1        0.481  -4.394  -1.238  0.00  0.00    +0.100 A 
ATOM     25  C   LIG    1        0.735  -3.030  -1.261  0.00  0.00    +0.000 A 
BRANCH  24  26
ATOM     26  O   LIG    1        0.251  -5.063  -2.398  0.00  0.00    -0.500 OA
ATOM     27  H   LIG    1        1.050  -5.419  -2.811  0.00  0.00    +0.390 HD
ENDBRANCH  24  26
ENDBRANCH  19  20
ENDBRANCH   7  19
TORSDOF 5
