REMARK  Name = ZINCpk00000y6wlH.0
REMARK                            x       y       z     vdW  Elec       q    Type
REMARK                         _______ _______ _______ _____ _____    ______ ____
ROOT
ATOM      1  C   LIG    1       -6.478   1.427   5.036  0.00  0.00    +0.260 C 
ATOM      2  C   LIG    1       -7.930   1.002   4.734  0.00  0.00    +0.020 C 
ATOM      3  C   LIG    1       -7.749  -0.206   3.777  0.00  0.00    +0.030 C 
ATOM      4  C   LIG    1       -6.504   0.224   2.962  0.00  0.00    +0.190 C 
ATOM      5  N   LIG    1       -5.636   0.920   3.936  0.00  0.00    -0.510 NA
ENDROOT
BRANCH   1   8
ATOM      6  C   LIG    1       -6.110   3.146   7.592  0.00  0.00    +0.330 C 
ATOM      7  N   LIG    1       -6.225   3.662   6.226  0.00  0.00    -0.440 N 
ATOM      8  C   LIG    1       -6.387   2.930   5.100  0.00  0.00    +0.190 A 
ATOM      9  N   LIG    1       -6.445   3.740   4.075  0.00  0.00    -0.470 NA
ATOM     10  C   LIG    1       -6.333   5.000   4.506  0.00  0.00    +0.000 A 
ATOM     11  C   LIG    1       -6.349   6.267   3.688  0.00  0.00    +0.120 C 
ATOM     12  C   LIG    1       -6.602   7.450   4.631  0.00  0.00    +0.010 C 
ATOM     13  C   LIG    1       -5.638   7.373   5.818  0.00  0.00    +0.030 C 
ATOM     14  C   LIG    1       -6.026   6.191   6.716  0.00  0.00    +0.110 C 
ATOM     15  C   LIG    1       -6.191   4.970   5.849  0.00  0.00    -0.030 A 
ENDBRANCH   1   8
BRANCH   5  16
ATOM     16  C   LIG    1       -4.894   2.013   3.294  0.00  0.00    +0.180 C 
BRANCH  16  17
ATOM     17  C   LIG    1       -3.854   1.429   2.336  0.00  0.00    +0.190 C 
BRANCH  17  18
ATOM     18  O   LIG    1       -4.519   0.746   1.270  0.00  0.00    -0.550 OA
ATOM     19  H   LIG    1       -5.105   1.310   0.747  0.00  0.00    +0.370 HD
ENDBRANCH  17  18
BRANCH  17  20
ATOM     20  C   LIG    1       -2.998   2.559   1.761  0.00  0.00    +0.270 C 
BRANCH  20  21
ATOM     21  N   LIG    1       -2.003   2.000   0.844  0.00  0.00    -0.610 N 
ATOM     22  C   LIG    1       -2.219   1.807  -0.595  0.00  0.00    +0.260 C 
ATOM     23  C   LIG    1       -0.811   1.623  -1.203  0.00  0.00    +0.040 C 
ATOM     24  C   LIG    1       -0.013   1.086   0.008  0.00  0.00    +0.040 C 
ATOM     25  C   LIG    1       -0.771   1.598   1.213  0.00  0.00    +0.520 C 
ATOM     26  O   LIG    1       -0.333   1.640   2.343  0.00  0.00    -0.530 OA
ENDBRANCH  20  21
ENDBRANCH  17  20
ENDBRANCH  16  17
ENDBRANCH   5  16
TORSDOF 6
