REMARK  Name = ZINCrg00000SjSoO.0
REMARK                            x       y       z     vdW  Elec       q    Type
REMARK                         _______ _______ _______ _____ _____    ______ ____
ROOT
ATOM      1  N   LIG    1       -1.083   3.527   0.026  0.00  0.00    -0.530 NA
ATOM      2  C   LIG    1       -0.442   3.945   1.281  0.00  0.00    +0.180 C 
ATOM      3  C   LIG    1       -0.128   5.442   1.216  0.00  0.00    +0.200 C 
ATOM      4  N   LIG    1       -1.371   6.191   0.988  0.00  0.00    -0.520 NA
ATOM      5  C   LIG    1       -2.012   5.773  -0.267  0.00  0.00    +0.190 C 
ATOM      6  C   LIG    1       -2.326   4.276  -0.202  0.00  0.00    +0.200 C 
ENDROOT
BRANCH   1   7
ATOM      7  C   LIG    1       -1.331   2.079   0.020  0.00  0.00    +0.240 C 
BRANCH   7  10
ATOM      8  N   LIG    1        0.002  -0.004   0.002  0.00  0.00    -0.630 N 
ATOM      9  H   LIG    1       -0.831  -0.500   0.007  0.00  0.00    +0.430 HD
ATOM     10  C   LIG    1       -0.016   1.344   0.009  0.00  0.00    +0.510 C 
ATOM     11  O   LIG    1        1.026   1.964   0.003  0.00  0.00    -0.470 OA
BRANCH   8  16
ATOM     12  C   LIG    1        4.871  -0.782  -0.048  0.00  0.00    +0.190 C 
ATOM     13  C   LIG    1        3.389  -1.057  -0.036  0.00  0.00    -0.010 A 
ATOM     14  C   LIG    1        2.829  -2.275  -0.037  0.00  0.00    -0.120 A 
ATOM     15  C   LIG    1        1.374  -2.055  -0.017  0.00  0.00    -0.170 A 
ATOM     16  C   LIG    1        1.210  -0.680  -0.013  0.00  0.00    +0.320 A 
ATOM     17  C   LIG    1        3.545  -3.601  -0.051  0.00  0.00    +0.140 C 
ATOM     18  O   LIG    1        2.427  -0.119  -0.021  0.00  0.00    -0.150 OA
BRANCH  15  19
ATOM     19  C   LIG    1        0.346  -3.052  -0.005  0.00  0.00    +0.280 C 
ATOM     20  N   LIG    1       -0.470  -3.843   0.004  0.00  0.00    -0.420 NA
ENDBRANCH  15  19
ENDBRANCH   8  16
ENDBRANCH   7  10
ENDBRANCH   1   7
BRANCH   4  21
ATOM     21  C   LIG    1       -1.123   7.639   0.994  0.00  0.00    +0.210 C 
BRANCH  21  22
ATOM     22  C   LIG    1       -0.697   8.069   2.374  0.00  0.00    +0.510 C 
ATOM     23  N   LIG    1       -0.414   9.364   2.619  0.00  0.00    -0.730 N 
ATOM     24  H   LIG    1       -0.484  10.019   1.907  0.00  0.00    +0.400 HD
ATOM     25  O   LIG    1       -0.610   7.250   3.265  0.00  0.00    -0.520 OA
BRANCH  23  26
ATOM     26  C   LIG    1        0.000   9.782   3.961  0.00  0.00    +0.260 C 
BRANCH  26  27
ATOM     27  C   LIG    1        0.259  11.290   3.968  0.00  0.00    -0.030 C 
ATOM     28  C   LIG    1        0.810  11.706   5.333  0.00  0.00    +0.030 C 
ATOM     29  C   LIG    1       -1.050  12.034   3.698  0.00  0.00    +0.020 C 
ENDBRANCH  26  27
ENDBRANCH  23  26
ENDBRANCH  21  22
ENDBRANCH   4  21
TORSDOF 8
