REMARK  Name = ZINCrH000004krcr.0
REMARK                            x       y       z     vdW  Elec       q    Type
REMARK                         _______ _______ _______ _____ _____    ______ ____
ROOT
ATOM      1  N   LIG    1        3.161   3.380  -0.011  0.00  0.00    -0.720 N 
ATOM      2  H   LIG    1        3.775   2.630  -0.020  0.00  0.00    +0.390 HD
ATOM      3  C   LIG    1        1.831   3.162   0.001  0.00  0.00    +0.600 C 
ATOM      4  O   LIG    1        1.060   4.103   0.013  0.00  0.00    -0.500 OA
ENDROOT
BRANCH   3   5
ATOM      5  C   LIG    1        1.311   1.785  -0.001  0.00  0.00    -0.040 A 
ATOM      6  C   LIG    1       -0.017   1.403   0.010  0.00  0.00    +0.040 A 
ATOM      7  C   LIG    1        0.002  -0.004   0.002  0.00  0.00    +0.070 A 
ATOM      8  N   LIG    1        1.262  -0.384  -0.012  0.00  0.00    -0.250 NA
ATOM      9  N   LIG    1        2.046   0.633  -0.014  0.00  0.00    -0.370 N 
ATOM     10  H   LIG    1        3.015   0.590  -0.023  0.00  0.00    +0.440 HD
BRANCH   7  11
ATOM     11  C   LIG    1       -1.184  -0.897   0.009  0.00  0.00    -0.010 A 
ATOM     12  C   LIG    1       -2.467  -0.355   0.029  0.00  0.00    +0.030 A 
ATOM     13  C   LIG    1       -3.566  -1.190   0.029  0.00  0.00    +0.010 A 
ATOM     14  C   LIG    1       -3.395  -2.563   0.020  0.00  0.00    +0.010 A 
ATOM     15  C   LIG    1       -2.123  -3.106   0.006  0.00  0.00    +0.010 A 
ATOM     16  C   LIG    1       -1.017  -2.280  -0.001  0.00  0.00    +0.040 A 
ENDBRANCH   7  11
ENDBRANCH   3   5
BRANCH   1  17
ATOM     17  C   LIG    1        3.679   4.751  -0.009  0.00  0.00    +0.320 C 
BRANCH  17  18
ATOM     18  C   LIG    1        3.727   5.271  -1.422  0.00  0.00    -0.090 A 
ATOM     19  C   LIG    1        3.727   4.387  -2.485  0.00  0.00    +0.040 A 
ATOM     20  C   LIG    1        3.767   4.865  -3.782  0.00  0.00    +0.020 A 
ATOM     21  C   LIG    1        3.817   6.226  -4.016  0.00  0.00    +0.040 A 
ATOM     22  C   LIG    1        3.822   7.111  -2.954  0.00  0.00    +0.040 A 
ATOM     23  C   LIG    1        3.777   6.634  -1.657  0.00  0.00    -0.020 A 
ATOM     24 CL   LIG    1        3.784   7.745  -0.323  0.00  0.00    -0.060 Cl
ENDBRANCH  17  18
BRANCH  17  25
ATOM     25  C   LIG    1        5.087   4.763   0.588  0.00  0.00    +0.130 C 
BRANCH  25  26
ATOM     26  C   LIG    1        5.022   4.360   2.038  0.00  0.00    +0.460 C 
ATOM     27  O   LIG    1        3.958   4.090   2.543  0.00  0.00    -0.490 OA
BRANCH  26  29
ATOM     28  C   LIG    1        6.008   3.904   4.159  0.00  0.00    +0.270 C 
ATOM     29  O   LIG    1        6.146   4.300   2.769  0.00  0.00    -0.360 OA
ENDBRANCH  26  29
ENDBRANCH  25  26
ENDBRANCH  17  25
ENDBRANCH   1  17
TORSDOF 7
