REMARK  Name = ZINCtV000002Miqn.0
REMARK                            x       y       z     vdW  Elec       q    Type
REMARK                         _______ _______ _______ _____ _____    ______ ____
ROOT
ATOM      1  O   LIG    1       -0.157   8.464   0.050  0.00  0.00    -0.430 OA
ATOM      2  C   LIG    1        0.970   8.016   0.037  0.00  0.00    +0.510 C 
ATOM      3  N   LIG    1        2.028   8.852   0.032  0.00  0.00    -0.630 N 
ATOM      4  H   LIG    1        2.929   8.493   0.022  0.00  0.00    +0.430 HD
ENDROOT
BRANCH   3   5
ATOM      5  C   LIG    1        1.827  10.225   0.042  0.00  0.00    +0.300 A 
ATOM      6  N   LIG    1        0.669  10.808   0.050  0.00  0.00    -0.440 NA
ATOM      7  C   LIG    1        0.656  12.132   0.062  0.00  0.00    +0.190 A 
ATOM      8  C   LIG    1        1.901  12.719   0.054  0.00  0.00    -0.160 A 
ATOM      9  S   LIG    1        3.107  11.434   0.037  0.00  0.00    +0.170 S 
BRANCH   8  10
ATOM     10  C   LIG    1        2.176  14.160   0.059  0.00  0.00    +0.060 A 
ATOM     11  C   LIG    1        3.412  14.741   0.057  0.00  0.00    -0.030 A 
ATOM     12  C   LIG    1        3.204  16.134   0.061  0.00  0.00    -0.060 A 
ATOM     13  C   LIG    1        1.872  16.336   0.074  0.00  0.00    +0.190 A 
ATOM     14  O   LIG    1        1.254  15.142   0.072  0.00  0.00    -0.150 OA
ENDBRANCH   8  10
BRANCH   7  15
ATOM     15  C   LIG    1       -0.592  12.915   0.077  0.00  0.00    +0.030 A 
ATOM     16  C   LIG    1       -1.755  12.579  -0.547  0.00  0.00    +0.000 A 
ATOM     17  C   LIG    1       -2.678  13.606  -0.268  0.00  0.00    -0.070 A 
ATOM     18  C   LIG    1       -2.042  14.510   0.503  0.00  0.00    +0.190 A 
ATOM     19  O   LIG    1       -0.784  14.086   0.715  0.00  0.00    -0.150 OA
ENDBRANCH   7  15
ENDBRANCH   3   5
BRANCH   2  20
ATOM     20  C   LIG    1        1.188   6.525   0.027  0.00  0.00    +0.260 C 
BRANCH  20  21
ATOM     21  O   LIG    1       -0.076   5.859   0.034  0.00  0.00    -0.270 OA
BRANCH  21  22
ATOM     22  C   LIG    1       -0.058   4.500   0.026  0.00  0.00    +0.160 A 
ATOM     23  C   LIG    1        1.152   3.822   0.012  0.00  0.00    -0.020 A 
ATOM     24  C   LIG    1        1.169   2.439   0.004  0.00  0.00    +0.010 A 
ATOM     25  C   LIG    1       -0.021   1.732   0.012  0.00  0.00    -0.060 A 
ATOM     26  C   LIG    1       -1.230   2.406   0.021  0.00  0.00    +0.110 A 
ATOM     27 CL   LIG    1        0.002  -0.004   0.002  0.00  0.00    -0.030 Cl
ATOM     28 CL   LIG    1        2.683   1.590  -0.014  0.00  0.00    -0.030 Cl
ATOM     29  C   LIG    1       -1.250   3.788   0.033  0.00  0.00    -0.050 A 
ATOM     30 CL   LIG    1       -2.766   4.634   0.052  0.00  0.00    -0.020 Cl
ENDBRANCH  21  22
ENDBRANCH  20  21
ENDBRANCH   2  20
TORSDOF 6
