REMARK  Name = ZINCrD000000fKYq.0
REMARK                            x       y       z     vdW  Elec       q    Type
REMARK                         _______ _______ _______ _____ _____    ______ ____
ROOT
ATOM      1  C   LIG    1        1.157   3.389   0.085  0.00  0.00    +0.550 C 
ATOM      2  N   LIG    1        0.065   4.102  -0.587  0.00  0.00    -0.750 N 
ATOM      3  H   LIG    1        0.249   4.854  -1.172  0.00  0.00    +0.410 HD
ATOM      4  C   LIG    1       -1.240   3.677  -0.367  0.00  0.00    +0.240 A 
ATOM      5  C   LIG    1       -2.314   4.549  -0.416  0.00  0.00    -0.050 A 
ATOM      6  C   LIG    1       -3.591   4.075  -0.184  0.00  0.00    +0.080 A 
ATOM      7  C   LIG    1       -3.805   2.735   0.096  0.00  0.00    -0.040 A 
ATOM      8  C   LIG    1       -2.747   1.852   0.146  0.00  0.00    +0.110 A 
ATOM      9  C   LIG    1       -1.454   2.315  -0.093  0.00  0.00    -0.200 A 
ATOM     10  C   LIG    1       -0.288   1.414  -0.051  0.00  0.00    +0.580 C 
ATOM     11  O   LIG    1       -0.443   0.208  -0.060  0.00  0.00    -0.530 OA
ATOM     12  N   LIG    1        0.952   1.943  -0.008  0.00  0.00    -0.610 N 
ENDROOT
BRANCH   1  16
ATOM     13  C   LIG    1        1.266   4.540   4.200  0.00  0.00    +0.150 A 
ATOM     14  C   LIG    1        0.799   5.429   3.240  0.00  0.00    +0.010 A 
ATOM     15  C   LIG    1        0.765   5.054   1.912  0.00  0.00    +0.060 A 
ATOM     16  C   LIG    1        1.196   3.795   1.536  0.00  0.00    -0.140 A 
ATOM     17  C   LIG    1        1.657   2.905   2.489  0.00  0.00    +0.050 A 
ATOM     18  C   LIG    1        1.698   3.276   3.819  0.00  0.00    -0.020 A 
BRANCH  13  21
ATOM     19  C   LIG    1        0.463   6.245   7.457  0.00  0.00    +0.110 C 
ATOM     20  C   LIG    1        0.359   5.745   6.040  0.00  0.00    +0.510 C 
ATOM     21  N   LIG    1        1.301   4.916   5.547  0.00  0.00    -0.680 N 
ATOM     22  H   LIG    1        2.003   4.581   6.126  0.00  0.00    +0.410 HD
ATOM     23  O   LIG    1       -0.572   6.088   5.342  0.00  0.00    -0.520 OA
ENDBRANCH  13  21
ENDBRANCH   1  16
BRANCH  12  24
ATOM     24  C   LIG    1        2.115   1.054  -0.056  0.00  0.00    +0.320 C 
BRANCH  24  25
ATOM     25  C   LIG    1        2.531   0.836  -1.512  0.00  0.00    +0.130 C 
ATOM     26  C   LIG    1        3.702  -0.168  -1.593  0.00  0.00    +0.010 C 
ATOM     27  C   LIG    1        4.587   0.378  -2.735  0.00  0.00    +0.010 C 
ATOM     28  C   LIG    1        3.846   1.647  -3.210  0.00  0.00    +0.200 C 
ATOM     29  O   LIG    1        3.051   2.059  -2.075  0.00  0.00    -0.370 OA
ENDBRANCH  24  25
ENDBRANCH  12  24
TORSDOF 4
