REMARK  Name = ZINCvU00000007RS.0
REMARK                            x       y       z     vdW  Elec       q    Type
REMARK                         _______ _______ _______ _____ _____    ______ ____
ROOT
ATOM      1  O   LIG    1        0.006  -0.017  -0.039  0.00  0.00    -0.440 OA
ATOM      2  C   LIG    1       -0.014   1.198  -0.069  0.00  0.00    +0.560 C 
ATOM      3  N   LIG    1       -1.192   1.853  -0.100  0.00  0.00    -0.630 N 
ATOM      4  H   LIG    1       -1.207   2.822  -0.124  0.00  0.00    +0.410 HD
ENDROOT
BRANCH   2   5
ATOM      5  C   LIG    1        1.257   1.959  -0.078  0.00  0.00    -0.030 A 
ATOM      6  C   LIG    1        1.256   3.358  -0.118  0.00  0.00    -0.010 A 
ATOM      7  C   LIG    1        2.463   4.031  -0.119  0.00  0.00    +0.220 A 
ATOM      8  N   LIG    1        3.607   3.374  -0.094  0.00  0.00    -0.510 NA
ATOM      9  C   LIG    1        3.654   2.052  -0.061  0.00  0.00    +0.340 A 
ATOM     10 CL   LIG    1        2.474   5.766  -0.162  0.00  0.00    -0.010 Cl
ATOM     11  C   LIG    1        2.488   1.300  -0.052  0.00  0.00    +0.050 A 
BRANCH   9  12
ATOM     12  O   LIG    1        4.857   1.425  -0.037  0.00  0.00    -0.230 OA
BRANCH  12  13
ATOM     13  C   LIG    1        5.976   2.188  -0.148  0.00  0.00    +0.090 A 
ATOM     14  C   LIG    1        6.669   2.234  -1.349  0.00  0.00    +0.040 A 
ATOM     15  C   LIG    1        7.804   3.013  -1.462  0.00  0.00    +0.040 A 
ATOM     16  C   LIG    1        8.256   3.740  -0.374  0.00  0.00    -0.030 A 
ATOM     17  C   LIG    1        7.569   3.691   0.826  0.00  0.00    +0.040 A 
ATOM     18 CL   LIG    1        9.686   4.713  -0.516  0.00  0.00    -0.060 Cl
ATOM     19  C   LIG    1        6.431   2.917   0.941  0.00  0.00    +0.040 A 
ENDBRANCH  12  13
ENDBRANCH   9  12
ENDBRANCH   2   5
BRANCH   3  20
ATOM     20  C   LIG    1       -2.382   1.139  -0.098  0.00  0.00    +0.430 A 
ATOM     21  N   LIG    1       -2.494  -0.168  -0.073  0.00  0.00    -0.460 NA
ATOM     22  C   LIG    1       -3.794  -0.502  -0.075  0.00  0.00    +0.170 A 
ATOM     23  C   LIG    1       -4.521   0.628  -0.112  0.00  0.00    +0.130 A 
ATOM     24  N   LIG    1       -3.632   1.676  -0.127  0.00  0.00    -0.470 N 
BRANCH  24  25
ATOM     25  C   LIG    1       -3.966   3.102  -0.166  0.00  0.00    +0.360 C 
BRANCH  25  26
ATOM     26  C   LIG    1       -3.942   3.585  -1.593  0.00  0.00    -0.130 A 
ATOM     27  C   LIG    1       -2.773   4.086  -2.133  0.00  0.00    +0.050 A 
ATOM     28  C   LIG    1       -2.748   4.524  -3.444  0.00  0.00    -0.010 A 
ATOM     29  C   LIG    1       -3.899   4.471  -4.212  0.00  0.00    +0.110 A 
ATOM     30  C   LIG    1       -5.071   3.974  -3.669  0.00  0.00    -0.010 A 
ATOM     31  F   LIG    1       -3.878   4.904  -5.492  0.00  0.00    -0.130 F 
ATOM     32  C   LIG    1       -5.091   3.531  -2.360  0.00  0.00    +0.080 A 
ENDBRANCH  25  26
ENDBRANCH  24  25
ENDBRANCH   3  20
TORSDOF 6
