REMARK  Name = ZINCrD00000F5Lnb.0
REMARK                            x       y       z     vdW  Elec       q    Type
REMARK                         _______ _______ _______ _____ _____    ______ ____
ROOT
ATOM      1  C   LIG    1       -0.168   1.193  -1.093  0.00  0.00    +0.470 C 
ATOM      2  O   LIG    1       -1.268   1.638  -1.366  0.00  0.00    -0.410 OA
ENDROOT
BRANCH   1   7
ATOM      3  C   LIG    1        2.428   3.470  -2.313  0.00  0.00    -0.220 A 
ATOM      4  C   LIG    1        3.178   2.461  -1.737  0.00  0.00    +0.130 A 
ATOM      5  N   LIG    1        2.338   1.542  -1.234  0.00  0.00    -0.530 N 
ATOM      6  H   LIG    1        2.603   0.732  -0.772  0.00  0.00    +0.420 HD
ATOM      7  C   LIG    1        1.040   1.931  -1.482  0.00  0.00    -0.090 A 
ATOM      8  C   LIG    1        4.683   2.405  -1.678  0.00  0.00    +0.160 C 
ATOM      9  C   LIG    1        1.068   3.124  -2.145  0.00  0.00    -0.010 A 
ATOM     10  C   LIG    1       -0.124   3.919  -2.611  0.00  0.00    +0.140 C 
BRANCH   3  11
ATOM     11  C   LIG    1        2.948   4.678  -2.977  0.00  0.00    +0.550 C 
ATOM     12  O   LIG    1        3.146   5.688  -2.331  0.00  0.00    -0.500 OA
BRANCH  11  13
ATOM     13  O   LIG    1        3.205   4.662  -4.300  0.00  0.00    -0.350 OA
BRANCH  13  15
ATOM     14  C   LIG    1        3.945   5.678  -6.385  0.00  0.00    +0.070 C 
ATOM     15  C   LIG    1        3.716   5.887  -4.887  0.00  0.00    +0.200 C 
ENDBRANCH  13  15
ENDBRANCH  11  13
ENDBRANCH   3  11
ENDBRANCH   1   7
BRANCH   1  16
ATOM     16  C   LIG    1       -0.049  -0.087  -0.378  0.00  0.00    -0.170 C 
ATOM     17  C   LIG    1       -1.177  -0.710   0.114  0.00  0.00    +0.250 C 
BRANCH  17  18
ATOM     18  C   LIG    1       -2.457   0.000   0.130  0.00  0.00    -0.080 A 
ATOM     19  C   LIG    1       -3.629  -0.652  -0.277  0.00  0.00    +0.050 A 
ATOM     20  C   LIG    1       -4.831   0.019  -0.261  0.00  0.00    +0.020 A 
ATOM     21  C   LIG    1       -4.886   1.342   0.159  0.00  0.00    +0.110 A 
ATOM     22  C   LIG    1       -3.724   2.000   0.566  0.00  0.00    +0.100 A 
ATOM     23  C   LIG    1       -2.516   1.335   0.558  0.00  0.00    +0.010 A 
BRANCH  22  24
ATOM     24  O   LIG    1       -3.785   3.295   0.976  0.00  0.00    -0.300 OA
ATOM     25  C   LIG    1       -2.557   3.906   1.378  0.00  0.00    +0.230 C 
ENDBRANCH  22  24
BRANCH  21  26
ATOM     26  O   LIG    1       -6.075   1.998   0.173  0.00  0.00    -0.480 OA
ATOM     27  H   LIG    1       -6.557   1.919   1.008  0.00  0.00    +0.390 HD
ENDBRANCH  21  26
ENDBRANCH  17  18
BRANCH  16  28
ATOM     28  C   LIG    1        1.238  -0.687  -0.192  0.00  0.00    +0.260 C 
ATOM     29  N   LIG    1        2.259  -1.162  -0.044  0.00  0.00    -0.400 NA
ENDBRANCH  16  28
ENDBRANCH   1  16
TORSDOF 9
