REMARK  Name = ZINCrD0000075LNb.0
REMARK                            x       y       z     vdW  Elec       q    Type
REMARK                         _______ _______ _______ _____ _____    ______ ____
ROOT
ATOM      1  C   LIG    1        3.937   6.586   2.631  0.00  0.00    +0.140 A 
ATOM      2  C   LIG    1        4.382   6.206   1.371  0.00  0.00    +0.040 A 
ATOM      3  C   LIG    1        3.475   5.825   0.399  0.00  0.00    +0.040 A 
ATOM      4  C   LIG    1        2.123   5.817   0.675  0.00  0.00    +0.050 A 
ATOM      5  C   LIG    1        1.666   6.203   1.937  0.00  0.00    -0.110 A 
ATOM      6  C   LIG    1        2.581   6.586   2.917  0.00  0.00    +0.020 A 
ENDROOT
BRANCH   5   7
ATOM      7  C   LIG    1        0.218   6.200   2.234  0.00  0.00    +0.560 C 
ATOM      8  N   LIG    1       -0.349   7.265   2.833  0.00  0.00    -0.600 N 
ATOM      9  C   LIG    1        0.488   8.375   3.275  0.00  0.00    +0.260 C 
ATOM     10  C   LIG    1        0.469   8.541   4.788  0.00  0.00    +0.020 C 
ATOM     11  C   LIG    1       -0.942   8.894   5.266  0.00  0.00    +0.080 C 
ATOM     12  C   LIG    1       -1.707   7.616   5.508  0.00  0.00    -0.070 A 
ATOM     13  C   LIG    1       -2.008   7.226   6.800  0.00  0.00    +0.000 A 
ATOM     14  C   LIG    1       -2.680   6.038   7.021  0.00  0.00    +0.010 A 
ATOM     15  C   LIG    1       -3.064   5.248   5.954  0.00  0.00    +0.000 A 
ATOM     16  C   LIG    1       -2.778   5.647   4.660  0.00  0.00    +0.040 A 
ATOM     17  C   LIG    1       -2.103   6.832   4.445  0.00  0.00    -0.110 A 
ATOM     18  C   LIG    1       -1.802   7.296   3.036  0.00  0.00    +0.340 C 
ATOM     19  O   LIG    1       -0.461   5.236   1.937  0.00  0.00    -0.520 OA
ENDBRANCH   5   7
BRANCH   1  22
ATOM     20  O   LIG    1        6.219   7.844   2.093  0.00  0.00    -0.500 OA
ATOM     21  C   LIG    1        5.973   7.643   3.264  0.00  0.00    +0.500 C 
ATOM     22  N   LIG    1        4.859   6.969   3.612  0.00  0.00    -0.670 N 
ATOM     23  H   LIG    1        4.696   6.750   4.543  0.00  0.00    +0.410 HD
BRANCH  21  24
ATOM     24  C   LIG    1        6.913   8.147   4.329  0.00  0.00    +0.180 C 
ATOM     25  C   LIG    1        6.210   9.226   5.179  0.00  0.00    +0.030 C 
ATOM     26  C   LIG    1        7.349  10.256   5.412  0.00  0.00    +0.030 C 
ATOM     27  C   LIG    1        8.124  10.144   4.075  0.00  0.00    +0.210 C 
ATOM     28  O   LIG    1        8.057   8.755   3.718  0.00  0.00    -0.350 OA
ENDBRANCH  21  24
ENDBRANCH   1  22
TORSDOF 3
