REMARK  Name = ZINCrD00000F5LIG.0
REMARK                            x       y       z     vdW  Elec       q    Type
REMARK                         _______ _______ _______ _____ _____    ______ ____
ROOT
ATOM      1  N   LIG    1       -2.056   1.823   1.353  0.00  0.00    -0.400 N 
ATOM      2  C   LIG    1       -0.718   1.572   1.248  0.00  0.00    +0.030 A 
ATOM      3  C   LIG    1       -0.131   1.835   2.430  0.00  0.00    -0.010 A 
ATOM      4  C   LIG    1       -1.194   2.278   3.336  0.00  0.00    -0.160 A 
ATOM      5  C   LIG    1       -0.013   1.086   0.008  0.00  0.00    +0.130 C 
ATOM      6  C   LIG    1       -2.352   2.245   2.613  0.00  0.00    +0.100 A 
ATOM      7  C   LIG    1       -3.722   2.617   3.120  0.00  0.00    +0.150 C 
ENDROOT
BRANCH   1  11
ATOM      8  C   LIG    1       -4.828   1.358  -1.729  0.00  0.00    +0.140 A 
ATOM      9  C   LIG    1       -4.166   0.250  -1.219  0.00  0.00    +0.000 A 
ATOM     10  C   LIG    1       -3.248   0.404  -0.199  0.00  0.00    +0.070 A 
ATOM     11  C   LIG    1       -2.988   1.667   0.317  0.00  0.00    +0.070 A 
ATOM     12  C   LIG    1       -3.655   2.773  -0.190  0.00  0.00    +0.070 A 
ATOM     13  C   LIG    1       -4.568   2.620  -1.214  0.00  0.00    -0.060 A 
BRANCH   8  14
ATOM     14  O   LIG    1       -5.731   1.206  -2.733  0.00  0.00    -0.310 OA
BRANCH  14  16
ATOM     15  C   LIG    1       -7.351   2.022  -4.331  0.00  0.00    +0.070 C 
ATOM     16  C   LIG    1       -6.376   2.389  -3.210  0.00  0.00    +0.180 C 
ENDBRANCH  14  16
ENDBRANCH   8  14
ENDBRANCH   1  11
BRANCH   4  17
ATOM     17  C   LIG    1       -1.044   2.680   4.747  0.00  0.00    +0.290 C 
ATOM     18  N   LIG    1       -2.083   3.051   5.430  0.00  0.00    -0.230 NA
BRANCH  18  19
ATOM     19  N   LIG    1       -1.941   3.433   6.771  0.00  0.00    -0.560 N 
ATOM     20  H   LIG    1       -1.065   3.419   7.188  0.00  0.00    +0.400 HD
BRANCH  19  21
ATOM     21  C   LIG    1       -3.037   3.825   7.491  0.00  0.00    +0.660 A 
ATOM     22  N   LIG    1       -4.221   3.844   6.911  0.00  0.00    -0.560 NA
ATOM     23  C   LIG    1       -5.312   4.213   7.577  0.00  0.00    +0.220 A 
ATOM     24  C   LIG    1       -5.221   4.593   8.885  0.00  0.00    -0.200 A 
ATOM     25  C   LIG    1       -3.962   4.581   9.510  0.00  0.00    +0.540 A 
ATOM     26  O   LIG    1       -3.844   4.915  10.678  0.00  0.00    -0.540 OA
ATOM     27  C   LIG    1       -6.650   4.218   6.884  0.00  0.00    +0.140 C 
ATOM     28  N   LIG    1       -2.885   4.194   8.793  0.00  0.00    -0.650 N 
ATOM     29  H   LIG    1       -2.006   4.177   9.205  0.00  0.00    +0.410 HD
ENDBRANCH  19  21
ENDBRANCH  18  19
ENDBRANCH   4  17
TORSDOF 6
