REMARK  Name = ZINCrH00000tj15f.0
REMARK                            x       y       z     vdW  Elec       q    Type
REMARK                         _______ _______ _______ _____ _____    ______ ____
ROOT
ATOM      1  N   LIG    1        3.720   3.829  -1.770  0.00  0.00    -1.000 NA
ATOM      2  C   LIG    1        4.758   3.391  -2.716  0.00  0.00    +0.310 C 
ATOM      3  C   LIG    1        4.067   2.708  -3.907  0.00  0.00    +0.170 C 
ATOM      4  N   LIG    1        3.059   3.618  -4.469  0.00  0.00    -0.520 NA
ATOM      5  C   LIG    1        1.998   3.904  -3.494  0.00  0.00    +0.170 C 
ATOM      6  C   LIG    1        2.601   4.631  -2.287  0.00  0.00    +0.310 C 
ENDROOT
BRANCH   1   8
ATOM      7  O   LIG    1        3.052   4.411   0.533  0.00  0.00    -0.950 OA
ATOM      8  S   LIG    1        3.813   3.434  -0.164  0.00  0.00    +2.710 S 
ATOM      9  O   LIG    1        5.184   3.178   0.107  0.00  0.00    -0.950 OA
BRANCH   8  10
ATOM     10  C   LIG    1        2.969   1.902   0.046  0.00  0.00    -0.800 A 
ATOM     11  C   LIG    1        3.531   0.696  -0.047  0.00  0.00    +0.160 A 
ATOM     12  C   LIG    1        2.668  -0.367   0.157  0.00  0.00    -0.010 A 
ATOM     13  C   LIG    1        1.405  -0.024   0.417  0.00  0.00    +0.000 A 
ATOM     14  S   LIG    1        1.258   1.729   0.412  0.00  0.00    +0.210 S 
ENDBRANCH   8  10
ENDBRANCH   1   8
BRANCH   4  15
ATOM     15  C   LIG    1        2.498   3.077  -5.714  0.00  0.00    +0.250 C 
BRANCH  15  16
ATOM     16  C   LIG    1        1.867   4.192  -6.507  0.00  0.00    -0.110 A 
ATOM     17  C   LIG    1        2.665   5.087  -7.163  0.00  0.00    +0.160 A 
ATOM     18  C   LIG    1        2.075   6.128  -7.909  0.00  0.00    -0.070 A 
ATOM     19  C   LIG    1        2.860   7.063  -8.601  0.00  0.00    +0.050 A 
ATOM     20  C   LIG    1        2.256   8.059  -9.306  0.00  0.00    +0.020 A 
ATOM     21  C   LIG    1        0.868   8.165  -9.353  0.00  0.00    +0.030 A 
ATOM     22  C   LIG    1        0.075   7.276  -8.694  0.00  0.00    +0.020 A 
ATOM     23  C   LIG    1        0.663   6.235  -7.955  0.00  0.00    -0.030 A 
ATOM     24  C   LIG    1       -0.123   5.297  -7.262  0.00  0.00    -0.040 A 
ATOM     25 CL   LIG    1       -1.855   5.410  -7.305  0.00  0.00    -0.060 Cl
ATOM     26  C   LIG    1        0.480   4.301  -6.555  0.00  0.00    +0.050 A 
BRANCH  17  27
ATOM     27  O   LIG    1        4.017   4.970  -7.101  0.00  0.00    -0.480 OA
ATOM     28  H   LIG    1        4.396   4.421  -7.800  0.00  0.00    +0.390 HD
ENDBRANCH  17  27
ENDBRANCH  15  16
ENDBRANCH   4  15
TORSDOF 5
