REMARK  Name = ZINCrH000004pOSx.0
REMARK                            x       y       z     vdW  Elec       q    Type
REMARK                         _______ _______ _______ _____ _____    ______ ____
ROOT
ATOM      1  C   LIG    1       -7.074  -4.327  -0.958  0.00  0.00    +0.520 C 
ATOM      2  N   LIG    1       -6.431  -3.814  -2.026  0.00  0.00    -0.670 N 
ATOM      3  H   LIG    1       -6.793  -3.942  -2.917  0.00  0.00    +0.410 HD
ATOM      4  O   LIG    1       -6.668  -4.097   0.162  0.00  0.00    -0.500 OA
ENDROOT
BRANCH   2   5
ATOM      5  C   LIG    1       -5.241  -3.097  -1.850  0.00  0.00    +0.100 A 
ATOM      6  C   LIG    1       -5.071  -2.298  -0.727  0.00  0.00    +0.070 A 
ATOM      7  C   LIG    1       -3.898  -1.591  -0.555  0.00  0.00    +0.000 A 
ATOM      8  C   LIG    1       -2.889  -1.679  -1.502  0.00  0.00    +0.120 A 
ATOM      9  C   LIG    1       -3.060  -2.473  -2.627  0.00  0.00    -0.060 A 
ATOM     10  C   LIG    1       -4.230  -3.185  -2.798  0.00  0.00    +0.030 A 
BRANCH   8  11
ATOM     11  O   LIG    1       -1.734  -0.982  -1.332  0.00  0.00    -0.310 OA
BRANCH  11  12
ATOM     12  C   LIG    1       -0.737  -1.119  -2.347  0.00  0.00    +0.240 C 
BRANCH  12  13
ATOM     13  C   LIG    1        0.463  -0.281  -1.990  0.00  0.00    -0.100 A 
ATOM     14  C   LIG    1        1.486  -0.824  -1.236  0.00  0.00    +0.020 A 
ATOM     15  C   LIG    1        2.587  -0.056  -0.908  0.00  0.00    +0.010 A 
ATOM     16  C   LIG    1        2.664   1.258  -1.333  0.00  0.00    +0.020 A 
ATOM     17  C   LIG    1        1.641   1.801  -2.087  0.00  0.00    +0.010 A 
ATOM     18  C   LIG    1        0.541   1.032  -2.416  0.00  0.00    +0.020 A 
ENDBRANCH  12  13
ENDBRANCH  11  12
ENDBRANCH   8  11
ENDBRANCH   2   5
BRANCH   1  19
ATOM     19  C   LIG    1       -8.296  -5.186  -1.155  0.00  0.00    +0.180 C 
ATOM     20  C   LIG    1       -7.927  -6.415  -1.989  0.00  0.00    +0.020 C 
BRANCH  19  24
ATOM     21  C   LIG    1       -7.354  -7.708   2.966  0.00  0.00    +0.060 C 
ATOM     22  C   LIG    1       -8.356  -6.802   2.247  0.00  0.00    +0.160 C 
ATOM     23  C   LIG    1       -7.807  -6.425   0.869  0.00  0.00    +0.160 C 
ATOM     24  N   LIG    1       -8.806  -5.618   0.153  0.00  0.00    -0.510 NA
ATOM     25  C   LIG    1      -10.067  -6.360   0.008  0.00  0.00    +0.160 C 
ATOM     26  C   LIG    1      -10.593  -6.739   1.395  0.00  0.00    +0.160 C 
ATOM     27  C   LIG    1      -11.863  -7.579   1.248  0.00  0.00    +0.060 C 
ATOM     28  O   LIG    1       -9.597  -7.495   2.087  0.00  0.00    -0.380 OA
ENDBRANCH  19  24
ENDBRANCH   1  19
TORSDOF 6
