REMARK  Name = ZINCc70000001zDO.0
REMARK                            x       y       z     vdW  Elec       q    Type
REMARK                         _______ _______ _______ _____ _____    ______ ____
ROOT
ATOM      1  C   LIG    1        0.002  -0.004   0.002  0.00  0.00    +0.260 A 
ATOM      2  N   LIG    1        1.078  -0.755  -0.018  0.00  0.00    -0.310 NA
ATOM      3  N   LIG    1        0.689  -2.100  -0.017  0.00  0.00    -0.450 N 
ATOM      4  H   LIG    1        1.284  -2.866  -0.027  0.00  0.00    +0.440 HD
ATOM      5  C   LIG    1       -0.677  -2.140  -0.004  0.00  0.00    +0.050 A 
ATOM      6  C   LIG    1       -1.121  -0.834   0.008  0.00  0.00    -0.020 A 
ENDROOT
BRANCH   5   7
ATOM      7  C   LIG    1       -1.516  -3.349  -0.003  0.00  0.00    +0.590 C 
ATOM      8  N   LIG    1       -0.941  -4.568  -0.015  0.00  0.00    -0.730 N 
ATOM      9  H   LIG    1        0.026  -4.649  -0.025  0.00  0.00    +0.400 HD
ATOM     10  C   LIG    1       -1.776  -5.772  -0.014  0.00  0.00    +0.310 C 
ATOM     11  O   LIG    1       -2.728  -3.248   0.010  0.00  0.00    -0.510 OA
ENDBRANCH   5   7
BRANCH   1  12
ATOM     12  O   LIG    1       -0.016   1.356   0.009  0.00  0.00    -0.290 OA
BRANCH  12  14
ATOM     13  C   LIG    1        1.027   3.536   0.011  0.00  0.00    +0.070 C 
ATOM     14  C   LIG    1        1.248   2.022   0.001  0.00  0.00    +0.200 C 
ENDBRANCH  12  14
ENDBRANCH   1  12
TORSDOF 3
