REMARK  Name = ZINCah0000006kFc.0
REMARK                            x       y       z     vdW  Elec       q    Type
REMARK                         _______ _______ _______ _____ _____    ______ ____
ROOT
ATOM      1  C   LIG    1        0.695   3.047   0.011  0.00  0.00    -0.040 A 
ATOM      2  N   LIG    1        1.110   1.806   0.001  0.00  0.00    -0.230 NA
ATOM      3  N   LIG    1       -0.011   0.966   0.007  0.00  0.00    -0.450 N 
ATOM      4  H   LIG    1        0.002  -0.004   0.002  0.00  0.00    +0.450 HD
ATOM      5  C   LIG    1       -1.121   1.751   0.016  0.00  0.00    +0.150 A 
ATOM      6  C   LIG    1       -0.707   3.044   0.024  0.00  0.00    +0.090 A 
ENDROOT
BRANCH   1   8
ATOM      7  C   LIG    1        3.043   3.844  -0.006  0.00  0.00    +0.090 C 
ATOM      8  C   LIG    1        1.574   4.271   0.010  0.00  0.00    +0.380 C 
ATOM      9  F   LIG    1        1.321   5.028   1.159  0.00  0.00    -0.190 F 
ATOM     10  F   LIG    1        1.300   5.041  -1.126  0.00  0.00    -0.190 F 
ENDBRANCH   1   8
BRANCH   6  11
ATOM     11  N   LIG    1       -1.539   4.180   0.038  0.00  0.00    -0.870 N 
ATOM     12  H   LIG    1       -2.503   4.075   0.046  0.00  0.00    +0.400 HD
ATOM     13  H   LIG    1       -1.147   5.068   0.039  0.00  0.00    +0.400 HD
ENDBRANCH   6  11
TORSDOF 2
