REMARK  Name = ZINCpe00000MJIGD.0
REMARK                            x       y       z     vdW  Elec       q    Type
REMARK                         _______ _______ _______ _____ _____    ______ ____
ROOT
ATOM      1  C   LIG    1       -2.248   1.183   1.314  0.00  0.00    +0.190 C 
ATOM      2  C   LIG    1       -1.480   1.333  -0.016  0.00  0.00    +0.220 C 
ATOM      3  N   LIG    1       -0.146   0.746   0.182  0.00  0.00    -0.610 N 
ATOM      4  C   LIG    1       -0.060   0.220   1.556  0.00  0.00    +0.230 C 
ATOM      5  C   LIG    1        0.835   0.698  -0.741  0.00  0.00    +0.570 C 
ATOM      6  O   LIG    1        0.652   1.167  -1.849  0.00  0.00    -0.550 OA
ATOM      7  C   LIG    1       -1.108   1.029   2.360  0.00  0.00    +0.190 C 
ENDROOT
BRANCH   5   8
ATOM      8  C   LIG    1        2.079   0.102  -0.421  0.00  0.00    -0.150 C 
ATOM      9  C   LIG    1        3.066   0.054  -1.349  0.00  0.00    +0.190 C 
BRANCH   9  10
ATOM     10  C   LIG    1        4.311  -0.542  -1.028  0.00  0.00    -0.010 A 
ATOM     11  C   LIG    1        5.401  -0.661  -1.870  0.00  0.00    +0.020 A 
ATOM     12  C   LIG    1        6.408  -1.309  -1.149  0.00  0.00    -0.070 A 
ATOM     13  C   LIG    1        5.930  -1.570   0.092  0.00  0.00    +0.190 A 
ATOM     14  N   LIG    1        4.658  -1.104   0.180  0.00  0.00    -0.540 N 
ATOM     15  H   LIG    1        4.088  -1.159   0.963  0.00  0.00    +0.420 HD
ENDBRANCH   9  10
ENDBRANCH   5   8
BRANCH   7  16
ATOM     16  O   LIG    1       -0.587   2.304   2.741  0.00  0.00    -0.540 OA
ATOM     17  H   LIG    1        0.190   2.256   3.315  0.00  0.00    +0.380 HD
ENDBRANCH   7  16
BRANCH   1  18
ATOM     18  N   LIG    1       -3.051   2.382   1.588  0.00  0.00    -0.510 NA
BRANCH  18  20
ATOM     19  C   LIG    1       -2.798   4.771   2.062  0.00  0.00    +0.020 C 
ATOM     20  C   LIG    1       -2.329   3.600   1.196  0.00  0.00    +0.200 C 
ENDBRANCH  18  20
BRANCH  18  21
ATOM     21  C   LIG    1       -4.357   2.305   0.920  0.00  0.00    +0.340 C 
BRANCH  21  22
ATOM     22  C   LIG    1       -5.298   3.306   1.539  0.00  0.00    +0.180 A 
ATOM     23  N   LIG    1       -5.567   4.496   1.083  0.00  0.00    -0.280 NA
ATOM     24  N   LIG    1       -6.415   5.071   1.862  0.00  0.00    -0.290 NA
ATOM     25  C   LIG    1       -6.707   4.270   2.848  0.00  0.00    +0.160 A 
ATOM     26  C   LIG    1       -7.655   4.562   3.982  0.00  0.00    +0.240 C 
ATOM     27  O   LIG    1       -6.009   3.137   2.667  0.00  0.00    -0.220 OA
ENDBRANCH  21  22
ENDBRANCH  18  21
ENDBRANCH   1  18
TORSDOF 7
