REMARK  Name = ZINCnE000001KMtk.0
REMARK                            x       y       z     vdW  Elec       q    Type
REMARK                         _______ _______ _______ _____ _____    ______ ____
ROOT
ATOM      1  C   LIG    1        8.447   1.419   0.272  0.00  0.00    +0.170 A 
ATOM      2  C   LIG    1        7.789   2.635   0.354  0.00  0.00    -0.110 A 
ATOM      3  C   LIG    1        6.463   2.735  -0.024  0.00  0.00    +0.100 A 
ATOM      4  C   LIG    1        5.775   1.612  -0.480  0.00  0.00    +0.050 A 
ATOM      5  C   LIG    1        6.418   0.392  -0.568  0.00  0.00    +0.140 A 
ATOM      6  F   LIG    1        5.829   3.926   0.053  0.00  0.00    -0.150 F 
ATOM      7  C   LIG    1        7.762   0.285  -0.192  0.00  0.00    -0.160 A 
ENDROOT
BRANCH   4   8
ATOM      8  N   LIG    1        4.428   1.721  -0.857  0.00  0.00    -0.670 N 
ATOM      9  H   LIG    1        4.107   2.534  -1.278  0.00  0.00    +0.410 HD
ATOM     10  C   LIG    1        3.581   0.697  -0.634  0.00  0.00    +0.510 C 
ATOM     11  O   LIG    1        3.999  -0.349  -0.183  0.00  0.00    -0.510 OA
BRANCH  10  12
ATOM     12  C   LIG    1        2.115   0.851  -0.945  0.00  0.00    -0.010 C 
ATOM     13  C   LIG    1        1.474   1.919  -0.023  0.00  0.00    +0.030 C 
ATOM     14  C   LIG    1       -0.024   1.519  -0.021  0.00  0.00    +0.030 C 
ATOM     15  C   LIG    1        0.001  -0.016  -0.029  0.00  0.00    -0.080 C 
ATOM     16  C   LIG    1       -1.225  -0.684  -0.654  0.00  0.00    +0.020 C 
ATOM     17  C   LIG    1       -1.108  -1.745   0.454  0.00  0.00    -0.000 C 
ATOM     18  C   LIG    1       -0.386  -0.678   1.296  0.00  0.00    +0.020 C 
ATOM     19  C   LIG    1        1.351  -0.449  -0.608  0.00  0.00    +0.070 C 
ENDBRANCH  10  12
ENDBRANCH   4   8
BRANCH   7  20
ATOM     20  C   LIG    1        8.453  -1.010  -0.282  0.00  0.00    +0.520 C 
ATOM     21  O   LIG    1        9.628  -1.101   0.048  0.00  0.00    -0.670 OA
ATOM     22  O   LIG    1        7.853  -1.997  -0.686  0.00  0.00    -0.690 OA
ENDBRANCH   7  20
BRANCH   1  24
ATOM     23  C   LIG    1       10.382   2.519   1.101  0.00  0.00    +0.220 C 
ATOM     24  O   LIG    1        9.749   1.324   0.638  0.00  0.00    -0.260 OA
ENDBRANCH   1  24
TORSDOF 4
