REMARK  Name = ZINCtV00000L6kDB.0
REMARK                            x       y       z     vdW  Elec       q    Type
REMARK                         _______ _______ _______ _____ _____    ______ ____
ROOT
ATOM      1  O   LIG    1        3.741  -0.376   0.219  0.00  0.00    -1.010 OA
ATOM      2  P   LIG    1        2.541   0.168   0.894  0.00  0.00    +2.660 P 
ATOM      3  C   LIG    1        1.049  -0.750   0.371  0.00  0.00    -0.720 C 
ATOM      4  C   LIG    1        0.002  -0.004   0.002  0.00  0.00    +0.230 C 
ATOM      5  O   LIG    1       -0.016   1.331   0.009  0.00  0.00    -0.270 OA
ATOM      6  C   LIG    1        1.001   2.195   0.004  0.00  0.00    +0.220 C 
ATOM      7  C   LIG    1        2.251   1.896   0.374  0.00  0.00    -0.710 C 
ENDROOT
BRANCH   6   8
ATOM      8  C   LIG    1        0.727   3.580  -0.442  0.00  0.00    -0.080 A 
ATOM      9  C   LIG    1        1.752   4.525  -0.461  0.00  0.00    +0.050 A 
ATOM     10  C   LIG    1        1.491   5.813  -0.883  0.00  0.00    +0.010 A 
ATOM     11  C   LIG    1        0.213   6.170  -1.275  0.00  0.00    +0.030 A 
ATOM     12  C   LIG    1       -0.809   5.238  -1.253  0.00  0.00    +0.010 A 
ATOM     13  C   LIG    1       -0.559   3.946  -0.839  0.00  0.00    +0.040 A 
ENDBRANCH   6   8
BRANCH   4  14
ATOM     14  C   LIG    1       -1.221  -0.708  -0.446  0.00  0.00    -0.080 A 
ATOM     15  C   LIG    1       -1.255  -2.101  -0.479  0.00  0.00    +0.050 A 
ATOM     16  C   LIG    1       -2.400  -2.751  -0.892  0.00  0.00    +0.020 A 
ATOM     17  C   LIG    1       -3.509  -2.023  -1.284  0.00  0.00    +0.040 A 
ATOM     18  C   LIG    1       -3.480  -0.640  -1.259  0.00  0.00    +0.010 A 
ATOM     19  C   LIG    1       -2.342   0.021  -0.842  0.00  0.00    +0.050 A 
ENDBRANCH   4  14
BRANCH   2  20
ATOM     20  N   LIG    1        2.717   0.086   2.522  0.00  0.00    -1.100 N 
ATOM     21  H   LIG    1        2.071  -0.403   3.056  0.00  0.00    +0.420 HD
BRANCH  20  22
ATOM     22  C   LIG    1        3.798   0.722   3.143  0.00  0.00    +0.210 A 
ATOM     23  C   LIG    1        4.722   1.423   2.379  0.00  0.00    -0.030 A 
ATOM     24  C   LIG    1        5.791   2.051   2.990  0.00  0.00    +0.100 A 
ATOM     25  C   LIG    1        5.942   1.985   4.365  0.00  0.00    -0.000 A 
ATOM     26  O   LIG    1        6.892   2.509   5.197  0.00  0.00    -0.310 OA
ATOM     27  C   LIG    1        6.765   1.779   6.432  0.00  0.00    +0.430 C 
ATOM     28  O   LIG    1        5.386   1.367   6.446  0.00  0.00    -0.310 OA
ATOM     29  C   LIG    1        5.017   1.283   5.134  0.00  0.00    +0.070 A 
ATOM     30  C   LIG    1        3.943   0.658   4.522  0.00  0.00    -0.010 A 
ENDBRANCH  20  22
ENDBRANCH   2  20
TORSDOF 4
