REMARK  Name = ZINCpk00000earYS.0
REMARK                            x       y       z     vdW  Elec       q    Type
REMARK                         _______ _______ _______ _____ _____    ______ ____
ROOT
ATOM      1  N   LIG    1       -9.234   3.652   0.334  0.00  0.00    -0.490 N 
ATOM      2  C   LIG    1       -9.437   2.687   1.424  0.00  0.00    +0.200 C 
ATOM      3  C   LIG    1       -8.389   2.925   2.514  0.00  0.00    +0.200 C 
ATOM      4  N   LIG    1       -7.045   2.788   1.935  0.00  0.00    -0.520 NA
ATOM      5  C   LIG    1       -6.842   3.753   0.846  0.00  0.00    +0.190 C 
ATOM      6  C   LIG    1       -7.890   3.515  -0.244  0.00  0.00    +0.210 C 
ENDROOT
BRANCH   1  10
ATOM      7  C   LIG    1      -12.170   3.236  -2.595  0.00  0.00    +0.100 A 
ATOM      8  C   LIG    1      -11.180   4.197  -2.738  0.00  0.00    +0.000 A 
ATOM      9  C   LIG    1      -10.207   4.335  -1.768  0.00  0.00    +0.030 A 
ATOM     10  C   LIG    1      -10.220   3.513  -0.649  0.00  0.00    +0.070 A 
ATOM     11  C   LIG    1      -11.209   2.548  -0.510  0.00  0.00    +0.000 A 
ATOM     12  C   LIG    1      -12.184   2.414  -1.478  0.00  0.00    -0.050 A 
BRANCH   7  14
ATOM     13  C   LIG    1      -14.117   2.091  -3.339  0.00  0.00    +0.230 C 
ATOM     14  O   LIG    1      -13.128   3.101  -3.551  0.00  0.00    -0.320 OA
ENDBRANCH   7  14
ENDBRANCH   1  10
BRANCH   4  15
ATOM     15  C   LIG    1       -6.010   2.934   2.968  0.00  0.00    +0.220 C 
BRANCH  15  16
ATOM     16  C   LIG    1       -4.671   2.548   2.395  0.00  0.00    +0.520 C 
ATOM     17  N   LIG    1       -3.567   2.604   3.166  0.00  0.00    -0.650 N 
ATOM     18  H   LIG    1       -3.634   2.894   4.089  0.00  0.00    +0.410 HD
ATOM     19  O   LIG    1       -4.587   2.186   1.241  0.00  0.00    -0.480 OA
BRANCH  17  20
ATOM     20  C   LIG    1       -2.327   2.246   2.636  0.00  0.00    +0.300 A 
ATOM     21  C   LIG    1       -2.087   1.831   1.362  0.00  0.00    -0.100 A 
ATOM     22  C   LIG    1       -0.718   1.572   1.248  0.00  0.00    +0.090 A 
ATOM     23  N   LIG    1       -0.153   1.829   2.400  0.00  0.00    -0.290 NA
ATOM     24  C   LIG    1       -0.013   1.086   0.008  0.00  0.00    +0.160 C 
ATOM     25  N   LIG    1       -1.144   2.256   3.292  0.00  0.00    -0.390 N 
ATOM     26  C   LIG    1       -0.937   2.645   4.689  0.00  0.00    +0.360 C 
ENDBRANCH  17  20
ENDBRANCH  15  16
ENDBRANCH   4  15
TORSDOF 5
