REMARK  Name = ZINCkj00000y7Hqi.0
REMARK                            x       y       z     vdW  Elec       q    Type
REMARK                         _______ _______ _______ _____ _____    ______ ____
ROOT
ATOM      1  C   LIG    1       -5.006   1.688   3.844  0.00  0.00    +0.320 C 
ATOM      2  C   LIG    1       -4.048   0.850   2.968  0.00  0.00    +0.180 C 
ATOM      3  C   LIG    1       -5.025   0.209   1.956  0.00  0.00    +0.100 C 
ATOM      4  C   LIG    1       -6.354   0.199   2.680  0.00  0.00    +0.520 C 
ATOM      5  O   LIG    1       -7.317  -0.464   2.355  0.00  0.00    -0.490 OA
ATOM      6  N   LIG    1       -6.313   1.031   3.735  0.00  0.00    -0.600 N 
ATOM      7  C   LIG    1       -7.430   1.253   4.656  0.00  0.00    +0.330 C 
ENDROOT
BRANCH   1  15
ATOM      8  C   LIG    1       -5.291  -0.713   5.892  0.00  0.00    +0.160 C 
ATOM      9  C   LIG    1       -4.665   0.626   6.181  0.00  0.00    +0.100 A 
ATOM     10  N   LIG    1       -4.141   0.998   7.321  0.00  0.00    -0.280 NA
ATOM     11  N   LIG    1       -3.673   2.311   7.181  0.00  0.00    -0.360 N 
ATOM     12  C   LIG    1       -3.930   2.710   5.918  0.00  0.00    +0.110 A 
ATOM     13  C   LIG    1       -3.596   4.056   5.326  0.00  0.00    +0.160 C 
ATOM     14  C   LIG    1       -3.021   3.109   8.222  0.00  0.00    +0.370 C 
ATOM     15  C   LIG    1       -4.539   1.686   5.277  0.00  0.00    -0.300 A 
ENDBRANCH   1  15
BRANCH   2  16
ATOM     16  N   LIG    1       -3.072   1.710   2.285  0.00  0.00    -0.500 N 
ATOM     17  H   LIG    1       -3.557   2.347   1.671  0.00  0.00    +0.430 HD
ATOM     18  H   LIG    1       -2.550   2.236   2.970  0.00  0.00    +0.430 HD
BRANCH  16  19
ATOM     19  C   LIG    1       -2.152   0.877   1.500  0.00  0.00    +0.310 C 
BRANCH  19  20
ATOM     20  C   LIG    1       -1.136   1.773   0.788  0.00  0.00    -0.090 C 
ATOM     21  C   LIG    1       -0.013   1.086   0.008  0.00  0.00    +0.070 C 
ATOM     22  C   LIG    1       -1.150   1.781  -0.743  0.00  0.00    +0.050 C 
ENDBRANCH  19  20
ENDBRANCH  16  19
ENDBRANCH   2  16
TORSDOF 4
