REMARK  Name = ZINCkj000005j0Am.0
REMARK                            x       y       z     vdW  Elec       q    Type
REMARK                         _______ _______ _______ _____ _____    ______ ____
ROOT
ATOM      1  C   LIG    1       -3.792   2.509  -2.186  0.00  0.00    +0.510 C 
ATOM      2  N   LIG    1       -3.329   3.775  -2.212  0.00  0.00    -0.720 N 
ATOM      3  H   LIG    1       -3.935   4.516  -2.053  0.00  0.00    +0.410 HD
ATOM      4  O   LIG    1       -3.035   1.583  -2.385  0.00  0.00    -0.500 OA
ENDROOT
BRANCH   1   6
ATOM      5  C   LIG    1       -5.615   2.801  -0.531  0.00  0.00    +0.090 C 
ATOM      6  C   LIG    1       -5.249   2.245  -1.909  0.00  0.00    +0.290 C 
BRANCH   6   7
ATOM      7  N   LIG    1       -5.497   0.802  -1.934  0.00  0.00    -0.380 N 
ATOM      8  C   LIG    1       -5.334  -0.062  -0.917  0.00  0.00    +0.490 A 
ATOM      9  N   LIG    1       -5.662  -1.256  -1.341  0.00  0.00    -0.540 NA
ATOM     10  C   LIG    1       -6.038  -1.194  -2.618  0.00  0.00    +0.430 A 
ATOM     11  N   LIG    1       -5.960   0.046  -3.024  0.00  0.00    -0.310 NA
ENDBRANCH   6   7
ENDBRANCH   1   6
BRANCH   2  12
ATOM     12  C   LIG    1       -1.913   4.032  -2.482  0.00  0.00    +0.290 C 
BRANCH  12  13
ATOM     13  C   LIG    1       -1.678   5.540  -2.584  0.00  0.00    +0.240 C 
BRANCH  13  14
ATOM     14  C   LIG    1       -2.413   6.083  -3.783  0.00  0.00    -0.150 A 
ATOM     15  C   LIG    1       -1.932   5.986  -5.023  0.00  0.00    -0.060 A 
ATOM     16  S   LIG    1       -3.060   6.725  -6.152  0.00  0.00    +0.210 S 
ATOM     17  C   LIG    1       -4.148   7.145  -4.836  0.00  0.00    -0.010 A 
ATOM     18  C   LIG    1       -3.634   6.725  -3.679  0.00  0.00    +0.010 A 
ENDBRANCH  13  14
BRANCH  13  19
ATOM     19  N   LIG    1       -0.240   5.803  -2.730  0.00  0.00    -0.380 N 
ATOM     20  C   LIG    1        0.470   5.317  -1.540  0.00  0.00    +0.340 C 
ATOM     21  C   LIG    1       -0.019   7.248  -2.876  0.00  0.00    +0.330 C 
ATOM     22  H   LIG    1        0.108   5.326  -3.548  0.00  0.00    +0.430 HD
ENDBRANCH  13  19
ENDBRANCH  12  13
ENDBRANCH   2  12
TORSDOF 6
