REMARK  Name = ZINCpk00000kKIoI.0
REMARK                            x       y       z     vdW  Elec       q    Type
REMARK                         _______ _______ _______ _____ _____    ______ ____
ROOT
ATOM      1  C   LIG    1       -0.014   1.213   0.009  0.00  0.00    +0.600 C 
ATOM      2  N   LIG    1        1.108   1.581  -0.641  0.00  0.00    -0.610 N 
ATOM      3  C   LIG    1        1.101   2.711  -1.583  0.00  0.00    +0.250 C 
ATOM      4  C   LIG    1        1.742   2.257  -2.895  0.00  0.00    +0.220 C 
ATOM      5  O   LIG    1        3.015   1.667  -2.619  0.00  0.00    -0.360 OA
ATOM      6  C   LIG    1        2.952   0.494  -1.804  0.00  0.00    +0.090 C 
ATOM      7  C   LIG    1        2.053  -0.547  -2.475  0.00  0.00    +0.020 C 
ATOM      8  C   LIG    1        2.374   0.862  -0.433  0.00  0.00    +0.280 C 
ATOM      9  O   LIG    1       -0.017   0.209   0.697  0.00  0.00    -0.520 OA
ENDROOT
BRANCH   1  12
ATOM     10  C   LIG    1       -2.832   0.057  -0.053  0.00  0.00    +0.120 C 
ATOM     11  C   LIG    1       -2.508   1.526  -0.149  0.00  0.00    -0.020 A 
ATOM     12  C   LIG    1       -1.233   2.017  -0.119  0.00  0.00    -0.280 A 
ATOM     13  S   LIG    1       -1.289   3.768  -0.267  0.00  0.00    +0.210 S 
ATOM     14  C   LIG    1       -2.993   3.754  -0.351  0.00  0.00    -0.060 A 
ATOM     15  C   LIG    1       -3.465   2.505  -0.272  0.00  0.00    +0.000 A 
ENDBRANCH   1  12
BRANCH   6  16
ATOM     16  C   LIG    1        4.358  -0.083  -1.628  0.00  0.00    +0.310 C 
BRANCH  16  17
ATOM     17  N   LIG    1        4.909  -0.434  -2.939  0.00  0.00    -0.730 N 
ATOM     18  H   LIG    1        4.385  -0.286  -3.742  0.00  0.00    +0.400 HD
ATOM     19  C   LIG    1        6.145  -0.964  -3.031  0.00  0.00    +0.510 C 
ATOM     20  O   LIG    1        6.801  -1.150  -2.028  0.00  0.00    -0.520 OA
BRANCH  19  21
ATOM     21  C   LIG    1        6.712  -1.325  -4.379  0.00  0.00    +0.180 C 
BRANCH  21  22
ATOM     22  N   LIG    1        8.062  -1.879  -4.210  0.00  0.00    -0.450 NA
ATOM     23  C   LIG    1        8.018  -3.347  -4.071  0.00  0.00    +0.160 C 
ATOM     24  C   LIG    1        9.253  -3.415  -4.980  0.00  0.00    +0.040 C 
ATOM     25  C   LIG    1        8.719  -2.079  -5.516  0.00  0.00    +0.120 C 
ATOM     26  C   LIG    1        7.734  -2.237  -6.676  0.00  0.00    +0.020 C 
ENDBRANCH  21  22
ENDBRANCH  19  21
ENDBRANCH  16  17
ENDBRANCH   6  16
TORSDOF 5
