REMARK  Name = ZINCqH00000371lc.0
REMARK                            x       y       z     vdW  Elec       q    Type
REMARK                         _______ _______ _______ _____ _____    ______ ____
ROOT
ATOM      1  N   LIG    1        0.885   8.889  -1.209  0.00  0.00    -0.750 N 
ATOM      2  H   LIG    1        0.788   8.398  -2.040  0.00  0.00    +0.400 HD
ATOM      3  C   LIG    1        0.747   8.251  -0.029  0.00  0.00    +0.710 C 
ATOM      4  N   LIG    1        0.576   6.915  -0.002  0.00  0.00    -0.630 N 
ATOM      5  C   LIG    1        0.532   6.186   1.275  0.00  0.00    +0.320 C 
ATOM      6  C   LIG    1        1.522   5.018   1.203  0.00  0.00    +0.180 C 
ATOM      7  N   LIG    1        1.231   4.206   0.014  0.00  0.00    -0.500 N 
ATOM      8  C   LIG    1        1.423   4.980  -1.220  0.00  0.00    +0.180 C 
ATOM      9  C   LIG    1        0.429   6.146  -1.247  0.00  0.00    +0.280 C 
ATOM     10  O   LIG    1        0.775   8.882   1.010  0.00  0.00    -0.590 OA
ENDROOT
BRANCH   7  11
ATOM     11  C   LIG    1        2.004   3.044   0.001  0.00  0.00    +0.130 A 
ATOM     12  C   LIG    1        1.387   1.786  -0.000  0.00  0.00    -0.080 A 
ATOM     13  C   LIG    1       -0.008   1.337   0.010  0.00  0.00    -0.030 A 
ATOM     14  C   LIG    1        0.012  -0.005   0.003  0.00  0.00    +0.210 A 
ATOM     15  N   LIG    1        1.307  -0.452  -0.011  0.00  0.00    -0.600 N 
ATOM     16  H   LIG    1        1.575  -1.384  -0.019  0.00  0.00    +0.420 HD
ATOM     17  C   LIG    1        2.171   0.620  -0.013  0.00  0.00    +0.100 A 
ATOM     18  C   LIG    1        3.559   0.729  -0.025  0.00  0.00    -0.010 A 
ATOM     19  C   LIG    1        4.154   1.972  -0.025  0.00  0.00    +0.040 A 
ATOM     20  C   LIG    1        3.385   3.126  -0.012  0.00  0.00    -0.060 A 
ENDBRANCH   7  11
BRANCH   1  21
ATOM     21  C   LIG    1        1.181  10.323  -1.236  0.00  0.00    +0.280 C 
BRANCH  21  22
ATOM     22  C   LIG    1        1.287  10.795  -2.688  0.00  0.00    +0.060 C 
BRANCH  22  24
ATOM     23  C   LIG    1        2.490  12.804  -1.584  0.00  0.00    +0.090 C 
ATOM     24  C   LIG    1        1.597  12.293  -2.716  0.00  0.00    -0.100 C 
ATOM     25  C   LIG    1        0.503  13.230  -3.231  0.00  0.00    +0.100 C 
ATOM     26  C   LIG    1        1.742  12.958  -4.086  0.00  0.00    +0.100 C 
ATOM     27 CL   LIG    1        2.953  14.285  -4.243  0.00  0.00    -0.100 Cl
ATOM     28  F   LIG    1        1.582  12.150  -5.217  0.00  0.00    -0.150 F 
ENDBRANCH  22  24
ENDBRANCH  21  22
ENDBRANCH   1  21
TORSDOF 4
