REMARK  Name = ZINCpe000000XnDo.2
REMARK                            x       y       z     vdW  Elec       q    Type
REMARK                         _______ _______ _______ _____ _____    ______ ____
ROOT
ATOM      1  C   LIG    1        4.664   0.497   3.956  0.00  0.00    +0.180 C 
ENDROOT
BRANCH   1   2
ATOM      2  C   LIG    1        6.078   1.019   3.945  0.00  0.00    +0.300 A 
ATOM      3  N   LIG    1        6.776   1.280   2.870  0.00  0.00    -0.490 NA
ATOM      4  C   LIG    1        7.986   1.729   3.214  0.00  0.00    +0.330 A 
ATOM      5  C   LIG    1        8.043   1.738   4.602  0.00  0.00    -0.150 A 
ATOM      6  C   LIG    1        9.226   2.169   5.239  0.00  0.00    +0.600 A 
ATOM      7  N   LIG    1       10.274   2.562   4.486  0.00  0.00    -0.650 N 
ATOM      8  H   LIG    1       11.089   2.859   4.920  0.00  0.00    +0.440 HD
ATOM      9  C   LIG    1       10.206   2.549   3.144  0.00  0.00    +0.710 A 
ATOM     10  O   LIG    1       11.170   2.910   2.498  0.00  0.00    -0.530 OA
ATOM     11  O   LIG    1        9.300   2.185   6.455  0.00  0.00    -0.510 OA
ATOM     12  N   LIG    1        9.096   2.145   2.497  0.00  0.00    -0.510 N 
ATOM     13  C   LIG    1        9.063   2.145   1.032  0.00  0.00    +0.340 C 
ATOM     14  N   LIG    1        6.816   1.281   5.041  0.00  0.00    -0.510 N 
ATOM     15  H   LIG    1        6.538   1.170   5.964  0.00  0.00    +0.440 HD
ENDBRANCH   1   2
BRANCH   1  16
ATOM     16  C   LIG    1        3.769   1.434   3.142  0.00  0.00    +0.070 C 
BRANCH  16  19
ATOM     17  N   LIG    1        1.386   1.579   2.496  0.00  0.00    -0.720 N 
ATOM     18  H   LIG    1        1.598   2.396   2.016  0.00  0.00    +0.400 HD
ATOM     19  C   LIG    1        2.355   0.912   3.153  0.00  0.00    +0.520 C 
ATOM     20  O   LIG    1        2.090  -0.108   3.752  0.00  0.00    -0.530 OA
BRANCH  17  28
ATOM     21  C   LIG    1       -0.013   1.086   0.008  0.00  0.00    +0.030 C 
ATOM     22  C   LIG    1       -0.729   1.579   1.267  0.00  0.00    -0.030 C 
ATOM     23  C   LIG    1       -2.164   1.050   1.278  0.00  0.00    +0.030 C 
ATOM     24  C   LIG    1       -2.880   1.543   2.537  0.00  0.00    +0.010 C 
ATOM     25  C   LIG    1       -2.140   1.036   3.776  0.00  0.00    +0.020 C 
ATOM     26  C   LIG    1       -0.705   1.566   3.765  0.00  0.00    -0.030 C 
ATOM     27  C   LIG    1        0.035   1.059   5.005  0.00  0.00    +0.020 C 
ATOM     28  C   LIG    1        0.011   1.072   2.506  0.00  0.00    +0.250 C 
ENDBRANCH  17  28
ENDBRANCH  16  19
ENDBRANCH   1  16
TORSDOF 4
