REMARK  Name = ZINCrH000004nN54.0
REMARK                            x       y       z     vdW  Elec       q    Type
REMARK                         _______ _______ _______ _____ _____    ______ ____
ROOT
ATOM      1  C   LIG    1        1.176   2.214   0.070  0.00  0.00    +0.130 A 
ATOM      2  C   LIG    1       -0.100   1.793   0.025  0.00  0.00    -0.110 A 
ATOM      3  S   LIG    1       -0.101   0.031   0.060  0.00  0.00    +0.220 S 
ATOM      4  C   LIG    1        1.659   0.032   0.133  0.00  0.00    +0.270 A 
ATOM      5  N   LIG    1        2.089   1.255   0.127  0.00  0.00    -0.500 NA
ENDROOT
BRANCH   1   9
ATOM      6  C   LIG    1        2.211   6.340   0.030  0.00  0.00    +0.140 A 
ATOM      7  C   LIG    1        3.209   5.375   0.091  0.00  0.00    +0.000 A 
ATOM      8  C   LIG    1        2.876   4.037   0.104  0.00  0.00    +0.070 A 
ATOM      9  C   LIG    1        1.537   3.653   0.056  0.00  0.00    -0.030 A 
ATOM     10  C   LIG    1        0.538   4.623  -0.011  0.00  0.00    +0.050 A 
ATOM     11  C   LIG    1        0.875   5.960  -0.018  0.00  0.00    +0.010 A 
BRANCH   6  12
ATOM     12  N   LIG    1        2.551   7.696   0.017  0.00  0.00    -1.060 N 
ATOM     13  H   LIG    1        3.207   8.037   0.644  0.00  0.00    +0.430 HD
BRANCH  12  15
ATOM     14  C   LIG    1        2.309   8.061  -2.692  0.00  0.00    -0.280 C 
ATOM     15  S   LIG    1        1.833   8.718  -1.070  0.00  0.00    +2.610 S 
ATOM     16  O   LIG    1        2.460   9.973  -0.837  0.00  0.00    -0.950 OA
ATOM     17  O   LIG    1        0.441   8.543  -0.850  0.00  0.00    -0.950 OA
ENDBRANCH  12  15
ENDBRANCH   6  12
ENDBRANCH   1   9
BRANCH   4  18
ATOM     18  N   LIG    1        2.460  -1.101   0.189  0.00  0.00    -0.620 N 
ATOM     19  H   LIG    1        3.425  -1.010   0.227  0.00  0.00    +0.420 HD
ATOM     20  C   LIG    1        1.897  -2.325   0.190  0.00  0.00    +0.560 C 
ATOM     21  O   LIG    1        0.688  -2.438   0.142  0.00  0.00    -0.480 OA
BRANCH  20  22
ATOM     22  C   LIG    1        2.749  -3.529   0.249  0.00  0.00    -0.150 A 
ATOM     23  C   LIG    1        4.139  -3.404   0.298  0.00  0.00    +0.060 A 
ATOM     24  C   LIG    1        4.930  -4.534   0.358  0.00  0.00    +0.090 A 
ATOM     25  C   LIG    1        4.348  -5.792   0.359  0.00  0.00    +0.070 A 
ATOM     26  C   LIG    1        2.973  -5.925   0.306  0.00  0.00    +0.030 A 
ATOM     27  F   LIG    1        6.275  -4.414   0.410  0.00  0.00    -0.130 F 
ATOM     28  C   LIG    1        2.169  -4.802   0.251  0.00  0.00    +0.160 A 
ATOM     29  F   LIG    1        0.825  -4.933   0.198  0.00  0.00    -0.100 F 
ENDBRANCH  20  22
ENDBRANCH   4  18
TORSDOF 5
