REMARK  Name = ZINCrD0000073hxt.0
REMARK                            x       y       z     vdW  Elec       q    Type
REMARK                         _______ _______ _______ _____ _____    ______ ____
ROOT
ATOM      1  O   LIG    1       -8.416  -1.593   0.388  0.00  0.00    -0.330 OA
ENDROOT
BRANCH   1   2
ATOM      2  C   LIG    1       -9.674  -2.064   0.506  0.00  0.00    +0.520 C 
ATOM      3  O   LIG    1       -9.875  -3.263   0.516  0.00  0.00    -0.490 OA
BRANCH   2  10
ATOM      4  C   LIG    1      -12.113  -1.617   0.742  0.00  0.00    +0.250 A 
ATOM      5  C   LIG    1      -13.167  -0.728   0.857  0.00  0.00    -0.150 A 
ATOM      6  C   LIG    1      -12.924   0.640   0.844  0.00  0.00    +0.310 A 
ATOM      7  C   LIG    1      -11.621   1.121   0.721  0.00  0.00    -0.160 A 
ATOM      8  C   LIG    1      -10.573   0.252   0.612  0.00  0.00    +0.200 A 
ATOM      9 CL   LIG    1      -11.330   2.832   0.707  0.00  0.00    -0.060 Cl
ATOM     10  C   LIG    1      -10.802  -1.129   0.624  0.00  0.00    -0.220 A 
BRANCH   6  11
ATOM     11  N   LIG    1      -13.985   1.533   0.955  0.00  0.00    -0.850 N 
ATOM     12  H   LIG    1      -14.892   1.201   1.040  0.00  0.00    +0.410 HD
ATOM     13  H   LIG    1      -13.817   2.488   0.946  0.00  0.00    +0.410 HD
ENDBRANCH   6  11
BRANCH   4  15
ATOM     14  C   LIG    1      -13.705  -3.376   0.871  0.00  0.00    +0.250 C 
ATOM     15  O   LIG    1      -12.345  -2.954   0.747  0.00  0.00    -0.280 OA
ENDBRANCH   4  15
ENDBRANCH   2  10
ENDBRANCH   1   2
BRANCH   1  16
ATOM     16  C   LIG    1       -7.352  -2.575   0.276  0.00  0.00    +0.270 C 
BRANCH  16  17
ATOM     17  C   LIG    1       -6.027  -1.867   0.153  0.00  0.00    +0.520 C 
ATOM     18  N   LIG    1       -4.890  -2.581   0.036  0.00  0.00    -0.670 N 
ATOM     19  H   LIG    1       -4.930  -3.547  -0.045  0.00  0.00    +0.410 HD
ATOM     20  O   LIG    1       -5.984  -0.655   0.158  0.00  0.00    -0.490 OA
BRANCH  18  21
ATOM     21  C   LIG    1       -3.650  -1.929   0.033  0.00  0.00    +0.120 A 
ATOM     22  C   LIG    1       -3.469  -0.777   0.787  0.00  0.00    +0.060 A 
ATOM     23  C   LIG    1       -2.247  -0.134   0.782  0.00  0.00    +0.030 A 
ATOM     24  C   LIG    1       -1.200  -0.638   0.025  0.00  0.00    +0.090 A 
ATOM     25  C   LIG    1       -1.382  -1.786  -0.733  0.00  0.00    -0.030 A 
ATOM     26  C   LIG    1       -2.602  -2.433  -0.725  0.00  0.00    +0.030 A 
BRANCH  24  27
ATOM     27  O   LIG    1        0.003  -0.005   0.021  0.00  0.00    -0.320 OA
BRANCH  27  28
ATOM     28  C   LIG    1        1.036  -0.579  -0.782  0.00  0.00    +0.590 C 
ATOM     29  F   LIG    1        0.624  -0.613  -2.118  0.00  0.00    -0.200 F 
ATOM     30  F   LIG    1        1.298  -1.881  -0.342  0.00  0.00    -0.200 F 
ENDBRANCH  27  28
ENDBRANCH  24  27
ENDBRANCH  18  21
ENDBRANCH  16  17
ENDBRANCH   1  16
TORSDOF 9
