REMARK  Name = ZINCrD000003Hdx0.0
REMARK                            x       y       z     vdW  Elec       q    Type
REMARK                         _______ _______ _______ _____ _____    ______ ____
ROOT
ATOM      1  N   LIG    1       -0.017   1.395   0.010  0.00  0.00    -0.690 N 
ATOM      2  H   LIG    1        0.830   1.869  -0.001  0.00  0.00    +0.410 HD
ATOM      3  C   LIG    1       -1.175   2.085   0.018  0.00  0.00    +0.710 C 
ATOM      4  N   LIG    1       -1.159   3.429  -0.076  0.00  0.00    -0.720 N 
ATOM      5  H   LIG    1       -0.314   3.901  -0.150  0.00  0.00    +0.400 HD
ATOM      6  O   LIG    1       -2.233   1.495   0.112  0.00  0.00    -0.550 OA
ENDROOT
BRANCH   1  10
ATOM      7  C   LIG    1       -0.074  -2.771   0.010  0.00  0.00    -0.660 A 
ATOM      8  C   LIG    1        0.911  -2.094  -0.686  0.00  0.00    +0.150 A 
ATOM      9  C   LIG    1        0.932  -0.713  -0.688  0.00  0.00    -0.020 A 
ATOM     10  C   LIG    1       -0.036  -0.004   0.010  0.00  0.00    +0.220 A 
ATOM     11  C   LIG    1       -1.021  -0.686   0.713  0.00  0.00    +0.020 A 
ATOM     12  C   LIG    1       -1.040  -2.067   0.706  0.00  0.00    +0.100 A 
BRANCH   7  14
ATOM     13  C   LIG    1       -0.821  -5.093   1.578  0.00  0.00    -0.270 C 
ATOM     14  S   LIG    1       -0.099  -4.532   0.011  0.00  0.00    +2.390 S 
ATOM     15  O   LIG    1       -0.790  -4.971  -1.151  0.00  0.00    -0.900 OA
ATOM     16  N   LIG    1        1.307  -5.031  -0.063  0.00  0.00    -1.220 NA
ATOM     17  H   LIG    1        1.933  -4.828   0.650  0.00  0.00    +0.380 HD
ENDBRANCH   7  14
ENDBRANCH   1  10
BRANCH   4  18
ATOM     18  C   LIG    1       -2.417   4.179  -0.067  0.00  0.00    +0.270 C 
ATOM     19  C   LIG    1       -2.243   5.538  -0.784  0.00  0.00    +0.060 C 
ATOM     20  C   LIG    1       -3.139   6.462   0.069  0.00  0.00    +0.280 C 
ATOM     21  N   LIG    1       -3.195   5.838   1.396  0.00  0.00    -0.580 N 
ATOM     22  C   LIG    1       -2.800   4.554   1.348  0.00  0.00    +0.510 C 
ATOM     23  O   LIG    1       -2.757   3.804   2.301  0.00  0.00    -0.490 OA
BRANCH  21  24
ATOM     24  C   LIG    1       -3.606   6.495   2.562  0.00  0.00    +0.150 A 
ATOM     25  C   LIG    1       -4.944   6.485   2.930  0.00  0.00    +0.040 A 
ATOM     26  C   LIG    1       -5.346   7.130   4.084  0.00  0.00    +0.030 A 
ATOM     27  C   LIG    1       -4.420   7.793   4.866  0.00  0.00    +0.040 A 
ATOM     28  C   LIG    1       -3.086   7.810   4.500  0.00  0.00    +0.030 A 
ATOM     29  C   LIG    1       -2.676   7.163   3.350  0.00  0.00    -0.030 A 
ATOM     30 CL   LIG    1       -1.002   7.183   2.890  0.00  0.00    -0.060 Cl
ENDBRANCH  21  24
ENDBRANCH   4  18
TORSDOF 4
