REMARK  Name = ZINCrD000000CAFe.0
REMARK                            x       y       z     vdW  Elec       q    Type
REMARK                         _______ _______ _______ _____ _____    ______ ____
ROOT
ATOM      1  O   LIG    1        2.089  -3.511   3.113  0.00  0.00    -0.500 OA
ATOM      2  C   LIG    1        1.486  -2.454   3.016  0.00  0.00    +0.480 A 
ATOM      3  C   LIG    1        0.766  -1.945   4.118  0.00  0.00    +0.000 A 
ATOM      4  C   LIG    1        0.113  -0.757   3.960  0.00  0.00    +0.140 A 
ATOM      5  C   LIG    1        0.187  -0.114   2.702  0.00  0.00    +0.030 A 
ATOM      6  N   LIG    1        0.880  -0.654   1.723  0.00  0.00    -0.180 NA
ATOM      7  N   LIG    1        1.504  -1.768   1.859  0.00  0.00    -0.290 N 
ENDROOT
BRANCH   5   8
ATOM      8  C   LIG    1       -0.510   1.172   2.489  0.00  0.00    +0.600 C 
ATOM      9  N   LIG    1       -0.436   1.789   1.293  0.00  0.00    -0.600 N 
ATOM     10  C   LIG    1        0.302   1.296   0.116  0.00  0.00    +0.270 C 
ATOM     11  C   LIG    1       -0.395   1.959  -1.098  0.00  0.00    +0.030 C 
ATOM     12  C   LIG    1       -0.739   3.362  -0.532  0.00  0.00    +0.050 C 
ATOM     13  C   LIG    1       -1.080   3.066   0.943  0.00  0.00    +0.270 C 
ATOM     14  O   LIG    1       -1.151   1.673   3.393  0.00  0.00    -0.510 OA
BRANCH  13  15
ATOM     15  C   LIG    1       -0.549   4.167   1.824  0.00  0.00    -0.090 A 
ATOM     16  C   LIG    1        0.786   4.182   2.183  0.00  0.00    +0.010 A 
ATOM     17  C   LIG    1        1.274   5.195   2.987  0.00  0.00    +0.000 A 
ATOM     18  C   LIG    1        0.426   6.188   3.440  0.00  0.00    +0.000 A 
ATOM     19  C   LIG    1       -0.910   6.170   3.085  0.00  0.00    +0.000 A 
ATOM     20  C   LIG    1       -1.398   5.160   2.277  0.00  0.00    +0.020 A 
ENDBRANCH  13  15
ENDBRANCH   5   8
BRANCH   7  21
ATOM     21  C   LIG    1        2.221  -2.282   0.773  0.00  0.00    +0.100 A 
ATOM     22  C   LIG    1        3.099  -1.466   0.070  0.00  0.00    +0.070 A 
ATOM     23  C   LIG    1        3.810  -1.977  -0.997  0.00  0.00    +0.010 A 
ATOM     24  C   LIG    1        3.641  -3.299  -1.374  0.00  0.00    +0.120 A 
ATOM     25  C   LIG    1        2.763  -4.113  -0.677  0.00  0.00    +0.010 A 
ATOM     26  F   LIG    1        4.334  -3.796  -2.422  0.00  0.00    -0.130 F 
ATOM     27  C   LIG    1        2.054  -3.608   0.394  0.00  0.00    +0.090 A 
ENDBRANCH   7  21
TORSDOF 3
