REMARK  Name = ZINCrD0000072cg0.0
REMARK                            x       y       z     vdW  Elec       q    Type
REMARK                         _______ _______ _______ _____ _____    ______ ____
ROOT
ATOM      1  C   LIG    1       -3.799   0.665   0.370  0.00  0.00    +0.550 C 
ATOM      2  O   LIG    1       -4.095   1.844   0.369  0.00  0.00    -0.520 OA
ENDROOT
BRANCH   1   3
ATOM      3  C   LIG    1       -4.853  -0.357   0.468  0.00  0.00    -0.210 A 
ATOM      4  C   LIG    1       -6.200  -0.141   0.569  0.00  0.00    +0.130 A 
ATOM      5  N   LIG    1       -6.819  -1.345   0.633  0.00  0.00    -0.370 N 
ATOM      6  C   LIG    1       -5.896  -2.352   0.585  0.00  0.00    +0.030 A 
ATOM      7  C   LIG    1       -6.204  -3.826   0.636  0.00  0.00    +0.150 C 
ATOM      8  C   LIG    1       -6.879   1.204   0.600  0.00  0.00    +0.170 C 
ATOM      9  C   LIG    1       -4.669  -1.813   0.483  0.00  0.00    +0.030 A 
BRANCH   5  10
ATOM     10  C   LIG    1       -8.202  -1.529   0.738  0.00  0.00    +0.220 A 
ATOM     11  N   LIG    1       -8.828  -2.298   1.589  0.00  0.00    -0.350 NA
ATOM     12  O   LIG    1      -10.025  -2.248   1.434  0.00  0.00    +0.120 OA
ATOM     13  C   LIG    1      -10.362  -1.419   0.435  0.00  0.00    -0.010 A 
ATOM     14  C   LIG    1      -11.756  -1.106  -0.045  0.00  0.00    +0.210 C 
ATOM     15  C   LIG    1       -9.206  -0.915  -0.054  0.00  0.00    -0.050 A 
ENDBRANCH   5  10
ENDBRANCH   1   3
BRANCH   1  16
ATOM     16  O   LIG    1       -2.506   0.294   0.282  0.00  0.00    -0.320 OA
BRANCH  16  17
ATOM     17  C   LIG    1       -1.521   1.357   0.189  0.00  0.00    +0.250 C 
BRANCH  17  24
ATOM     18  C   LIG    1        2.294   0.994   0.025  0.00  0.00    +0.220 C 
ATOM     19  C   LIG    1        3.106   1.703   1.107  0.00  0.00    +0.020 C 
ATOM     20  C   LIG    1        3.058   3.214   0.870  0.00  0.00    +0.020 C 
ATOM     21  C   LIG    1        1.609   3.699   0.955  0.00  0.00    +0.010 C 
ATOM     22  C   LIG    1        0.779   3.012  -0.134  0.00  0.00    +0.270 C 
ATOM     23  N   LIG    1        0.937   1.558  -0.002  0.00  0.00    -0.610 N 
ATOM     24  C   LIG    1       -0.142   0.756   0.099  0.00  0.00    +0.520 C 
ATOM     25  O   LIG    1       -0.003  -0.449   0.112  0.00  0.00    -0.500 OA
BRANCH  18  27
ATOM     26  C   LIG    1        3.638  -1.076   0.415  0.00  0.00    +0.000 C 
ATOM     27  C   LIG    1        2.221  -0.502   0.338  0.00  0.00    +0.040 C 
ENDBRANCH  18  27
ENDBRANCH  17  24
ENDBRANCH  16  17
ENDBRANCH   1  16
TORSDOF 6
