REMARK  Name = ZINCAx0000000jl4.0
REMARK                            x       y       z     vdW  Elec       q    Type
REMARK                         _______ _______ _______ _____ _____    ______ ____
ROOT
ATOM      1  C   LIG    1        4.200  -5.576  -0.393  0.00  0.00    +0.180 C 
ATOM      2  C   LIG    1        5.235  -4.480  -0.379  0.00  0.00    +0.080 A 
ATOM      3  C   LIG    1        6.553  -4.652  -0.424  0.00  0.00    +0.190 A 
ATOM      4  N   LIG    1        7.157  -3.407  -0.386  0.00  0.00    -0.350 N 
ATOM      5  C   LIG    1        6.185  -2.467  -0.323  0.00  0.00    +0.450 A 
ATOM      6  N   LIG    1        6.741  -1.266  -0.285  0.00  0.00    -0.500 NA
ATOM      7  C   LIG    1        8.066  -1.377  -0.322  0.00  0.00    +0.380 A 
ATOM      8  N   LIG    1        9.107  -0.461  -0.308  0.00  0.00    -0.510 N 
ATOM      9  C   LIG    1        8.818   0.974  -0.240  0.00  0.00    +0.350 C 
ATOM     10  C   LIG    1       10.383  -0.889  -0.357  0.00  0.00    +0.710 A 
ATOM     11  O   LIG    1       11.283  -0.072  -0.346  0.00  0.00    -0.520 OA
ATOM     12  N   LIG    1       10.685  -2.197  -0.420  0.00  0.00    -0.550 N 
ATOM     13  C   LIG    1        9.716  -3.135  -0.436  0.00  0.00    +0.600 A 
ATOM     14  O   LIG    1       10.006  -4.318  -0.493  0.00  0.00    -0.510 OA
ATOM     15  C   LIG    1        8.370  -2.736  -0.387  0.00  0.00    -0.180 A 
ATOM     16  N   LIG    1        4.979  -3.122  -0.321  0.00  0.00    -0.420 N 
ENDROOT
BRANCH  16  17
ATOM     17  C   LIG    1        3.719  -2.524  -0.265  0.00  0.00    +0.150 A 
ATOM     18  C   LIG    1        2.861  -2.610  -1.357  0.00  0.00    +0.030 A 
ATOM     19  C   LIG    1        1.617  -2.022  -1.305  0.00  0.00    +0.110 A 
ATOM     20  C   LIG    1        1.217  -1.338  -0.153  0.00  0.00    -0.120 A 
ATOM     21  C   LIG    1        2.083  -1.250   0.940  0.00  0.00    +0.070 A 
ATOM     22  C   LIG    1        3.323  -1.845   0.883  0.00  0.00    +0.040 A 
BRANCH  20  23
ATOM     23  C   LIG    1       -0.116  -0.706  -0.094  0.00  0.00    +0.560 C 
ATOM     24  O   LIG    1       -0.866  -0.779  -1.048  0.00  0.00    -0.530 OA
ATOM     25  N   LIG    1       -0.500  -0.047   1.017  0.00  0.00    -0.850 N 
ATOM     26  H   LIG    1       -1.374   0.372   1.054  0.00  0.00    +0.410 HD
ATOM     27  H   LIG    1        0.099   0.011   1.778  0.00  0.00    +0.400 HD
ENDBRANCH  20  23
ENDBRANCH  16  17
BRANCH  12  28
ATOM     28  C   LIG    1       12.090  -2.610  -0.472  0.00  0.00    +0.400 C 
BRANCH  28  29
ATOM     29  C   LIG    1       12.614  -2.785   0.930  0.00  0.00    -0.080 A 
ATOM     30  C   LIG    1       11.785  -2.617   1.996  0.00  0.00    +0.010 A 
ATOM     31  C   LIG    1       12.250  -2.781   3.300  0.00  0.00    +0.010 A 
ATOM     32  C   LIG    1       13.550  -3.103   3.545  0.00  0.00    +0.030 A 
ATOM     33  C   LIG    1       14.437  -3.279   2.469  0.00  0.00    -0.050 A 
ATOM     34  C   LIG    1       15.785  -3.612   2.683  0.00  0.00    +0.030 A 
ATOM     35  C   LIG    1       16.616  -3.775   1.617  0.00  0.00    +0.000 A 
ATOM     36  C   LIG    1       16.149  -3.616   0.313  0.00  0.00    +0.020 A 
ATOM     37  C   LIG    1       14.850  -3.295   0.068  0.00  0.00    +0.020 A 
ATOM     38  C   LIG    1       13.963  -3.118   1.143  0.00  0.00    -0.040 A 
ENDBRANCH  28  29
ENDBRANCH  12  28
TORSDOF 4
