REMARK  Name = ZINCnE00000hdcnb.0
REMARK                            x       y       z     vdW  Elec       q    Type
REMARK                         _______ _______ _______ _____ _____    ______ ____
ROOT
ATOM      1  C   LIG    1       -0.756   0.583   2.357  0.00  0.00    +0.180 A 
ATOM      2  N   LIG    1       -1.236  -0.624   2.297  0.00  0.00    -0.400 NA
ATOM      3  O   LIG    1       -1.069  -1.200   3.352  0.00  0.00    +0.060 OA
ATOM      4  C   LIG    1       -0.444  -0.387   4.217  0.00  0.00    +0.290 A 
ATOM      5  N   LIG    1       -0.237   0.754   3.583  0.00  0.00    -0.510 NA
ENDROOT
BRANCH   4   6
ATOM      6  C   LIG    1       -0.057  -0.707   5.606  0.00  0.00    -0.190 A 
ATOM      7  C   LIG    1        0.598   0.248   6.388  0.00  0.00    +0.160 A 
ATOM      8  C   LIG    1        0.952  -0.052   7.686  0.00  0.00    -0.220 A 
ATOM      9  C   LIG    1        0.668  -1.306   8.213  0.00  0.00    +0.330 A 
ATOM     10  C   LIG    1        0.022  -2.261   7.437  0.00  0.00    -0.220 A 
ATOM     11 BR   LIG    1       -0.361  -3.965   8.160  0.00  0.00    -0.070 Br
ATOM     12  O   LIG    1        1.023  -1.600   9.491  0.00  0.00    -0.630 OA
ATOM     13 BR   LIG    1        1.832   1.242   8.748  0.00  0.00    -0.070 Br
ATOM     14  C   LIG    1       -0.341  -1.966   6.140  0.00  0.00    +0.140 A 
ENDBRANCH   4   6
BRANCH   1  18
ATOM     15  O   LIG    1       -2.823   2.435  -1.565  0.00  0.00    -0.530 OA
ATOM     16  C   LIG    1       -1.996   1.984  -0.801  0.00  0.00    +0.530 C 
ATOM     17  C   LIG    1       -2.205   1.785   0.683  0.00  0.00    +0.070 C 
ATOM     18  C   LIG    1       -0.775   1.603   1.248  0.00  0.00    +0.120 C 
ATOM     19  C   LIG    1       -0.013   1.086   0.008  0.00  0.00    +0.290 C 
ATOM     20  N   LIG    1       -0.759   1.590  -1.151  0.00  0.00    -0.590 N 
BRANCH  20  21
ATOM     21  C   LIG    1       -0.224   1.656  -2.513  0.00  0.00    +0.210 C 
ATOM     22  C   LIG    1       -1.056   2.394  -3.564  0.00  0.00    +0.040 C 
ATOM     23  C   LIG    1       -0.960   0.867  -3.599  0.00  0.00    +0.000 C 
ENDBRANCH  20  21
ENDBRANCH   1  18
TORSDOF 3
