REMARK  Name = ZINCpe00000VVGki.0
REMARK                            x       y       z     vdW  Elec       q    Type
REMARK                         _______ _______ _______ _____ _____    ______ ____
ROOT
ATOM      1  C   LIG    1        0.857   6.745   0.780  0.00  0.00    +0.510 C 
ATOM      2  N   LIG    1        1.313   7.946   0.374  0.00  0.00    -0.630 N 
ATOM      3  H   LIG    1        0.693   8.680   0.238  0.00  0.00    +0.430 HD
ATOM      4  O   LIG    1        1.633   5.828   0.951  0.00  0.00    -0.460 OA
ENDROOT
BRANCH   2   5
ATOM      5  C   LIG    1        2.679   8.136   0.150  0.00  0.00    +0.330 A 
ATOM      6  N   LIG    1        3.634   7.241   0.299  0.00  0.00    -0.260 NA
ATOM      7  N   LIG    1        4.842   7.866  -0.039  0.00  0.00    -0.290 N 
ATOM      8  H   LIG    1        5.716   7.446  -0.025  0.00  0.00    +0.480 HD
ATOM      9  N   LIG    1        4.605   9.088  -0.365  0.00  0.00    -0.180 NA
ATOM     10  C   LIG    1        3.309   9.326  -0.274  0.00  0.00    -0.090 A 
BRANCH  10  11
ATOM     11  C   LIG    1        2.638  10.608  -0.564  0.00  0.00    +0.620 C 
ATOM     12  N   LIG    1        3.363  11.672  -0.963  0.00  0.00    -0.690 N 
ATOM     13  H   LIG    1        4.325  11.595  -1.060  0.00  0.00    +0.410 HD
ATOM     14  O   LIG    1        1.433  10.704  -0.442  0.00  0.00    -0.530 OA
BRANCH  12  15
ATOM     15  C   LIG    1        2.697  12.945  -1.250  0.00  0.00    +0.220 C 
ATOM     16  C   LIG    1        3.133  13.702  -2.507  0.00  0.00    +0.020 C 
ATOM     17  C   LIG    1        3.530  14.222  -1.124  0.00  0.00    +0.020 C 
ENDBRANCH  12  15
ENDBRANCH  10  11
ENDBRANCH   2   5
BRANCH   1  18
ATOM     18  C   LIG    1       -0.616   6.540   1.022  0.00  0.00    +0.190 C 
BRANCH  18  26
ATOM     19  C   LIG    1       -0.013   1.086   0.008  0.00  0.00    +0.130 C 
ATOM     20  C   LIG    1       -0.718   1.572   1.248  0.00  0.00    -0.040 A 
ATOM     21  C   LIG    1       -1.217   0.682   2.148  0.00  0.00    +0.030 A 
ATOM     22  C   LIG    1       -1.872   1.150   3.299  0.00  0.00    +0.020 A 
ATOM     23  C   LIG    1       -2.007   2.475   3.514  0.00  0.00    +0.200 A 
ATOM     24  N   LIG    1       -1.511   3.379   2.620  0.00  0.00    -0.360 N 
ATOM     25  C   LIG    1       -1.508   4.747   2.591  0.00  0.00    +0.090 A 
ATOM     26  C   LIG    1       -0.860   5.121   1.466  0.00  0.00    +0.070 A 
ATOM     27  N   LIG    1       -0.481   4.023   0.807  0.00  0.00    -0.460 NA
ATOM     28  C   LIG    1       -0.862   2.953   1.490  0.00  0.00    +0.230 A 
ENDBRANCH  18  26
ENDBRANCH   1  18
TORSDOF 5
