REMARK  Name = ZINCpk00000y6xFL.0
REMARK                            x       y       z     vdW  Elec       q    Type
REMARK                         _______ _______ _______ _____ _____    ______ ____
ROOT
ATOM      1  C   LIG    1        3.290   0.960   1.494  0.00  0.00    +0.580 C 
ATOM      2  N   LIG    1        2.022   0.939   1.037  0.00  0.00    -0.620 N 
ATOM      3  C   LIG    1        1.308   2.076   0.429  0.00  0.00    +0.270 C 
ATOM      4  C   LIG    1       -0.194   1.767   0.652  0.00  0.00    +0.090 C 
ATOM      5  C   LIG    1       -0.226   0.228   0.461  0.00  0.00    +0.110 C 
ATOM      6  C   LIG    1        1.122  -0.224   1.062  0.00  0.00    +0.230 C 
ATOM      7  O   LIG    1        3.747  -0.011   2.064  0.00  0.00    -0.500 OA
ENDROOT
BRANCH   1  12
ATOM      8  C   LIG    1        6.142   1.406   5.618  0.00  0.00    +0.130 C 
ATOM      9  C   LIG    1        6.031   2.229   4.361  0.00  0.00    +0.170 A 
ATOM     10  N   LIG    1        5.179   1.865   3.431  0.00  0.00    -0.460 NA
ATOM     11  C   LIG    1        5.044   2.562   2.302  0.00  0.00    +0.170 A 
ATOM     12  C   LIG    1        4.122   2.162   1.302  0.00  0.00    -0.110 A 
ATOM     13  C   LIG    1        4.015   2.910   0.138  0.00  0.00    +0.080 A 
ATOM     14  C   LIG    1        4.791   4.046  -0.049  0.00  0.00    +0.010 A 
ATOM     15  C   LIG    1        5.685   4.451   0.898  0.00  0.00    +0.080 A 
ATOM     16  C   LIG    1        5.829   3.720   2.088  0.00  0.00    -0.120 A 
ATOM     17  C   LIG    1        6.745   4.115   3.082  0.00  0.00    +0.090 A 
ATOM     18  C   LIG    1        6.834   3.357   4.215  0.00  0.00    -0.030 A 
ENDBRANCH   1  12
BRANCH   5  19
ATOM     19  O   LIG    1       -0.304  -0.108  -0.925  0.00  0.00    -0.540 OA
ATOM     20  H   LIG    1       -0.327  -1.059  -1.099  0.00  0.00    +0.390 HD
ENDBRANCH   5  19
BRANCH   5  21
ATOM     21  C   LIG    1       -1.395  -0.389   1.232  0.00  0.00    +0.330 C 
BRANCH  21  22
ATOM     22  N   LIG    1       -1.331  -1.849   1.131  0.00  0.00    -0.300 N 
ATOM     23  C   LIG    1       -1.306  -2.715   2.171  0.00  0.00    +0.150 A 
ATOM     24  C   LIG    1       -1.248  -3.954   1.628  0.00  0.00    +0.140 A 
ATOM     25  N   LIG    1       -1.233  -3.787   0.301  0.00  0.00    -0.260 NA
ATOM     26  N   LIG    1       -1.283  -2.528   0.039  0.00  0.00    -0.100 NA
ENDBRANCH  21  22
ENDBRANCH   5  21
TORSDOF 4
