REMARK  Name = ZINCpe000000Wr1D.1
REMARK                            x       y       z     vdW  Elec       q    Type
REMARK                         _______ _______ _______ _____ _____    ______ ____
ROOT
ATOM      1  N   LIG    1       -5.002   5.551   4.810  0.00  0.00    -0.560 N 
ATOM      2  C   LIG    1       -4.058   5.870   3.732  0.00  0.00    +0.300 C 
ATOM      3  C   LIG    1       -2.867   4.907   3.929  0.00  0.00    +0.000 C 
ATOM      4  C   LIG    1       -3.533   3.729   4.677  0.00  0.00    +0.080 C 
ATOM      5  C   LIG    1       -4.734   4.352   5.355  0.00  0.00    +0.530 C 
ATOM      6  O   LIG    1       -5.363   3.843   6.258  0.00  0.00    -0.520 OA
ENDROOT
BRANCH   3   7
ATOM      7  C   LIG    1       -2.311   4.458   2.602  0.00  0.00    +0.530 C 
ATOM      8  N   LIG    1       -1.304   3.563   2.562  0.00  0.00    -0.610 N 
ATOM      9  C   LIG    1       -0.733   3.012   3.800  0.00  0.00    +0.270 C 
ATOM     10  C   LIG    1       -0.715   1.484   3.690  0.00  0.00    +0.170 C 
ATOM     11  N   LIG    1       -0.019   1.093   2.457  0.00  0.00    -0.690 NA
ATOM     12  H   LIG    1        0.112   0.093   2.417  0.00  0.00    +0.350 HD
ATOM     13  C   LIG    1       -0.729   1.579   1.267  0.00  0.00    +0.110 C 
ATOM     14  C   LIG    1       -0.013   1.086   0.008  0.00  0.00    +0.050 C 
ATOM     15  C   LIG    1       -0.747   3.111   1.277  0.00  0.00    +0.300 C 
ATOM     16  O   LIG    1       -2.770   4.902   1.571  0.00  0.00    -0.530 OA
ENDBRANCH   3   7
BRANCH   1  20
ATOM     17  C   LIG    1       -8.117   8.050   6.029  0.00  0.00    +0.180 A 
ATOM     18  C   LIG    1       -8.329   7.110   5.031  0.00  0.00    -0.100 A 
ATOM     19  C   LIG    1       -7.296   6.286   4.624  0.00  0.00    +0.110 A 
ATOM     20  C   LIG    1       -6.049   6.391   5.220  0.00  0.00    +0.070 A 
ATOM     21  C   LIG    1       -5.834   7.334   6.223  0.00  0.00    +0.180 A 
ATOM     22  C   LIG    1       -6.869   8.162   6.624  0.00  0.00    -0.100 A 
BRANCH  17  24
ATOM     23  C   LIG    1      -10.391   8.693   5.767  0.00  0.00    +0.240 C 
ATOM     24  O   LIG    1       -9.133   8.862   6.423  0.00  0.00    -0.310 OA
ENDBRANCH  17  24
BRANCH  21  25
ATOM     25  O   LIG    1       -4.610   7.443   6.805  0.00  0.00    -0.300 OA
ATOM     26  C   LIG    1       -4.463   8.432   7.826  0.00  0.00    +0.240 C 
ENDBRANCH  21  25
ENDBRANCH   1  20
TORSDOF 4
