REMARK  Name = ZINCpe00000zsEWS.1
REMARK                            x       y       z     vdW  Elec       q    Type
REMARK                         _______ _______ _______ _____ _____    ______ ____
ROOT
ATOM      1  O   LIG    1       -0.795  -2.381   2.482  0.00  0.00    -0.550 OA
ATOM      2  C   LIG    1       -1.786  -1.738   2.195  0.00  0.00    +0.600 C 
ATOM      3  N   LIG    1       -1.682  -0.419   1.934  0.00  0.00    -0.610 N 
ATOM      4  C   LIG    1       -0.485   0.451   2.071  0.00  0.00    +0.270 C 
ATOM      5  C   LIG    1       -0.524   1.313   0.775  0.00  0.00    +0.040 C 
ATOM      6  C   LIG    1        0.302   0.593  -0.276  0.00  0.00    -0.010 C 
ATOM      7  C   LIG    1       -0.235   0.816  -1.684  0.00  0.00    +0.200 C 
ATOM      8  O   LIG    1       -1.603   0.387  -1.705  0.00  0.00    -0.380 OA
ATOM      9  C   LIG    1       -2.446   1.256  -0.956  0.00  0.00    +0.240 C 
ATOM     10  C   LIG    1       -2.003   1.436   0.463  0.00  0.00    -0.180 C 
ATOM     11  C   LIG    1       -2.736   0.504   1.443  0.00  0.00    +0.290 C 
ENDROOT
BRANCH   2  12
ATOM     12  C   LIG    1       -3.102  -2.400   2.132  0.00  0.00    -0.220 A 
ATOM     13  C   LIG    1       -3.341  -3.756   2.220  0.00  0.00    +0.320 A 
ATOM     14  N   LIG    1       -4.671  -3.937   2.117  0.00  0.00    -0.340 N 
ATOM     15  N   LIG    1       -5.278  -2.685   1.963  0.00  0.00    -0.280 NA
ATOM     16  C   LIG    1       -4.355  -1.764   1.976  0.00  0.00    +0.350 A 
BRANCH  14  17
ATOM     17  C   LIG    1       -5.335  -5.168   2.157  0.00  0.00    +0.310 C 
ATOM     18  C   LIG    1       -4.626  -6.357   2.309  0.00  0.00    +0.020 C 
ATOM     19  C   LIG    1       -5.318  -7.551   2.348  0.00  0.00    +0.390 C 
ATOM     20  N   LIG    1       -6.632  -7.574   2.235  0.00  0.00    -0.470 NA
ATOM     21  C   LIG    1       -7.339  -6.470   2.085  0.00  0.00    +0.380 C 
ATOM     22  H   LIG    1       -7.092  -8.428   2.262  0.00  0.00    +0.450 HD
ATOM     23  C   LIG    1       -6.722  -5.236   2.041  0.00  0.00    +0.060 C 
ENDBRANCH  14  17
ENDBRANCH   2  12
BRANCH  10  24
ATOM     24  C   LIG    1       -2.386   2.839   0.857  0.00  0.00    +0.500 C 
ATOM     25  O   LIG    1       -1.528   3.627   1.218  0.00  0.00    -0.670 OA
ATOM     26  O   LIG    1       -3.554   3.186   0.815  0.00  0.00    -0.690 OA
ENDBRANCH  10  24
TORSDOF 3
