REMARK  Name = ZINCrH000004ny7R.0
REMARK                            x       y       z     vdW  Elec       q    Type
REMARK                         _______ _______ _______ _____ _____    ______ ____
ROOT
ATOM      1  C   LIG    1        2.960   6.129  -4.462  0.00  0.00    +0.320 C 
ATOM      2  C   LIG    1        2.452   7.449  -3.869  0.00  0.00    +0.020 C 
ATOM      3  C   LIG    1        1.226   7.176  -2.992  0.00  0.00    +0.040 C 
ATOM      4  C   LIG    1        1.661   6.437  -1.720  0.00  0.00    +0.110 C 
ATOM      5  C   LIG    1        2.521   5.265  -2.122  0.00  0.00    +0.100 A 
ATOM      6  N   LIG    1        2.857   4.194  -1.385  0.00  0.00    -0.360 N 
ATOM      7  N   LIG    1        3.671   3.367  -2.174  0.00  0.00    -0.300 NA
ATOM      8  C   LIG    1        3.809   3.929  -3.351  0.00  0.00    +0.260 A 
ATOM      9  C   LIG    1        3.098   5.127  -3.344  0.00  0.00    -0.250 A 
ENDROOT
BRANCH   1  11
ATOM     10  C   LIG    1        4.683   5.511  -6.070  0.00  0.00    +0.560 C 
ATOM     11  N   LIG    1        4.264   6.343  -5.096  0.00  0.00    -0.720 N 
ATOM     12  H   LIG    1        4.824   7.083  -4.816  0.00  0.00    +0.400 HD
ATOM     13  O   LIG    1        3.980   4.584  -6.423  0.00  0.00    -0.510 OA
BRANCH  10  19
ATOM     14  C   LIG    1        6.436   4.863  -7.723  0.00  0.00    +0.190 A 
ATOM     15  C   LIG    1        7.671   5.075  -8.316  0.00  0.00    -0.080 A 
ATOM     16  C   LIG    1        8.463   6.131  -7.910  0.00  0.00    +0.080 A 
ATOM     17  C   LIG    1        8.031   6.986  -6.909  0.00  0.00    -0.040 A 
ATOM     18  C   LIG    1        6.804   6.793  -6.312  0.00  0.00    +0.080 A 
ATOM     19  C   LIG    1        5.996   5.726  -6.709  0.00  0.00    -0.180 A 
BRANCH  14  21
ATOM     20  C   LIG    1        6.172   2.989  -9.158  0.00  0.00    +0.240 C 
ATOM     21  O   LIG    1        5.658   3.826  -8.120  0.00  0.00    -0.280 OA
ENDBRANCH  14  21
ENDBRANCH  10  19
ENDBRANCH   1  11
BRANCH   6  22
ATOM     22  C   LIG    1        2.451   3.937  -0.001  0.00  0.00    +0.370 C 
BRANCH  22  23
ATOM     23  C   LIG    1        1.156   3.165   0.008  0.00  0.00    -0.120 A 
ATOM     24  C   LIG    1        1.175   1.783   0.000  0.00  0.00    +0.030 A 
ATOM     25  C   LIG    1       -0.013   1.076   0.008  0.00  0.00    +0.010 A 
ATOM     26  C   LIG    1       -1.219   1.751   0.017  0.00  0.00    +0.010 A 
ATOM     27  C   LIG    1       -1.238   3.133   0.030  0.00  0.00    +0.010 A 
ATOM     28  C   LIG    1       -0.050   3.840   0.022  0.00  0.00    +0.020 A 
ENDBRANCH  22  23
ENDBRANCH   6  22
TORSDOF 5
