REMARK  Name = ZINCpe00000VVGGf.0
REMARK                            x       y       z     vdW  Elec       q    Type
REMARK                         _______ _______ _______ _____ _____    ______ ____
ROOT
ATOM      1  N   LIG    1        1.796  -2.559   0.413  0.00  0.00    -0.570 N 
ATOM      2  C   LIG    1        2.199  -2.158  -0.800  0.00  0.00    +0.700 C 
ATOM      3  N   LIG    1        1.891  -0.867  -1.044  0.00  0.00    -0.700 N 
ATOM      4  H   LIG    1        2.084  -0.363  -1.850  0.00  0.00    +0.450 HD
ATOM      5  C   LIG    1        1.212  -0.382   0.153  0.00  0.00    +0.110 C 
ATOM      6  C   LIG    1       -0.196   0.142  -0.154  0.00  0.00    +0.070 C 
ATOM      7  C   LIG    1       -0.044   1.676  -0.199  0.00  0.00    +0.190 C 
ATOM      8  N   LIG    1        1.388   1.977   0.023  0.00  0.00    -0.490 NA
ATOM      9  C   LIG    1        1.938   0.819   0.778  0.00  0.00    +0.230 C 
ATOM     10  O   LIG    1        2.777  -2.877  -1.592  0.00  0.00    -0.530 OA
ATOM     11  C   LIG    1        1.181  -1.560   1.087  0.00  0.00    +0.540 C 
ATOM     12  O   LIG    1        0.707  -1.606   2.202  0.00  0.00    -0.460 OA
ENDROOT
BRANCH   1  14
ATOM     13  C   LIG    1        1.296  -4.923   0.036  0.00  0.00    +0.050 C 
ATOM     14  C   LIG    1        1.996  -3.909   0.944  0.00  0.00    +0.250 C 
ATOM     15  C   LIG    1        3.493  -4.220   0.997  0.00  0.00    +0.050 C 
ENDBRANCH   1  14
BRANCH   8  16
ATOM     16  C   LIG    1        1.553   3.225   0.780  0.00  0.00    +0.220 C 
BRANCH  16  17
ATOM     17  C   LIG    1        3.016   3.455   1.057  0.00  0.00    +0.520 C 
ATOM     18  N   LIG    1        3.400   4.477   1.847  0.00  0.00    -0.730 N 
ATOM     19  H   LIG    1        2.734   5.066   2.236  0.00  0.00    +0.410 HD
ATOM     20  O   LIG    1        3.849   2.719   0.570  0.00  0.00    -0.520 OA
BRANCH  18  21
ATOM     21  C   LIG    1        4.822   4.700   2.117  0.00  0.00    +0.350 C 
ATOM     22  C   LIG    1        5.431   5.536   0.989  0.00  0.00    +0.040 C 
BRANCH  21  23
ATOM     23  C   LIG    1        4.977   5.434   3.424  0.00  0.00    -0.030 A 
ATOM     24  C   LIG    1        5.919   5.195   4.354  0.00  0.00    -0.040 A 
ATOM     25  C   LIG    1        5.693   6.108   5.410  0.00  0.00    -0.060 A 
ATOM     26  C   LIG    1        4.626   6.849   5.063  0.00  0.00    +0.180 A 
ATOM     27  O   LIG    1        4.200   6.441   3.856  0.00  0.00    -0.180 OA
ENDBRANCH  21  23
ENDBRANCH  18  21
ENDBRANCH  16  17
ENDBRANCH   8  16
TORSDOF 5
