REMARK  Name = ZINCpk000004AOx7.0
REMARK                            x       y       z     vdW  Elec       q    Type
REMARK                         _______ _______ _______ _____ _____    ______ ____
ROOT
ATOM      1  C   LIG    1        1.416   3.483  -0.130  0.00  0.00    +0.520 C 
ATOM      2  N   LIG    1        0.805   4.238   0.804  0.00  0.00    -0.720 N 
ATOM      3  H   LIG    1        0.369   3.815   1.560  0.00  0.00    +0.410 HD
ATOM      4  O   LIG    1        1.962   4.012  -1.075  0.00  0.00    -0.520 OA
ENDROOT
BRANCH   2   5
ATOM      5  C   LIG    1        0.801   5.698   0.679  0.00  0.00    +0.290 C 
ATOM      6  C   LIG    1        0.746   6.303   2.070  0.00  0.00    +0.090 C 
ATOM      7  C   LIG    1        0.807   7.834   1.954  0.00  0.00    -0.300 C 
ATOM      8  S   LIG    1       -0.786   8.381   1.272  0.00  0.00    +2.490 S 
ATOM      9  C   LIG    1       -1.084   7.249  -0.050  0.00  0.00    -0.630 A 
ATOM     10  C   LIG    1       -2.110   7.543  -0.937  0.00  0.00    +0.110 A 
ATOM     11  C   LIG    1       -2.415   6.682  -1.971  0.00  0.00    +0.010 A 
ATOM     12  C   LIG    1       -1.686   5.517  -2.121  0.00  0.00    +0.060 A 
ATOM     13  C   LIG    1       -0.661   5.230  -1.246  0.00  0.00    +0.010 A 
ATOM     14  O   LIG    1       -1.839   8.133   2.193  0.00  0.00    -0.930 OA
ATOM     15  O   LIG    1       -0.651   9.643   0.633  0.00  0.00    -0.930 OA
ATOM     16  C   LIG    1       -0.345   6.099  -0.203  0.00  0.00    -0.020 A 
ENDBRANCH   2   5
BRANCH   1  22
ATOM     17  C   LIG    1       -0.667  -0.705   0.939  0.00  0.00    +0.550 C 
ATOM     18  N   LIG    1        0.002  -0.004   0.002  0.00  0.00    -0.610 N 
ATOM     19  C   LIG    1        0.771  -0.695  -1.042  0.00  0.00    +0.260 C 
ATOM     20  C   LIG    1        2.204  -0.153  -1.039  0.00  0.00    +0.020 C 
ATOM     21  C   LIG    1        2.171   1.369  -1.186  0.00  0.00    +0.050 C 
ATOM     22  C   LIG    1        1.420   1.982  -0.001  0.00  0.00    -0.010 C 
ATOM     23  C   LIG    1       -0.022   1.465   0.007  0.00  0.00    +0.290 C 
ATOM     24  O   LIG    1       -1.220  -0.124   1.853  0.00  0.00    -0.540 OA
BRANCH  17  26
ATOM     25  C   LIG    1       -1.471  -2.857   1.720  0.00  0.00    +0.160 C 
ATOM     26  C   LIG    1       -0.729  -2.172   0.854  0.00  0.00    -0.090 C 
ENDBRANCH  17  26
ENDBRANCH   1  22
TORSDOF 3
