REMARK  Name = ZINCqH0000003lwL.0
REMARK                            x       y       z     vdW  Elec       q    Type
REMARK                         _______ _______ _______ _____ _____    ______ ____
ROOT
ATOM      1  C   LIG    1       -2.613   6.392  -0.065  0.00  0.00    +0.260 C 
ATOM      2  C   LIG    1       -3.600   7.593  -0.202  0.00  0.00    +0.030 C 
ATOM      3  C   LIG    1       -3.508   8.321   1.175  0.00  0.00    +0.030 C 
ATOM      4  C   LIG    1       -2.053   8.896   1.212  0.00  0.00    +0.020 C 
ATOM      5  C   LIG    1       -1.456   8.471  -0.164  0.00  0.00    +0.260 C 
ATOM      6  C   LIG    1       -2.720   8.545  -1.090  0.00  0.00    +0.040 C 
ATOM      7  N   LIG    1       -1.265   6.996  -0.053  0.00  0.00    -0.600 N 
ATOM      8  C   LIG    1       -0.090   6.341   0.034  0.00  0.00    +0.590 C 
ATOM      9  O   LIG    1        0.950   6.966   0.105  0.00  0.00    -0.510 OA
ENDROOT
BRANCH   8  10
ATOM     10  C   LIG    1       -0.067   4.863   0.043  0.00  0.00    -0.060 A 
ATOM     11  C   LIG    1       -1.018   4.153   0.777  0.00  0.00    +0.030 A 
ATOM     12  C   LIG    1       -0.997   2.773   0.779  0.00  0.00    +0.100 A 
ATOM     13  C   LIG    1       -0.029   2.091   0.064  0.00  0.00    -0.100 A 
ATOM     14  C   LIG    1        0.922   2.790  -0.668  0.00  0.00    +0.140 A 
ATOM     15  I   LIG    1       -0.003  -0.004   0.080  0.00  0.00    +0.000 I 
ATOM     16  C   LIG    1        0.906   4.174  -0.681  0.00  0.00    +0.020 A 
BRANCH  14  17
ATOM     17  O   LIG    1        1.868   2.114  -1.373  0.00  0.00    -0.300 OA
BRANCH  17  18
ATOM     18  C   LIG    1        2.814   2.897  -2.104  0.00  0.00    +0.600 C 
ATOM     19  F   LIG    1        2.141   3.688  -3.041  0.00  0.00    -0.160 F 
ATOM     20  F   LIG    1        3.708   2.049  -2.766  0.00  0.00    -0.120 F 
ATOM     21  F   LIG    1        3.521   3.720  -1.220  0.00  0.00    -0.160 F 
ENDBRANCH  17  18
ENDBRANCH  14  17
ENDBRANCH   8  10
BRANCH   1  22
ATOM     22  C   LIG    1       -2.757   5.457  -1.238  0.00  0.00    +0.450 C 
ATOM     23  O   LIG    1       -1.996   5.539  -2.173  0.00  0.00    -0.490 OA
BRANCH  22  24
ATOM     24  O   LIG    1       -3.731   4.533  -1.244  0.00  0.00    -0.350 OA
BRANCH  24  26
ATOM     25  C   LIG    1       -4.972   2.687  -2.235  0.00  0.00    +0.070 C 
ATOM     26  C   LIG    1       -3.810   3.667  -2.407  0.00  0.00    +0.200 C 
ENDBRANCH  24  26
ENDBRANCH  22  24
ENDBRANCH   1  22
TORSDOF 6
