REMARK  Name = ZINCqH0000035rmE.0
REMARK                            x       y       z     vdW  Elec       q    Type
REMARK                         _______ _______ _______ _____ _____    ______ ____
ROOT
ATOM      1  C   LIG    1        6.132  -0.704  -0.061  0.00  0.00    +0.300 C 
ENDROOT
BRANCH   1   2
ATOM      2  C   LIG    1        7.202   0.174   0.534  0.00  0.00    -0.090 A 
ATOM      3  C   LIG    1        7.227   1.525   0.243  0.00  0.00    +0.020 A 
ATOM      4  C   LIG    1        8.205   2.335   0.791  0.00  0.00    +0.030 A 
ATOM      5  C   LIG    1        9.170   1.791   1.625  0.00  0.00    +0.050 A 
ATOM      6  O   LIG    1       10.132   2.599   2.149  0.00  0.00    -0.310 OA
ATOM      7  C   LIG    1       10.855   2.091   3.276  0.00  0.00    +0.220 C 
ATOM      8  C   LIG    1       11.268   0.645   2.970  0.00  0.00    +0.220 C 
ATOM      9  O   LIG    1       10.081  -0.121   2.737  0.00  0.00    -0.310 OA
ATOM     10  C   LIG    1        9.147   0.432   1.915  0.00  0.00    +0.060 A 
ATOM     11  C   LIG    1        8.161  -0.374   1.366  0.00  0.00    +0.040 A 
ENDBRANCH   1   2
BRANCH   1  13
ATOM     12  C   LIG    1        3.696  -0.685  -0.037  0.00  0.00    +0.560 C 
ATOM     13  N   LIG    1        4.852   0.008  -0.045  0.00  0.00    -0.720 N 
ATOM     14  H   LIG    1        4.836   0.978  -0.039  0.00  0.00    +0.400 HD
ATOM     15  O   LIG    1        3.715  -1.900  -0.044  0.00  0.00    -0.530 OA
BRANCH  12  19
ATOM     16  C   LIG    1       -0.017   1.379   0.010  0.00  0.00    -0.070 A 
ATOM     17  C   LIG    1        1.168   2.094   0.002  0.00  0.00    +0.020 A 
ATOM     18  C   LIG    1        2.377   1.429  -0.013  0.00  0.00    +0.040 A 
ATOM     19  C   LIG    1        2.403   0.034  -0.021  0.00  0.00    -0.130 A 
ATOM     20  C   LIG    1        1.204  -0.681  -0.013  0.00  0.00    +0.080 A 
ATOM     21  C   LIG    1        0.002  -0.004   0.002  0.00  0.00    +0.020 A 
BRANCH  16  22
ATOM     22  C   LIG    1       -1.334   2.112   0.020  0.00  0.00    +0.220 C 
BRANCH  22  24
ATOM     23  C   LIG    1       -2.988   3.027   1.493  0.00  0.00    +0.200 C 
ATOM     24  O   LIG    1       -1.744   2.336   1.370  0.00  0.00    -0.380 OA
ENDBRANCH  22  24
ENDBRANCH  16  22
ENDBRANCH  12  19
ENDBRANCH   1  13
BRANCH   1  25
ATOM     25  C   LIG    1        6.503  -1.054  -1.503  0.00  0.00    -0.030 C 
ATOM     26  C   LIG    1        5.416  -1.945  -2.107  0.00  0.00    +0.020 C 
ATOM     27  C   LIG    1        7.840  -1.797  -1.520  0.00  0.00    +0.030 C 
ENDBRANCH   1  25
TORSDOF 6
