REMARK  Name = ZINCrg000000pe6i.0
REMARK                            x       y       z     vdW  Elec       q    Type
REMARK                         _______ _______ _______ _____ _____    ______ ____
ROOT
ATOM      1  S   LIG    1        2.712   0.914  -0.019  0.00  0.00    +2.690 S 
ATOM      2  O   LIG    1        2.452  -0.374   0.521  0.00  0.00    -0.940 OA
ATOM      3  O   LIG    1        3.681   1.802   0.521  0.00  0.00    -0.940 OA
ENDROOT
BRANCH   1   4
ATOM      4  C   LIG    1        1.178   1.781   0.000  0.00  0.00    -0.660 A 
ATOM      5  C   LIG    1       -0.013   1.076   0.008  0.00  0.00    +0.180 A 
ATOM      6  C   LIG    1       -1.222   1.748   0.017  0.00  0.00    +0.070 A 
ATOM      7  C   LIG    1       -1.248   3.127   0.030  0.00  0.00    -0.090 A 
ATOM      8  C   LIG    1       -0.050   3.845   0.022  0.00  0.00    +0.010 A 
ATOM      9  C   LIG    1        1.166   3.160   0.007  0.00  0.00    +0.180 A 
BRANCH   7  10
ATOM     10  C   LIG    1       -2.566   3.858   0.046  0.00  0.00    +0.500 C 
ATOM     11  F   LIG    1       -2.665   4.666  -1.092  0.00  0.00    -0.170 F 
ATOM     12  F   LIG    1       -2.644   4.655   1.193  0.00  0.00    -0.170 F 
ATOM     13  F   LIG    1       -3.613   2.930   0.051  0.00  0.00    -0.170 F 
ENDBRANCH   7  10
BRANCH   8  14
ATOM     14  C   LIG    1       -0.070   5.277   0.029  0.00  0.00    +0.230 C 
ATOM     15  N   LIG    1       -0.085   6.413   0.035  0.00  0.00    -0.360 NA
ENDBRANCH   8  14
ENDBRANCH   1   4
BRANCH   1  16
ATOM     16  N   LIG    1        3.124   0.682  -1.606  0.00  0.00    -1.110 NA
ATOM     17  H   LIG    1        3.166  -0.216  -1.969  0.00  0.00    +0.420 HD
BRANCH  16  21
ATOM     18  N   LIG    1        3.556   2.993  -5.102  0.00  0.00    -0.520 NA
ATOM     19  C   LIG    1        4.790   2.643  -4.387  0.00  0.00    +0.190 C 
ATOM     20  C   LIG    1        4.524   1.457  -3.458  0.00  0.00    +0.040 C 
ATOM     21  C   LIG    1        3.424   1.833  -2.461  0.00  0.00    +0.230 C 
ATOM     22  C   LIG    1        2.164   2.240  -3.231  0.00  0.00    +0.020 C 
ATOM     23  C   LIG    1        2.499   3.403  -4.168  0.00  0.00    +0.180 C 
BRANCH  18  24
ATOM     24  C   LIG    1        3.807   4.037  -6.105  0.00  0.00    +0.220 C 
BRANCH  24  28
ATOM     25  C   LIG    1        1.407   5.257  -8.826  0.00  0.00    +0.290 C 
ATOM     26  N   LIG    1        2.590   5.103  -7.976  0.00  0.00    -0.740 N 
ATOM     27  H   LIG    1        3.373   5.654  -8.130  0.00  0.00    +0.400 HD
ATOM     28  C   LIG    1        2.590   4.196  -6.979  0.00  0.00    +0.510 C 
ATOM     29  O   LIG    1        1.610   3.507  -6.786  0.00  0.00    -0.520 OA
ENDBRANCH  24  28
ENDBRANCH  18  24
ENDBRANCH  16  21
ENDBRANCH   1  16
TORSDOF 7
