REMARK  Name = ZINCpe000000ZsOZ.1
REMARK                            x       y       z     vdW  Elec       q    Type
REMARK                         _______ _______ _______ _____ _____    ______ ____
ROOT
ATOM      1  O   LIG    1       -0.790  -0.469   2.096  0.00  0.00    -0.530 OA
ATOM      2  C   LIG    1       -1.054   0.710   2.197  0.00  0.00    +0.530 C 
ATOM      3  N   LIG    1       -0.709   1.564   1.212  0.00  0.00    -0.610 N 
ATOM      4  C   LIG    1       -0.013   1.086   0.008  0.00  0.00    +0.300 C 
ATOM      5  C   LIG    1       -0.762   1.597  -1.227  0.00  0.00    +0.170 C 
ATOM      6  N   LIG    1       -0.913   3.056  -1.135  0.00  0.00    -0.510 NA
ATOM      7  C   LIG    1       -1.732   3.434   0.024  0.00  0.00    +0.180 C 
ATOM      8  C   LIG    1       -1.023   2.998   1.310  0.00  0.00    +0.280 C 
ENDROOT
BRANCH   2   9
ATOM      9  C   LIG    1       -1.766   1.222   3.422  0.00  0.00    +0.000 C 
ATOM     10  C   LIG    1       -0.866   2.193   4.221  0.00  0.00    +0.070 C 
ATOM     11  C   LIG    1       -1.186   1.889   5.668  0.00  0.00    +0.520 C 
ATOM     12  N   LIG    1       -1.821   0.707   5.764  0.00  0.00    -0.610 N 
ATOM     13  O   LIG    1       -0.911   2.607   6.606  0.00  0.00    -0.520 OA
ATOM     14  C   LIG    1       -1.991   0.086   4.445  0.00  0.00    +0.290 C 
BRANCH  12  15
ATOM     15  C   LIG    1       -2.282   0.116   7.022  0.00  0.00    +0.240 C 
ATOM     16  C   LIG    1       -3.254   1.079   7.734  0.00  0.00    +0.020 C 
ATOM     17  C   LIG    1       -2.921   0.910   9.238  0.00  0.00    +0.020 C 
ATOM     18  C   LIG    1       -1.381   0.753   9.232  0.00  0.00    +0.010 C 
ATOM     19  C   LIG    1       -1.091  -0.092   7.974  0.00  0.00    +0.010 C 
ENDBRANCH  12  15
ENDBRANCH   2   9
BRANCH   6  20
ATOM     20  C   LIG    1       -1.472   3.606  -2.377  0.00  0.00    +0.150 C 
ATOM     21  C   LIG    1       -0.470   3.434  -3.546  0.00  0.00    +0.040 C 
ATOM     22  C   LIG    1       -0.906   4.543  -4.536  0.00  0.00    +0.020 C 
ATOM     23  C   LIG    1       -1.294   5.729  -3.629  0.00  0.00    -0.010 C 
ATOM     24  C   LIG    1       -1.654   5.133  -2.256  0.00  0.00    +0.160 C 
BRANCH  24  25
ATOM     25  O   LIG    1       -0.780   5.653  -1.253  0.00  0.00    -0.540 OA
ATOM     26  H   LIG    1       -0.847   6.610  -1.129  0.00  0.00    +0.370 HD
ENDBRANCH  24  25
ENDBRANCH   6  20
TORSDOF 4
