REMARK  Name = ZINCkj000005llO9.0
REMARK                            x       y       z     vdW  Elec       q    Type
REMARK                         _______ _______ _______ _____ _____    ______ ____
ROOT
ATOM      1  C   LIG    1        3.433   2.165  -0.826  0.00  0.00    -0.020 C 
ATOM      2  C   LIG    1        2.860   3.555  -0.443  0.00  0.00    +0.070 C 
ATOM      3  C   LIG    1        1.343   3.288  -0.350  0.00  0.00    +0.260 C 
ATOM      4  N   LIG    1        1.167   1.848  -0.113  0.00  0.00    -0.610 N 
ATOM      5  C   LIG    1       -0.014   1.211   0.009  0.00  0.00    +0.590 C 
ATOM      6  O   LIG    1       -0.044   0.000   0.107  0.00  0.00    -0.500 OA
ATOM      7  C   LIG    1        2.496   1.215  -0.038  0.00  0.00    +0.260 C 
ENDROOT
BRANCH   5   8
ATOM      8  C   LIG    1       -1.278   1.987   0.017  0.00  0.00    -0.030 A 
ATOM      9  C   LIG    1       -1.825   2.442  -1.149  0.00  0.00    +0.000 A 
ATOM     10  C   LIG    1       -3.072   3.203  -1.109  0.00  0.00    +0.540 A 
ATOM     11  N   LIG    1       -3.687   3.463   0.058  0.00  0.00    -0.630 N 
ATOM     12  H   LIG    1       -4.513   3.971   0.057  0.00  0.00    +0.420 HD
ATOM     13  C   LIG    1       -3.167   3.022   1.256  0.00  0.00    +0.190 A 
ATOM     14  C   LIG    1       -3.820   3.302   2.454  0.00  0.00    -0.020 A 
ATOM     15  C   LIG    1       -3.289   2.855   3.644  0.00  0.00    +0.080 A 
ATOM     16  C   LIG    1       -2.107   2.127   3.663  0.00  0.00    -0.010 A 
ATOM     17  C   LIG    1       -1.450   1.841   2.500  0.00  0.00    +0.070 A 
ATOM     18  O   LIG    1       -3.561   3.609  -2.148  0.00  0.00    -0.520 OA
ATOM     19  C   LIG    1       -1.973   2.279   1.280  0.00  0.00    -0.110 A 
ENDBRANCH   5   8
BRANCH   1  20
ATOM     20  C   LIG    1        4.882   2.019  -0.356  0.00  0.00    +0.290 C 
BRANCH  20  21
ATOM     21  N   LIG    1        5.379   0.682  -0.708  0.00  0.00    -0.640 N 
ATOM     22  H   LIG    1        5.335   0.559  -1.708  0.00  0.00    +0.440 HD
ATOM     23  H   LIG    1        4.808  -0.018  -0.258  0.00  0.00    +0.440 HD
ATOM     24  H   LIG    1        6.334   0.586  -0.398  0.00  0.00    +0.440 HD
ENDBRANCH  20  21
ENDBRANCH   1  20
TORSDOF 3
