REMARK  Name = ZINCrg00000fSI5V.0
REMARK                            x       y       z     vdW  Elec       q    Type
REMARK                         _______ _______ _______ _____ _____    ______ ____
ROOT
ATOM      1  O   LIG    1       -1.041   3.068  -0.664  0.00  0.00    -0.520 OA
ATOM      2  C   LIG    1       -1.218   2.090   0.035  0.00  0.00    +0.570 C 
ATOM      3  N   LIG    1       -0.239   1.663   0.856  0.00  0.00    -0.610 N 
ATOM      4  C   LIG    1        1.091   2.289   0.825  0.00  0.00    +0.290 C 
ATOM      5  C   LIG    1        1.442   2.764   2.240  0.00  0.00    +0.290 C 
ATOM      6  N   LIG    1        1.202   1.660   3.179  0.00  0.00    -0.600 N 
ATOM      7  C   LIG    1       -0.127   1.034   3.211  0.00  0.00    +0.300 C 
ATOM      8  C   LIG    1       -0.479   0.559   1.796  0.00  0.00    +0.280 C 
ENDROOT
BRANCH   2   9
ATOM      9  C   LIG    1       -2.507   1.367  -0.017  0.00  0.00    -0.120 A 
ATOM     10  C   LIG    1       -3.690   2.080  -0.106  0.00  0.00    +0.130 A 
ATOM     11  C   LIG    1       -4.912   1.390  -0.159  0.00  0.00    +0.120 A 
ATOM     12  N   LIG    1       -6.071   2.051  -0.251  0.00  0.00    -0.470 NA
ATOM     13  C   LIG    1       -7.216   1.417  -0.297  0.00  0.00    +0.300 A 
ATOM     14  C   LIG    1       -7.285   0.025  -0.253  0.00  0.00    -0.020 A 
ATOM     15  C   LIG    1       -6.139  -0.711  -0.160  0.00  0.00    +0.080 A 
ATOM     16  C   LIG    1       -4.910  -0.026  -0.111  0.00  0.00    -0.090 A 
ATOM     17  C   LIG    1       -3.693  -0.723  -0.015  0.00  0.00    +0.050 A 
ATOM     18  C   LIG    1       -2.521  -0.038   0.030  0.00  0.00    +0.040 A 
ENDBRANCH   2   9
BRANCH   6  19
ATOM     19  C   LIG    1        2.209   1.218   4.019  0.00  0.00    +0.410 A 
ATOM     20  C   LIG    1        2.031   0.096   4.775  0.00  0.00    +0.140 A 
ATOM     21  N   LIG    1        2.991  -0.346   5.583  0.00  0.00    -0.370 NA
ATOM     22  C   LIG    1        4.138   0.284   5.693  0.00  0.00    +0.300 A 
ATOM     23  C   LIG    1        4.370   1.448   4.940  0.00  0.00    +0.230 A 
ATOM     24  N   LIG    1        5.384   2.291   4.823  0.00  0.00    -0.310 NA
ATOM     25  N   LIG    1        5.095   3.221   3.982  0.00  0.00    +0.010 NA
ATOM     26  N   LIG    1        3.907   3.055   3.505  0.00  0.00    -0.120 NA
ATOM     27  N   LIG    1        3.385   1.903   4.102  0.00  0.00    -0.320 N 
ENDBRANCH   6  19
TORSDOF 2
