REMARK  Name = ZINCvU0000000G7U.0
REMARK                            x       y       z     vdW  Elec       q    Type
REMARK                         _______ _______ _______ _____ _____    ______ ____
ROOT
ATOM      1  C   LIG    1        0.154   5.237   0.001  0.00  0.00    +0.230 A 
ATOM      2  C   LIG    1        1.395   5.278  -0.611  0.00  0.00    +0.090 A 
ATOM      3  N   LIG    1        2.000   4.099  -0.397  0.00  0.00    -0.400 NA
ATOM      4  C   LIG    1        1.207   3.321   0.314  0.00  0.00    +0.240 A 
ATOM      5  C   LIG    1        1.379   1.955   0.814  0.00  0.00    +0.120 A 
ATOM      6  C   LIG    1        0.387   1.380   1.533  0.00  0.00    +0.120 A 
ATOM      7  C   LIG    1       -0.844   2.129   1.796  0.00  0.00    +0.230 A 
ATOM      8  N   LIG    1       -1.946   1.815   2.450  0.00  0.00    -0.440 NA
ATOM      9  C   LIG    1       -2.793   2.848   2.409  0.00  0.00    +0.200 A 
ATOM     10  C   LIG    1       -2.209   3.853   1.722  0.00  0.00    +0.150 A 
ATOM     11  N   LIG    1       -0.978   3.405   1.323  0.00  0.00    -0.260 N 
ATOM     12  N   LIG    1        0.044   4.003   0.580  0.00  0.00    -0.260 N 
ENDROOT
BRANCH   2  13
ATOM     13  C   LIG    1        1.957   6.422  -1.366  0.00  0.00    -0.020 A 
ATOM     14  C   LIG    1        1.271   7.634  -1.415  0.00  0.00    +0.050 A 
ATOM     15  C   LIG    1        1.798   8.697  -2.120  0.00  0.00    +0.030 A 
ATOM     16  C   LIG    1        3.007   8.564  -2.779  0.00  0.00    +0.050 A 
ATOM     17  C   LIG    1        3.698   7.365  -2.737  0.00  0.00    -0.060 A 
ATOM     18 CL   LIG    1        5.215   7.209  -3.567  0.00  0.00    -0.050 Cl
ATOM     19  C   LIG    1        3.182   6.292  -2.029  0.00  0.00    +0.140 A 
BRANCH  19  20
ATOM     20  O   LIG    1        3.862   5.116  -1.982  0.00  0.00    -0.310 OA
ATOM     21  C   LIG    1        3.578   4.161  -3.007  0.00  0.00    +0.230 C 
ENDBRANCH  19  20
ENDBRANCH   2  13
BRANCH   1  22
ATOM     22  N   LIG    1       -0.792   6.250   0.023  0.00  0.00    -0.660 N 
ATOM     23  H   LIG    1       -0.621   7.063   0.523  0.00  0.00    +0.420 HD
BRANCH  22  27
ATOM     24  C   LIG    1       -4.375   5.800  -2.059  0.00  0.00    +0.100 A 
ATOM     25  C   LIG    1       -3.482   4.742  -1.978  0.00  0.00    -0.040 A 
ATOM     26  C   LIG    1       -2.292   4.891  -1.294  0.00  0.00    -0.020 A 
ATOM     27  C   LIG    1       -1.994   6.099  -0.676  0.00  0.00    +0.150 A 
ATOM     28  C   LIG    1       -2.889   7.159  -0.757  0.00  0.00    -0.090 A 
ATOM     29  C   LIG    1       -2.564   8.472  -0.093  0.00  0.00    +0.110 C 
ATOM     30  C   LIG    1       -4.075   7.009  -1.447  0.00  0.00    +0.030 A 
BRANCH  24  32
ATOM     31  C   LIG    1       -5.787   4.383  -3.345  0.00  0.00    +0.230 C 
ATOM     32  O   LIG    1       -5.543   5.654  -2.739  0.00  0.00    -0.320 OA
ENDBRANCH  24  32
ENDBRANCH  22  27
ENDBRANCH   1  22
TORSDOF 5
