REMARK  Name = ZINCpk00000ebl0c.0
REMARK                            x       y       z     vdW  Elec       q    Type
REMARK                         _______ _______ _______ _____ _____    ______ ____
ROOT
ATOM      1  O   LIG    1       -3.736  -4.817   0.013  0.00  0.00    -0.330 OA
ENDROOT
BRANCH   1   2
ATOM      2  C   LIG    1       -3.891  -6.150   0.008  0.00  0.00    +0.470 C 
ATOM      3  O   LIG    1       -2.921  -6.870  -0.006  0.00  0.00    -0.480 OA
BRANCH   2   4
ATOM      4  C   LIG    1       -5.274  -6.748   0.018  0.00  0.00    +0.310 C 
BRANCH   4   5
ATOM      5  O   LIG    1       -5.176  -8.174   0.010  0.00  0.00    -0.290 OA
BRANCH   5   9
ATOM      6  C   LIG    1       -8.717 -10.296   0.033  0.00  0.00    -0.060 A 
ATOM      7  C   LIG    1       -7.495 -10.973   0.018  0.00  0.00    +0.110 A 
ATOM      8  C   LIG    1       -6.316 -10.261   0.010  0.00  0.00    +0.010 A 
ATOM      9  C   LIG    1       -6.340  -8.872   0.017  0.00  0.00    +0.160 A 
ATOM     10  C   LIG    1       -7.554  -8.195   0.039  0.00  0.00    -0.070 A 
ATOM     11  C   LIG    1       -8.738  -8.899   0.041  0.00  0.00    +0.110 A 
BRANCH   6  13
ATOM     12  N   LIG    1      -10.920 -11.616   0.049  0.00  0.00    -0.410 NA
ATOM     13  C   LIG    1       -9.945 -11.032   0.042  0.00  0.00    +0.250 C 
ENDBRANCH   6  13
ENDBRANCH   5   9
ENDBRANCH   4   5
ENDBRANCH   2   4
ENDBRANCH   1   2
BRANCH   1  14
ATOM     14  C   LIG    1       -2.375  -4.311   0.003  0.00  0.00    +0.270 C 
BRANCH  14  15
ATOM     15  C   LIG    1       -2.400  -2.804   0.011  0.00  0.00    +0.510 C 
ATOM     16  N   LIG    1       -1.244  -2.111   0.003  0.00  0.00    -0.680 N 
ATOM     17  H   LIG    1       -0.396  -2.582  -0.008  0.00  0.00    +0.420 HD
ATOM     18  C   LIG    1       -1.265  -0.763   0.011  0.00  0.00    +0.560 C 
ATOM     19  O   LIG    1       -2.327  -0.173   0.024  0.00  0.00    -0.460 OA
ATOM     20  O   LIG    1       -3.459  -2.215   0.025  0.00  0.00    -0.440 OA
BRANCH  18  21
ATOM     21  C   LIG    1        0.002  -0.004   0.002  0.00  0.00    -0.150 A 
ATOM     22  C   LIG    1       -0.017   1.392   0.010  0.00  0.00    +0.090 A 
ATOM     23  C   LIG    1        1.170   2.095   0.002  0.00  0.00    +0.010 A 
ATOM     24  C   LIG    1        2.378   1.419  -0.013  0.00  0.00    +0.040 A 
ATOM     25  C   LIG    1        2.404   0.036  -0.021  0.00  0.00    +0.000 A 
ATOM     26  C   LIG    1        1.224  -0.679  -0.013  0.00  0.00    +0.050 A 
ENDBRANCH  18  21
ENDBRANCH  14  15
ENDBRANCH   1  14
TORSDOF 8
