REMARK  Name = ZINCrD0000075Ntl.0
REMARK                            x       y       z     vdW  Elec       q    Type
REMARK                         _______ _______ _______ _____ _____    ______ ____
ROOT
ATOM      1  O   LIG    1       -6.236   6.727   0.096  0.00  0.00    -0.470 OA
ATOM      2  C   LIG    1       -5.323   7.526   0.091  0.00  0.00    +0.510 C 
ATOM      3  N   LIG    1       -4.047   7.091   0.076  0.00  0.00    -0.620 N 
ATOM      4  H   LIG    1       -3.317   7.729   0.072  0.00  0.00    +0.430 HD
ENDROOT
BRANCH   2   5
ATOM      5  C   LIG    1       -5.615   9.004   0.100  0.00  0.00    +0.200 C 
ATOM      6  O   LIG    1       -7.032   9.222   0.198  0.00  0.00    -0.340 OA
ATOM      7  C   LIG    1       -7.330  10.411  -0.565  0.00  0.00    +0.230 C 
ATOM      8  C   LIG    1       -6.426  10.272  -1.817  0.00  0.00    +0.020 C 
ATOM      9  C   LIG    1       -5.144   9.639  -1.223  0.00  0.00    -0.020 C 
BRANCH   9  10
ATOM     10  C   LIG    1       -4.590   8.568  -2.164  0.00  0.00    +0.290 C 
BRANCH  10  11
ATOM     11  N   LIG    1       -4.042   9.207  -3.363  0.00  0.00    -0.460 N 
ATOM     12  C   LIG    1       -2.754   9.639  -3.536  0.00  0.00    +0.110 A 
ATOM     13  C   LIG    1       -2.682  10.161  -4.775  0.00  0.00    +0.150 A 
ATOM     14  N   LIG    1       -3.892  10.052  -5.343  0.00  0.00    -0.490 NA
ATOM     15  C   LIG    1       -4.710   9.476  -4.505  0.00  0.00    +0.380 A 
ENDBRANCH  10  11
ENDBRANCH   9  10
ENDBRANCH   2   5
BRANCH   3  16
ATOM     16  C   LIG    1       -3.778   5.728   0.068  0.00  0.00    +0.270 A 
ATOM     17  N   LIG    1       -2.595   5.197   0.054  0.00  0.00    -0.480 NA
ATOM     18  C   LIG    1       -2.529   3.873   0.047  0.00  0.00    +0.120 A 
ATOM     19  C   LIG    1       -3.713   3.237   0.050  0.00  0.00    -0.090 A 
ATOM     20  S   LIG    1       -4.991   4.450   0.073  0.00  0.00    +0.220 S 
BRANCH  18  21
ATOM     21  C   LIG    1       -1.237   3.144   0.031  0.00  0.00    -0.090 A 
ATOM     22  C   LIG    1       -1.220   1.749   0.017  0.00  0.00    +0.140 A 
ATOM     23  C   LIG    1       -0.013   1.076   0.008  0.00  0.00    -0.010 A 
ATOM     24  C   LIG    1        1.177   1.782   0.000  0.00  0.00    +0.100 A 
ATOM     25  C   LIG    1        1.167   3.165   0.007  0.00  0.00    -0.020 A 
ATOM     26  F   LIG    1       -2.381   1.058   0.019  0.00  0.00    -0.120 F 
ATOM     27  C   LIG    1       -0.034   3.851   0.023  0.00  0.00    +0.160 A 
ATOM     28  F   LIG    1       -0.042   5.202   0.029  0.00  0.00    -0.110 F 
ENDBRANCH  18  21
ENDBRANCH   3  16
TORSDOF 5
