REMARK  Name = ZINCpk000000pNbn.0
REMARK                            x       y       z     vdW  Elec       q    Type
REMARK                         _______ _______ _______ _____ _____    ______ ____
ROOT
ATOM      1  N   LIG    1       -3.629  -0.633   1.936  0.00  0.00    -0.740 N 
ATOM      2  H   LIG    1       -2.952  -0.060   2.329  0.00  0.00    +0.400 HD
ATOM      3  C   LIG    1       -4.646  -1.091   2.693  0.00  0.00    +0.710 C 
ATOM      4  N   LIG    1       -4.778  -0.674   3.968  0.00  0.00    -0.630 N 
ATOM      5  C   LIG    1       -5.947  -1.069   4.767  0.00  0.00    +0.290 C 
ATOM      6  C   LIG    1       -5.447  -1.740   6.058  0.00  0.00    +0.300 C 
ATOM      7  N   LIG    1       -4.429  -0.876   6.671  0.00  0.00    -1.000 NA
ATOM      8  C   LIG    1       -3.264  -0.476   5.870  0.00  0.00    +0.300 C 
ATOM      9  C   LIG    1       -3.760   0.190   4.581  0.00  0.00    +0.270 C 
ATOM     10  O   LIG    1       -5.443  -1.882   2.226  0.00  0.00    -0.580 OA
ENDROOT
BRANCH   7  11
ATOM     11  S   LIG    1       -4.592  -0.363   8.237  0.00  0.00    +2.610 S 
ATOM     12  O   LIG    1       -3.259  -0.126   8.669  0.00  0.00    -0.950 OA
ATOM     13  O   LIG    1       -5.395  -1.362   8.852  0.00  0.00    -0.950 OA
ATOM     14  C   LIG    1       -5.507   1.198   8.109  0.00  0.00    -0.280 C 
ENDBRANCH   7  11
BRANCH   1  15
ATOM     15  C   LIG    1       -3.547  -1.001   0.520  0.00  0.00    +0.310 C 
BRANCH  15  16
ATOM     16  C   LIG    1       -2.308  -0.354  -0.103  0.00  0.00    +0.160 C 
BRANCH  16  18
ATOM     17  C   LIG    1       -0.920  -0.195  -2.175  0.00  0.00    +0.020 C 
ATOM     18  C   LIG    1       -2.222  -0.738  -1.582  0.00  0.00    +0.020 C 
ENDBRANCH  16  18
BRANCH  16  19
ATOM     19  O   LIG    1       -2.403   1.067   0.015  0.00  0.00    -0.300 OA
BRANCH  19  20
ATOM     20  C   LIG    1       -1.244   1.748   0.212  0.00  0.00    +0.130 A 
ATOM     21  C   LIG    1       -0.049   1.059   0.355  0.00  0.00    -0.090 A 
ATOM     22  C   LIG    1        1.129   1.754   0.550  0.00  0.00    +0.050 A 
ATOM     23  C   LIG    1        1.117   3.135   0.607  0.00  0.00    -0.040 A 
ATOM     24  C   LIG    1       -0.074   3.825   0.469  0.00  0.00    -0.040 A 
ATOM     25  C   LIG    1       -0.084   5.330   0.531  0.00  0.00    +0.090 C 
ATOM     26  C   LIG    1       -1.254   3.134   0.275  0.00  0.00    -0.030 A 
ENDBRANCH  19  20
ENDBRANCH  16  19
ENDBRANCH  15  16
ENDBRANCH   1  15
TORSDOF 6
