REMARK  Name = ZINCrH000004v4JJ.0
REMARK                            x       y       z     vdW  Elec       q    Type
REMARK                         _______ _______ _______ _____ _____    ______ ____
ROOT
ATOM      1  O   LIG    1        0.686  -2.073   6.012  0.00  0.00    -0.560 OA
ATOM      2  C   LIG    1        1.613  -1.434   6.471  0.00  0.00    +0.710 C 
ATOM      3  N   LIG    1        2.199  -1.827   7.620  0.00  0.00    -0.620 N 
ATOM      4  C   LIG    1        3.202  -0.978   8.277  0.00  0.00    +0.270 C 
ATOM      5  C   LIG    1        2.773  -0.755   9.735  0.00  0.00    +0.020 C 
ATOM      6  C   LIG    1        2.558  -2.111  10.411  0.00  0.00    +0.040 C 
ATOM      7  C   LIG    1        1.441  -2.870   9.691  0.00  0.00    -0.020 C 
ATOM      8  C   LIG    1        1.850  -3.114   8.235  0.00  0.00    +0.290 C 
ATOM      9  N   LIG    1        2.055  -0.333   5.832  0.00  0.00    -0.680 N 
ATOM     10  H   LIG    1        2.871   0.103   6.123  0.00  0.00    +0.410 HD
ENDROOT
BRANCH   9  11
ATOM     11  C   LIG    1        1.337   0.181   4.746  0.00  0.00    +0.160 A 
ATOM     12  C   LIG    1        1.466   1.520   4.398  0.00  0.00    -0.030 A 
ATOM     13  C   LIG    1        0.755   2.024   3.327  0.00  0.00    +0.040 A 
ATOM     14  C   LIG    1       -0.084   1.199   2.601  0.00  0.00    -0.110 A 
ATOM     15  C   LIG    1       -0.218  -0.133   2.949  0.00  0.00    +0.040 A 
ATOM     16  C   LIG    1        0.493  -0.645   4.016  0.00  0.00    +0.020 A 
BRANCH  14  17
ATOM     17  C   LIG    1       -0.858   1.753   1.433  0.00  0.00    +0.100 C 
BRANCH  17  18
ATOM     18  C   LIG    1       -0.029   1.607   0.156  0.00  0.00    +0.060 C 
BRANCH  18  19
ATOM     19  C   LIG    1       -0.815   2.169  -1.030  0.00  0.00    +0.450 C 
ATOM     20  F   LIG    1       -2.015   1.465  -1.170  0.00  0.00    -0.180 F 
ATOM     21  F   LIG    1       -0.056   2.035  -2.198  0.00  0.00    -0.180 F 
ATOM     22  F   LIG    1       -1.091   3.522  -0.806  0.00  0.00    -0.180 F 
ENDBRANCH  18  19
ENDBRANCH  17  18
ENDBRANCH  14  17
ENDBRANCH   9  11
BRANCH   7  23
ATOM     23  C   LIG    1        1.205  -4.212  10.387  0.00  0.00    +0.340 C 
BRANCH  23  24
ATOM     24  N   LIG    1        0.059  -4.887   9.771  0.00  0.00    -0.290 N 
ATOM     25  C   LIG    1        0.063  -6.133   9.244  0.00  0.00    +0.140 A 
ATOM     26  C   LIG    1       -1.193  -6.354   8.791  0.00  0.00    +0.140 A 
ATOM     27  N   LIG    1       -1.892  -5.244   9.052  0.00  0.00    -0.270 NA
ATOM     28  N   LIG    1       -1.121  -4.394   9.633  0.00  0.00    -0.080 NA
ENDBRANCH  23  24
ENDBRANCH   7  23
TORSDOF 6
