REMARK  Name = ZINCrD00000rIi3I.0
REMARK                            x       y       z     vdW  Elec       q    Type
REMARK                         _______ _______ _______ _____ _____    ______ ____
ROOT
ATOM      1  N   LIG    1        4.998  -4.094  -0.098  0.00  0.00    -0.670 N 
ATOM      2  H   LIG    1        4.166  -4.589  -0.037  0.00  0.00    +0.410 HD
ATOM      3  C   LIG    1        4.984  -2.747  -0.072  0.00  0.00    +0.550 C 
ATOM      4  O   LIG    1        6.031  -2.127  -0.041  0.00  0.00    -0.520 OA
ENDROOT
BRANCH   1   7
ATOM      5  C   LIG    1        7.533  -6.748   0.173  0.00  0.00    +0.130 A 
ATOM      6  C   LIG    1        6.330  -6.071   0.286  0.00  0.00    -0.080 A 
ATOM      7  C   LIG    1        6.213  -4.779  -0.211  0.00  0.00    +0.180 A 
ATOM      8  C   LIG    1        7.299  -4.169  -0.825  0.00  0.00    +0.010 A 
ATOM      9  C   LIG    1        8.501  -4.841  -0.933  0.00  0.00    +0.090 A 
ATOM     10  C   LIG    1        8.623  -6.131  -0.439  0.00  0.00    +0.100 A 
BRANCH  10  11
ATOM     11  N   LIG    1        9.842  -6.815  -0.554  0.00  0.00    -0.660 N 
ATOM     12  H   LIG    1        9.848  -7.774  -0.701  0.00  0.00    +0.410 HD
ATOM     13  C   LIG    1       11.005  -6.140  -0.462  0.00  0.00    +0.510 C 
ATOM     14  O   LIG    1       10.998  -4.931  -0.363  0.00  0.00    -0.530 OA
ATOM     15  C   LIG    1       12.313  -6.887  -0.481  0.00  0.00    +0.110 C 
ENDBRANCH  10  11
BRANCH   5  17
ATOM     16  C   LIG    1        6.493  -8.581   1.273  0.00  0.00    +0.250 C 
ATOM     17  O   LIG    1        7.650  -8.012   0.659  0.00  0.00    -0.320 OA
ENDBRANCH   5  17
ENDBRANCH   1   7
BRANCH   3  18
ATOM     18  C   LIG    1        3.710  -2.029  -0.083  0.00  0.00    -0.100 C 
ATOM     19  C   LIG    1        3.696  -0.679  -0.057  0.00  0.00    +0.140 C 
BRANCH  19  20
ATOM     20  C   LIG    1        2.415   0.043  -0.068  0.00  0.00    -0.080 A 
ATOM     21  C   LIG    1        1.210  -0.667  -0.104  0.00  0.00    +0.040 A 
ATOM     22  C   LIG    1        0.011   0.012  -0.113  0.00  0.00    -0.040 A 
ATOM     23  C   LIG    1       -0.005   1.400  -0.087  0.00  0.00    +0.120 A 
ATOM     24  C   LIG    1        1.192   2.115  -0.051  0.00  0.00    +0.100 A 
ATOM     25  C   LIG    1        2.398   1.442  -0.041  0.00  0.00    -0.010 A 
BRANCH  24  26
ATOM     26  O   LIG    1        1.172   3.474  -0.026  0.00  0.00    -0.310 OA
ATOM     27  C   LIG    1        2.435   4.142   0.010  0.00  0.00    +0.240 C 
ENDBRANCH  24  26
BRANCH  23  28
ATOM     28  O   LIG    1       -1.190   2.064  -0.102  0.00  0.00    -0.300 OA
ATOM     29  C   LIG    1       -2.378   1.271  -0.145  0.00  0.00    +0.240 C 
ENDBRANCH  23  28
ENDBRANCH  19  20
ENDBRANCH   3  18
TORSDOF 7
