REMARK  Name = ZINCAx0000000ec5.0
REMARK                            x       y       z     vdW  Elec       q    Type
REMARK                         _______ _______ _______ _____ _____    ______ ____
ROOT
ATOM      1  C   LIG    1       -1.397   3.579  -0.130  0.00  0.00    +0.320 C 
ENDROOT
BRANCH   1   6
ATOM      2  C   LIG    1        2.399   0.055  -0.015  0.00  0.00    +0.220 A 
ATOM      3  C   LIG    1        2.361   1.438  -0.190  0.00  0.00    -0.010 A 
ATOM      4  C   LIG    1        1.170   2.105  -0.171  0.00  0.00    +0.110 A 
ATOM      5  C   LIG    1       -0.021   1.396   0.025  0.00  0.00    -0.160 A 
ATOM      6  C   LIG    1       -1.312   2.086   0.056  0.00  0.00    +0.020 A 
ATOM      7  C   LIG    1       -2.433   1.342   0.246  0.00  0.00    -0.050 A 
ATOM      8  C   LIG    1       -2.328  -0.054   0.416  0.00  0.00    +0.510 A 
ATOM      9  O   LIG    1       -1.141  -0.680   0.392  0.00  0.00    -0.270 OA
ATOM     10  O   LIG    1       -3.341  -0.708   0.590  0.00  0.00    -0.450 OA
ATOM     11  C   LIG    1        0.010  -0.000   0.202  0.00  0.00    +0.180 A 
ATOM     12  C   LIG    1        1.228  -0.662   0.180  0.00  0.00    +0.020 A 
BRANCH   2  14
ATOM     13  C   LIG    1        3.703  -1.861  -0.537  0.00  0.00    +0.650 C 
ATOM     14  N   LIG    1        3.624  -0.612  -0.037  0.00  0.00    -0.650 N 
ATOM     15  H   LIG    1        4.419  -0.176   0.309  0.00  0.00    +0.430 HD
ATOM     16  O   LIG    1        2.730  -2.369  -1.057  0.00  0.00    -0.540 OA
BRANCH  13  17
ATOM     17  O   LIG    1        4.860  -2.545  -0.461  0.00  0.00    -0.360 OA
BRANCH  17  19
ATOM     18  C   LIG    1        6.261  -4.500  -0.841  0.00  0.00    +0.070 C 
ATOM     19  C   LIG    1        4.872  -3.885  -1.020  0.00  0.00    +0.240 C 
ENDBRANCH  17  19
ENDBRANCH  13  17
ENDBRANCH   2  14
ENDBRANCH   1   6
BRANCH   1  20
ATOM     20  O   LIG    1       -2.785   3.998  -0.055  0.00  0.00    -0.350 OA
BRANCH  20  21
ATOM     21  C   LIG    1       -3.035   5.314  -0.202  0.00  0.00    +0.510 C 
ATOM     22  O   LIG    1       -2.119   6.089  -0.387  0.00  0.00    -0.490 OA
BRANCH  21  23
ATOM     23  C   LIG    1       -4.424   5.813  -0.138  0.00  0.00    -0.070 A 
ATOM     24  C   LIG    1       -5.480   4.924   0.069  0.00  0.00    +0.070 A 
ATOM     25  C   LIG    1       -6.774   5.397   0.133  0.00  0.00    +0.120 A 
ATOM     26  C   LIG    1       -7.027   6.749  -0.019  0.00  0.00    -0.650 A 
ATOM     27  C   LIG    1       -5.986   7.636  -0.229  0.00  0.00    +0.120 A 
ATOM     28  C   LIG    1       -4.686   7.176  -0.289  0.00  0.00    +0.080 A 
BRANCH  26  29
ATOM     29  S   LIG    1       -8.684   7.345   0.056  0.00  0.00    +2.690 S 
ATOM     30  O   LIG    1       -8.601   8.715   0.423  0.00  0.00    -0.940 OA
ATOM     31  O   LIG    1       -9.422   6.384   0.799  0.00  0.00    -0.940 OA
BRANCH  29  32
ATOM     32  N   LIG    1       -9.288   7.309  -1.485  0.00  0.00    -1.000 NA
ATOM     33  C   LIG    1       -9.156   8.471  -2.378  0.00  0.00    +0.270 C 
ATOM     34  C   LIG    1       -8.573   7.985  -3.714  0.00  0.00    +0.220 C 
ATOM     35  O   LIG    1       -9.363   6.897  -4.202  0.00  0.00    -0.370 OA
ATOM     36  C   LIG    1       -9.361   5.746  -3.353  0.00  0.00    +0.220 C 
ATOM     37  C   LIG    1       -9.979   6.116  -2.000  0.00  0.00    +0.270 C 
ENDBRANCH  29  32
ENDBRANCH  26  29
ENDBRANCH  21  23
ENDBRANCH  20  21
ENDBRANCH   1  20
TORSDOF 9
