REMARK  Name = ZINCrD0000075jFk.0
REMARK                            x       y       z     vdW  Elec       q    Type
REMARK                         _______ _______ _______ _____ _____    ______ ____
ROOT
ATOM      1  C   LIG    1       -1.149   1.519  -0.719  0.00  0.00    -0.140 A 
ATOM      2  C   LIG    1       -1.092   2.424  -1.768  0.00  0.00    +0.160 A 
ATOM      3  C   LIG    1        0.082   3.146  -1.980  0.00  0.00    -0.170 A 
ATOM      4  C   LIG    1        0.552   4.108  -2.877  0.00  0.00    +0.060 A 
ATOM      5  O   LIG    1        1.811   4.377  -2.495  0.00  0.00    +0.150 OA
ATOM      6  N   LIG    1        2.170   3.742  -1.530  0.00  0.00    -0.360 NA
ATOM      7  C   LIG    1        1.236   2.936  -1.081  0.00  0.00    +0.050 A 
ATOM      8  C   LIG    1        1.113   2.004  -0.027  0.00  0.00    +0.060 A 
ATOM      9  C   LIG    1       -0.046   1.327   0.140  0.00  0.00    +0.060 A 
ENDROOT
BRANCH   4  10
ATOM     10  C   LIG    1       -0.182   4.705  -4.007  0.00  0.00    -0.040 A 
ATOM     11  C   LIG    1       -0.901   3.890  -4.886  0.00  0.00    +0.050 A 
ATOM     12  C   LIG    1       -1.589   4.457  -5.939  0.00  0.00    +0.010 A 
ATOM     13  C   LIG    1       -1.560   5.827  -6.132  0.00  0.00    +0.030 A 
ATOM     14  C   LIG    1       -0.845   6.640  -5.269  0.00  0.00    +0.010 A 
ATOM     15  C   LIG    1       -0.157   6.089  -4.208  0.00  0.00    +0.050 A 
ENDBRANCH   4  10
BRANCH   1  17
ATOM     16  N   LIG    1       -2.316  -0.561  -0.182  0.00  0.00    -0.590 N 
ATOM     17  C   LIG    1       -2.385   0.748  -0.493  0.00  0.00    +0.570 C 
ATOM     18  O   LIG    1       -3.468   1.294  -0.587  0.00  0.00    -0.510 OA
BRANCH  16  19
ATOM     19  C   LIG    1       -3.541  -1.359  -0.093  0.00  0.00    +0.240 C 
ATOM     20  C   LIG    1       -4.307  -1.303  -1.431  0.00  0.00    +0.020 C 
ATOM     21  C   LIG    1       -5.799  -1.270  -1.014  0.00  0.00    +0.010 C 
ATOM     22  C   LIG    1       -5.781  -0.373   0.250  0.00  0.00    +0.020 C 
ATOM     23  C   LIG    1       -4.478  -0.769   0.975  0.00  0.00    +0.020 C 
ENDBRANCH  16  19
BRANCH  16  24
ATOM     24  C   LIG    1       -1.015  -1.187   0.067  0.00  0.00    +0.300 C 
BRANCH  24  28
ATOM     25  N   LIG    1        0.379  -1.791   2.019  0.00  0.00    -0.850 N 
ATOM     26  H   LIG    1        0.541  -1.832   2.974  0.00  0.00    +0.410 HD
ATOM     27  H   LIG    1        1.040  -2.138   1.400  0.00  0.00    +0.400 HD
ATOM     28  C   LIG    1       -0.764  -1.251   1.551  0.00  0.00    +0.490 C 
ATOM     29  O   LIG    1       -1.590  -0.816   2.325  0.00  0.00    -0.520 OA
ENDBRANCH  24  28
ENDBRANCH  16  24
ENDBRANCH   1  17
TORSDOF 5
