REMARK  Name = ZINCrD000000C99J.0
REMARK                            x       y       z     vdW  Elec       q    Type
REMARK                         _______ _______ _______ _____ _____    ______ ____
ROOT
ATOM      1  C   LIG    1        1.256   1.968   0.007  0.00  0.00    -0.130 A 
ATOM      2  C   LIG    1        1.240   3.364   0.018  0.00  0.00    +0.040 A 
ATOM      3  C   LIG    1        2.429   4.064   0.023  0.00  0.00    +0.040 A 
ATOM      4  C   LIG    1        3.635   3.385   0.005  0.00  0.00    -0.090 A 
ATOM      5  C   LIG    1        3.657   2.002  -0.011  0.00  0.00    +0.040 A 
ATOM      6  C   LIG    1        2.475   1.290  -0.010  0.00  0.00    +0.080 A 
ENDROOT
BRANCH   1   8
ATOM      7  O   LIG    1        0.002  -0.004  -0.008  0.00  0.00    -0.510 OA
ATOM      8  C   LIG    1       -0.014   1.212   0.007  0.00  0.00    +0.560 C 
ATOM      9  N   LIG    1       -1.191   1.869   0.018  0.00  0.00    -0.670 N 
ATOM     10  H   LIG    1       -1.205   2.836   0.098  0.00  0.00    +0.410 HD
BRANCH   9  11
ATOM     11  C   LIG    1       -2.390   1.158  -0.086  0.00  0.00    +0.140 A 
ATOM     12  C   LIG    1       -3.468   1.707  -0.769  0.00  0.00    -0.010 A 
ATOM     13  C   LIG    1       -4.649   1.000  -0.875  0.00  0.00    +0.030 A 
ATOM     14  C   LIG    1       -4.764  -0.248  -0.291  0.00  0.00    -0.010 A 
ATOM     15  C   LIG    1       -3.695  -0.795   0.395  0.00  0.00    +0.030 A 
ATOM     16  C   LIG    1       -2.509  -0.096   0.499  0.00  0.00    +0.020 A 
ENDBRANCH   9  11
ENDBRANCH   1   8
BRANCH   4  17
ATOM     17  C   LIG    1        4.929   4.157   0.005  0.00  0.00    +0.380 C 
BRANCH  17  18
ATOM     18  N   LIG    1        5.339   4.423  -1.376  0.00  0.00    -0.580 N 
ATOM     19  C   LIG    1        4.983   5.511  -2.071  0.00  0.00    +0.700 C 
ATOM     20  N   LIG    1        5.493   5.514  -3.319  0.00  0.00    -0.720 N 
ATOM     21  H   LIG    1        5.369   6.196  -3.997  0.00  0.00    +0.440 HD
ATOM     22  C   LIG    1        6.271   4.280  -3.445  0.00  0.00    +0.120 C 
ATOM     23  C   LIG    1        7.744   4.582  -3.749  0.00  0.00    +0.050 C 
ATOM     24  C   LIG    1        8.180   3.423  -4.683  0.00  0.00    +0.040 C 
ATOM     25  C   LIG    1        6.919   3.190  -5.554  0.00  0.00    +0.030 C 
ATOM     26  C   LIG    1        5.740   3.397  -4.578  0.00  0.00    +0.050 C 
ATOM     27  O   LIG    1        4.279   6.397  -1.626  0.00  0.00    -0.540 OA
ATOM     28  C   LIG    1        6.127   3.604  -2.106  0.00  0.00    +0.540 C 
ATOM     29  O   LIG    1        6.613   2.549  -1.758  0.00  0.00    -0.450 OA
ENDBRANCH  17  18
ENDBRANCH   4  17
TORSDOF 4
