REMARK  Name = ZINCpk000000nynV.0
REMARK                            x       y       z     vdW  Elec       q    Type
REMARK                         _______ _______ _______ _____ _____    ______ ____
ROOT
ATOM      1  C   LIG    1       -3.569  -1.223   0.029  0.00  0.00    +0.230 C 
ENDROOT
BRANCH   1   4
ATOM      2  N   LIG    1       -1.124  -0.848   0.008  0.00  0.00    -0.630 N 
ATOM      3  H   LIG    1       -1.008  -1.812   0.002  0.00  0.00    +0.410 HD
ATOM      4  C   LIG    1       -2.363  -0.319   0.022  0.00  0.00    +0.500 C 
ATOM      5  O   LIG    1       -2.508   0.885   0.030  0.00  0.00    -0.510 OA
BRANCH   2   8
ATOM      6  N   LIG    1        2.071   0.715  -0.014  0.00  0.00    -0.360 N 
ATOM      7  C   LIG    1        1.300  -0.402  -0.013  0.00  0.00    +0.200 A 
ATOM      8  C   LIG    1        0.002  -0.004   0.002  0.00  0.00    -0.000 A 
ATOM      9  C   LIG    1       -0.017   1.398   0.010  0.00  0.00    +0.250 A 
ATOM     10  N   LIG    1        1.219   1.827   0.000  0.00  0.00    -0.280 NA
BRANCH   6  11
ATOM     11  C   LIG    1        3.536   0.752  -0.028  0.00  0.00    +0.330 C 
BRANCH  11  13
ATOM     12  C   LIG    1        5.536   1.740  -1.153  0.00  0.00    +0.030 C 
ATOM     13  C   LIG    1        4.013   1.598  -1.210  0.00  0.00    -0.020 C 
ATOM     14  C   LIG    1        3.613   0.917  -2.520  0.00  0.00    +0.010 C 
ENDBRANCH  11  13
ENDBRANCH   6  11
ENDBRANCH   2   8
ENDBRANCH   1   4
BRANCH   1  15
ATOM     15  O   LIG    1       -4.754  -0.435   0.162  0.00  0.00    -0.520 OA
ATOM     16  H   LIG    1       -4.882   0.206  -0.551  0.00  0.00    +0.380 HD
ENDBRANCH   1  15
BRANCH   1  17
ATOM     17  C   LIG    1       -3.624  -2.010  -1.282  0.00  0.00    +0.300 C 
BRANCH  17  18
ATOM     18  C   LIG    1       -4.893  -2.821  -1.328  0.00  0.00    +0.250 A 
ATOM     19  N   LIG    1       -5.267  -3.673  -0.418  0.00  0.00    -0.470 NA
ATOM     20  C   LIG    1       -6.455  -4.227  -0.771  0.00  0.00    +0.050 A 
ATOM     21  C   LIG    1       -7.291  -5.175  -0.177  0.00  0.00    +0.070 A 
ATOM     22  C   LIG    1       -8.455  -5.538  -0.793  0.00  0.00    +0.000 A 
ATOM     23  C   LIG    1       -8.818  -4.975  -2.008  0.00  0.00    +0.030 A 
ATOM     24  C   LIG    1       -8.008  -4.037  -2.614  0.00  0.00    +0.010 A 
ATOM     25  C   LIG    1       -6.822  -3.656  -2.002  0.00  0.00    +0.050 A 
ATOM     26  N   LIG    1       -5.817  -2.766  -2.325  0.00  0.00    -0.590 N 
ATOM     27  H   LIG    1       -5.776  -2.208  -3.117  0.00  0.00    +0.420 HD
ENDBRANCH  17  18
BRANCH  17  28
ATOM     28  O   LIG    1       -3.599  -1.101  -2.384  0.00  0.00    -0.540 OA
ATOM     29  H   LIG    1       -4.337  -0.476  -2.396  0.00  0.00    +0.380 HD
ENDBRANCH  17  28
ENDBRANCH   1  17
TORSDOF 8
