REMARK  Name = ZINCtV000002Mnmg.0
REMARK                            x       y       z     vdW  Elec       q    Type
REMARK                         _______ _______ _______ _____ _____    ______ ____
ROOT
ATOM      1  C   LIG    1       -2.460   1.100   0.013  0.00  0.00    +0.320 C 
ENDROOT
BRANCH   1   2
ATOM      2  C   LIG    1       -2.827   0.719   1.424  0.00  0.00    -0.100 A 
ATOM      3  C   LIG    1       -2.625   1.616   2.456  0.00  0.00    +0.020 A 
ATOM      4  C   LIG    1       -2.966   1.268   3.750  0.00  0.00    +0.000 A 
ATOM      5  C   LIG    1       -3.499   0.020   4.013  0.00  0.00    +0.000 A 
ATOM      6  C   LIG    1       -3.696  -0.878   2.981  0.00  0.00    +0.000 A 
ATOM      7  C   LIG    1       -3.360  -0.529   1.687  0.00  0.00    +0.020 A 
ENDBRANCH   1   2
BRANCH   1   8
ATOM      8  N   LIG    1       -1.201   1.849   0.021  0.00  0.00    -0.710 N 
ATOM      9  H   LIG    1       -1.214   2.819   0.033  0.00  0.00    +0.390 HD
ATOM     10  C   LIG    1       -0.025   1.191   0.011  0.00  0.00    +0.560 C 
ATOM     11  O   LIG    1       -0.009  -0.024  -0.004  0.00  0.00    -0.500 OA
BRANCH  10  12
ATOM     12  C   LIG    1        1.245   1.947   0.013  0.00  0.00    -0.130 A 
ATOM     13  C   LIG    1        1.230   3.343   0.030  0.00  0.00    +0.050 A 
ATOM     14  C   LIG    1        2.418   4.042   0.033  0.00  0.00    +0.020 A 
ATOM     15  C   LIG    1        3.625   3.364   0.018  0.00  0.00    +0.060 A 
ATOM     16  C   LIG    1        3.648   1.982   0.001  0.00  0.00    +0.020 A 
ATOM     17  C   LIG    1        2.466   1.268   0.004  0.00  0.00    +0.010 A 
ATOM     18 CL   LIG    1        2.497  -0.468  -0.011  0.00  0.00    -0.030 Cl
ENDBRANCH  10  12
ENDBRANCH   1   8
BRANCH   1  19
ATOM     19  C   LIG    1       -3.568   1.970  -0.585  0.00  0.00    +0.080 C 
BRANCH  19  21
ATOM     20  O   LIG    1       -2.255   1.796  -2.539  0.00  0.00    -0.500 OA
ATOM     21  C   LIG    1       -3.261   2.249  -2.034  0.00  0.00    +0.510 C 
ATOM     22  N   LIG    1       -4.104   3.001  -2.769  0.00  0.00    -0.670 N 
ATOM     23  H   LIG    1       -4.939   3.309  -2.384  0.00  0.00    +0.420 HD
BRANCH  22  24
ATOM     24  C   LIG    1       -3.773   3.339  -4.087  0.00  0.00    +0.170 A 
ATOM     25  C   LIG    1       -3.071   2.441  -4.879  0.00  0.00    +0.060 A 
ATOM     26  C   LIG    1       -2.751   2.774  -6.181  0.00  0.00    +0.080 A 
ATOM     27  C   LIG    1       -3.119   4.006  -6.692  0.00  0.00    -0.100 A 
ATOM     28  C   LIG    1       -3.813   4.906  -5.903  0.00  0.00    +0.090 A 
ATOM     29 BR   LIG    1       -2.672   4.460  -8.473  0.00  0.00    -0.030 Br
ATOM     30  C   LIG    1       -4.141   4.576  -4.602  0.00  0.00    -0.060 A 
ATOM     31 CL   LIG    1       -5.012   5.705  -3.612  0.00  0.00    -0.050 Cl
ENDBRANCH  22  24
ENDBRANCH  19  21
ENDBRANCH   1  19
TORSDOF 6
