REMARK  Name = ZINCqH0000038W2g.0
REMARK                            x       y       z     vdW  Elec       q    Type
REMARK                         _______ _______ _______ _____ _____    ______ ____
ROOT
ATOM      1  C   LIG    1        1.671  -1.840  -0.028  0.00  0.00    +0.420 C 
ENDROOT
BRANCH   1   2
ATOM      2  C   LIG    1        1.471  -2.426   1.346  0.00  0.00    -0.070 A 
ATOM      3  C   LIG    1        2.544  -2.544   2.210  0.00  0.00    +0.020 A 
ATOM      4  C   LIG    1        2.363  -3.081   3.471  0.00  0.00    +0.050 A 
ATOM      5  C   LIG    1        1.108  -3.500   3.869  0.00  0.00    +0.000 A 
ATOM      6  C   LIG    1        0.032  -3.382   3.005  0.00  0.00    +0.100 A 
ATOM      7  F   LIG    1       -1.195  -3.792   3.394  0.00  0.00    -0.130 F 
ATOM      8  C   LIG    1        0.214  -2.840   1.745  0.00  0.00    +0.010 A 
ENDBRANCH   1   2
BRANCH   1  14
ATOM      9  C   LIG    1        3.516   0.649  -0.039  0.00  0.00    +0.320 C 
ATOM     10  N   LIG    1        2.051   0.675  -0.032  0.00  0.00    -0.450 N 
ATOM     11  C   LIG    1        1.258   1.790  -0.031  0.00  0.00    +0.130 A 
ATOM     12  C   LIG    1       -0.018   1.361  -0.026  0.00  0.00    +0.140 A 
ATOM     13  N   LIG    1       -0.005   0.020  -0.024  0.00  0.00    -0.470 NA
ATOM     14  C   LIG    1        1.231  -0.398  -0.028  0.00  0.00    +0.190 A 
ENDBRANCH   1  14
BRANCH   1  15
ATOM     15  N   LIG    1        0.876  -2.593  -1.000  0.00  0.00    -0.720 N 
ATOM     16  H   LIG    1        0.085  -3.075  -0.711  0.00  0.00    +0.410 HD
ATOM     17  C   LIG    1        1.242  -2.616  -2.297  0.00  0.00    +0.720 C 
ATOM     18  N   LIG    1        0.510  -3.309  -3.192  0.00  0.00    -0.680 N 
ATOM     19  H   LIG    1       -0.232  -3.857  -2.891  0.00  0.00    +0.410 HD
ATOM     20  O   LIG    1        2.232  -2.011  -2.660  0.00  0.00    -0.570 OA
BRANCH  18  21
ATOM     21  C   LIG    1        0.821  -3.238  -4.557  0.00  0.00    +0.130 A 
ATOM     22  C   LIG    1        1.487  -2.130  -5.061  0.00  0.00    +0.090 A 
ATOM     23  C   LIG    1        1.798  -2.064  -6.406  0.00  0.00    +0.010 A 
ATOM     24  C   LIG    1        1.434  -3.096  -7.254  0.00  0.00    +0.110 A 
ATOM     25  C   LIG    1        0.764  -4.201  -6.755  0.00  0.00    -0.020 A 
ATOM     26  F   LIG    1        1.734  -3.026  -8.569  0.00  0.00    -0.130 F 
ATOM     27  C   LIG    1        0.456  -4.274  -5.409  0.00  0.00    +0.100 A 
ATOM     28  F   LIG    1       -0.198  -5.352  -4.923  0.00  0.00    -0.130 F 
ENDBRANCH  18  21
ENDBRANCH   1  15
TORSDOF 4
