REMARK  Name = ZINCpk00000y6yic.0
REMARK                            x       y       z     vdW  Elec       q    Type
REMARK                         _______ _______ _______ _____ _____    ______ ____
ROOT
ATOM      1  N   LIG    1       -0.833   3.147  -2.781  0.00  0.00    -0.730 N 
ATOM      2  H   LIG    1       -1.035   2.355  -3.304  0.00  0.00    +0.400 HD
ATOM      3  C   LIG    1       -0.834   3.082  -1.435  0.00  0.00    +0.540 C 
ATOM      4  O   LIG    1       -0.581   4.071  -0.780  0.00  0.00    -0.530 OA
ENDROOT
BRANCH   3   5
ATOM      5  C   LIG    1       -1.150   1.781  -0.743  0.00  0.00    -0.050 C 
ATOM      6  C   LIG    1       -0.013   1.086   0.008  0.00  0.00    +0.080 C 
ATOM      7  C   LIG    1       -1.136   1.773   0.788  0.00  0.00    +0.050 C 
BRANCH   7   8
ATOM      8  C   LIG    1       -2.136   0.891   1.489  0.00  0.00    -0.050 A 
ATOM      9  C   LIG    1       -2.130  -0.473   1.265  0.00  0.00    +0.020 A 
ATOM     10  C   LIG    1       -3.044  -1.286   1.909  0.00  0.00    +0.030 A 
ATOM     11  C   LIG    1       -3.976  -0.733   2.774  0.00  0.00    +0.050 A 
ATOM     12  O   LIG    1       -4.875  -1.545   3.395  0.00  0.00    -0.310 OA
ATOM     13  C   LIG    1       -5.548  -1.005   4.538  0.00  0.00    +0.220 C 
ATOM     14  C   LIG    1       -6.031   0.409   4.187  0.00  0.00    +0.220 C 
ATOM     15  O   LIG    1       -4.888   1.201   3.846  0.00  0.00    -0.310 OA
ATOM     16  C   LIG    1       -3.985   0.639   2.997  0.00  0.00    +0.050 A 
ATOM     17  C   LIG    1       -3.063   1.448   2.351  0.00  0.00    +0.040 A 
ENDBRANCH   7   8
ENDBRANCH   3   5
BRANCH   1  18
ATOM     18  C   LIG    1       -0.526   4.411  -3.453  0.00  0.00    +0.260 C 
BRANCH  18  19
ATOM     19  C   LIG    1       -0.592   4.212  -4.969  0.00  0.00    +0.100 C 
BRANCH  19  24
ATOM     20  O   LIG    1        0.497   8.909  -7.455  0.00  0.00    -0.530 OA
ATOM     21  C   LIG    1        0.255   7.852  -6.896  0.00  0.00    +0.620 A 
ATOM     22  N   LIG    1       -0.990   7.595  -6.486  0.00  0.00    -0.540 NA
ATOM     23  C   LIG    1       -1.281   6.459  -5.885  0.00  0.00    +0.440 A 
ATOM     24  C   LIG    1       -0.276   5.513  -5.661  0.00  0.00    -0.260 A 
ATOM     25  C   LIG    1        0.990   5.781  -6.080  0.00  0.00    +0.370 A 
ATOM     26  N   LIG    1        1.246   6.963  -6.701  0.00  0.00    -0.620 N 
ATOM     27  H   LIG    1        2.145   7.165  -7.004  0.00  0.00    +0.420 HD
ENDBRANCH  19  24
ENDBRANCH  18  19
ENDBRANCH   1  18
TORSDOF 5
