REMARK  Name = ZINCrD000000BWe3.0
REMARK                            x       y       z     vdW  Elec       q    Type
REMARK                         _______ _______ _______ _____ _____    ______ ____
ROOT
ATOM      1  O   LIG    1        5.188   1.344  -3.925  0.00  0.00    -0.520 OA
ATOM      2  C   LIG    1        6.370   1.249  -3.658  0.00  0.00    +0.700 C 
ATOM      3  N   LIG    1        7.291   1.335  -4.638  0.00  0.00    -0.730 N 
ATOM      4  H   LIG    1        8.234   1.260  -4.425  0.00  0.00    +0.400 HD
ATOM      5  N   LIG    1        6.759   1.058  -2.382  0.00  0.00    -0.670 N 
ATOM      6  H   LIG    1        7.703   1.056  -2.158  0.00  0.00    +0.410 HD
ENDROOT
BRANCH   5   7
ATOM      7  C   LIG    1        5.806   0.862  -1.384  0.00  0.00    +0.380 A 
ATOM      8  C   LIG    1        6.215   0.560  -0.090  0.00  0.00    -0.070 A 
ATOM      9  C   LIG    1        5.258   0.363   0.890  0.00  0.00    -0.000 A 
ATOM     10  C   LIG    1        3.920   0.485   0.542  0.00  0.00    -0.080 A 
ATOM     11  C   LIG    1        3.585   0.794  -0.762  0.00  0.00    +0.300 A 
ATOM     12  N   LIG    1        4.519   0.971  -1.676  0.00  0.00    -0.470 NA
BRANCH   9  13
ATOM     13  C   LIG    1        5.660   0.028   2.303  0.00  0.00    +0.020 C 
ATOM     14  C   LIG    1        5.151   1.105   3.292  0.00  0.00    +0.010 C 
ATOM     15  C   LIG    1        4.658   0.297   4.509  0.00  0.00    +0.200 C 
ATOM     16  O   LIG    1        4.921  -1.089   4.236  0.00  0.00    -0.380 OA
ATOM     17  C   LIG    1        4.925  -1.243   2.800  0.00  0.00    +0.230 C 
ENDBRANCH   9  13
ENDBRANCH   5   7
BRANCH   3  18
ATOM     18  C   LIG    1        6.868   1.543  -6.025  0.00  0.00    +0.340 C 
BRANCH  18  19
ATOM     19  C   LIG    1        7.983   2.198  -6.798  0.00  0.00    -0.090 A 
ATOM     20  C   LIG    1        9.293   1.813  -6.582  0.00  0.00    +0.030 A 
ATOM     21  C   LIG    1       10.316   2.411  -7.294  0.00  0.00    +0.000 A 
ATOM     22  C   LIG    1       10.030   3.401  -8.216  0.00  0.00    +0.000 A 
ATOM     23  C   LIG    1        8.720   3.790  -8.428  0.00  0.00    +0.000 A 
ATOM     24  C   LIG    1        7.697   3.189  -7.719  0.00  0.00    +0.010 A 
ENDBRANCH  18  19
BRANCH  18  25
ATOM     25  C   LIG    1        6.529   0.194  -6.662  0.00  0.00    +0.110 C 
ATOM     26  C   LIG    1        5.584   0.304  -7.871  0.00  0.00    +0.000 C 
ATOM     27  C   LIG    1        4.886  -0.959  -7.339  0.00  0.00    +0.000 C 
ATOM     28  C   LIG    1        5.397  -0.560  -5.945  0.00  0.00    +0.010 C 
BRANCH  25  29
ATOM     29  O   LIG    1        7.685  -0.609  -6.909  0.00  0.00    -0.540 OA
ATOM     30  H   LIG    1        7.490  -1.466  -7.312  0.00  0.00    +0.380 HD
ENDBRANCH  25  29
ENDBRANCH  18  25
ENDBRANCH   3  18
TORSDOF 6
