REMARK  Name = ZINCpe00000gLFTH.0
REMARK                            x       y       z     vdW  Elec       q    Type
REMARK                         _______ _______ _______ _____ _____    ______ ____
ROOT
ATOM      1  C   LIG    1       -5.174   0.779  -0.745  0.00  0.00    +0.150 A 
ATOM      2  C   LIG    1       -6.396   1.226  -1.238  0.00  0.00    -0.020 A 
ATOM      3  C   LIG    1       -7.466   0.351  -1.277  0.00  0.00    +0.200 A 
ATOM      4  C   LIG    1       -7.281  -0.944  -0.811  0.00  0.00    -0.750 A 
ATOM      5  C   LIG    1       -6.042  -1.319  -0.330  0.00  0.00    +0.390 A 
ATOM      6  N   LIG    1       -5.037  -0.465  -0.309  0.00  0.00    -0.500 NA
ENDROOT
BRANCH   4   7
ATOM      7  S   LIG    1       -8.613  -2.097  -0.833  0.00  0.00    +2.700 S 
ATOM      8  O   LIG    1       -8.024  -3.390  -0.844  0.00  0.00    -0.950 OA
ATOM      9  O   LIG    1       -9.517  -1.647  -1.833  0.00  0.00    -0.950 OA
BRANCH   7  10
ATOM     10  N   LIG    1       -9.408  -1.956   0.613  0.00  0.00    -1.000 NA
ATOM     11  C   LIG    1       -9.020  -2.777   1.770  0.00  0.00    +0.300 C 
ATOM     12  C   LIG    1       -8.813  -1.845   2.974  0.00  0.00    +0.170 C 
ATOM     13  N   LIG    1      -10.018  -1.029   3.168  0.00  0.00    -0.540 NA
ATOM     14  C   LIG    1      -10.261  -0.153   2.014  0.00  0.00    +0.170 C 
ATOM     15  C   LIG    1       -9.933  -0.250   4.411  0.00  0.00    +0.190 C 
ATOM     16  C   LIG    1      -10.523  -1.012   0.772  0.00  0.00    +0.300 C 
ENDBRANCH   7  10
ENDBRANCH   4   7
BRANCH   1  17
ATOM     17  S   LIG    1       -3.798   1.879  -0.693  0.00  0.00    +0.030 S 
BRANCH  17  18
ATOM     18  C   LIG    1       -2.482   0.853   0.018  0.00  0.00    +0.010 C 
ATOM     19  C   LIG    1       -2.849   0.476   1.455  0.00  0.00    +0.090 C 
BRANCH  18  22
ATOM     20  N   LIG    1       -0.011   0.966   0.007  0.00  0.00    -0.720 N 
ATOM     21  H   LIG    1        0.002  -0.004   0.002  0.00  0.00    +0.410 HD
ATOM     22  C   LIG    1       -1.187   1.624   0.017  0.00  0.00    +0.530 C 
ATOM     23  O   LIG    1       -1.204   2.837   0.023  0.00  0.00    -0.520 OA
BRANCH  20  24
ATOM     24  C   LIG    1        1.248   1.716  -0.001  0.00  0.00    +0.310 C 
BRANCH  24  26
ATOM     25  C   LIG    1        3.317   0.838  -0.955  0.00  0.00    +0.050 C 
ATOM     26  C   LIG    1        2.406   0.752  -0.017  0.00  0.00    -0.060 C 
ENDBRANCH  24  26
ENDBRANCH  20  24
ENDBRANCH  18  22
ENDBRANCH  17  18
ENDBRANCH   1  17
TORSDOF 7
