REMARK  Name = ZINCkj00000kIYAn.2
REMARK                            x       y       z     vdW  Elec       q    Type
REMARK                         _______ _______ _______ _____ _____    ______ ____
ROOT
ATOM      1  C   LIG    1       -2.620   2.043  -2.787  0.00  0.00    +0.500 C 
ATOM      2  N   LIG    1       -2.099   2.115  -1.545  0.00  0.00    -0.590 N 
ATOM      3  C   LIG    1       -2.963   2.365  -0.384  0.00  0.00    +0.280 C 
ATOM      4  C   LIG    1       -2.723   1.266   0.656  0.00  0.00    +0.020 C 
ATOM      5  C   LIG    1       -1.230   1.199   0.987  0.00  0.00    +0.030 C 
ATOM      6  C   LIG    1       -0.442   0.850  -0.278  0.00  0.00    +0.050 C 
ATOM      7  C   LIG    1       -0.656   1.944  -1.328  0.00  0.00    +0.340 C 
ATOM      8  O   LIG    1       -1.913   1.740  -3.724  0.00  0.00    -0.500 OA
ENDROOT
BRANCH   7   9
ATOM      9  C   LIG    1        0.005   1.540  -2.621  0.00  0.00    +0.180 A 
ATOM     10  N   LIG    1       -0.218   0.445  -3.294  0.00  0.00    -0.250 NA
ATOM     11  N   LIG    1        0.517   0.428  -4.349  0.00  0.00    -0.290 NA
ATOM     12  C   LIG    1        1.250   1.507  -4.391  0.00  0.00    +0.380 A 
ATOM     13  N   LIG    1        0.946   2.244  -3.296  0.00  0.00    -0.580 N 
ATOM     14  H   LIG    1        1.325   3.101  -3.045  0.00  0.00    +0.430 HD
ENDBRANCH   7   9
BRANCH   1  15
ATOM     15  C   LIG    1       -4.080   2.341  -3.009  0.00  0.00    +0.290 C 
BRANCH  15  16
ATOM     16  N   LIG    1       -4.431   2.055  -4.407  0.00  0.00    -0.340 N 
ATOM     17  H   LIG    1       -3.800   2.550  -5.020  0.00  0.00    +0.420 HD
BRANCH  16  18
ATOM     18  C   LIG    1       -5.809   2.493  -4.665  0.00  0.00    +0.100 C 
ATOM     19  C   LIG    1       -6.068   3.294  -5.943  0.00  0.00    +0.110 C 
ATOM     20  C   LIG    1       -6.101   3.993  -4.582  0.00  0.00    +0.100 C 
ENDBRANCH  16  18
BRANCH  16  22
ATOM     21  C   LIG    1       -4.564   0.327  -6.137  0.00  0.00    +0.080 C 
ATOM     22  C   LIG    1       -4.321   0.611  -4.653  0.00  0.00    +0.250 C 
ENDBRANCH  16  22
ENDBRANCH  15  16
ENDBRANCH   1  15
TORSDOF 5
