REMARK  Name = ZINCkj00000kIYAn.1
REMARK                            x       y       z     vdW  Elec       q    Type
REMARK                         _______ _______ _______ _____ _____    ______ ____
ROOT
ATOM      1  C   LIG    1       -2.501   2.110  -2.760  0.00  0.00    +0.500 C 
ATOM      2  N   LIG    1       -2.024   2.253  -1.508  0.00  0.00    -0.590 N 
ATOM      3  C   LIG    1       -2.927   2.580  -0.396  0.00  0.00    +0.280 C 
ATOM      4  C   LIG    1       -2.735   1.544   0.716  0.00  0.00    +0.020 C 
ATOM      5  C   LIG    1       -1.255   1.485   1.104  0.00  0.00    +0.030 C 
ATOM      6  C   LIG    1       -0.426   1.053  -0.107  0.00  0.00    +0.050 C 
ATOM      7  C   LIG    1       -0.591   2.084  -1.229  0.00  0.00    +0.340 C 
ATOM      8  O   LIG    1       -1.766   1.739  -3.651  0.00  0.00    -0.490 OA
ENDROOT
BRANCH   7   9
ATOM      9  C   LIG    1        0.111   1.597  -2.470  0.00  0.00    +0.180 A 
ATOM     10  N   LIG    1       -0.096   0.463  -3.082  0.00  0.00    -0.250 NA
ATOM     11  N   LIG    1        0.675   0.377  -4.107  0.00  0.00    -0.290 NA
ATOM     12  C   LIG    1        1.416   1.448  -4.191  0.00  0.00    +0.380 A 
ATOM     13  N   LIG    1        1.079   2.253  -3.154  0.00  0.00    -0.580 N 
ATOM     14  H   LIG    1        1.455   3.123  -2.945  0.00  0.00    +0.430 HD
ENDBRANCH   7   9
BRANCH   1  15
ATOM     15  C   LIG    1       -3.948   2.410  -3.054  0.00  0.00    +0.270 C 
BRANCH  15  16
ATOM     16  N   LIG    1       -4.217   2.179  -4.480  0.00  0.00    -0.340 N 
ATOM     17  H   LIG    1       -3.572   2.720  -5.036  0.00  0.00    +0.420 HD
BRANCH  16  18
ATOM     18  C   LIG    1       -4.047   0.752  -4.785  0.00  0.00    +0.090 C 
ATOM     19  C   LIG    1       -2.772   0.334  -5.521  0.00  0.00    +0.150 C 
ATOM     20  C   LIG    1       -4.116   0.330  -6.254  0.00  0.00    +0.070 C 
ENDBRANCH  16  18
BRANCH  16  22
ATOM     21  C   LIG    1       -5.820   2.505  -6.302  0.00  0.00    +0.080 C 
ATOM     22  C   LIG    1       -5.593   2.585  -4.791  0.00  0.00    +0.260 C 
ENDBRANCH  16  22
ENDBRANCH  15  16
ENDBRANCH   1  15
TORSDOF 5
