REMARK  Name = ZINCkj00000kIYAn.0
REMARK                            x       y       z     vdW  Elec       q    Type
REMARK                         _______ _______ _______ _____ _____    ______ ____
ROOT
ATOM      1  C   LIG    1       -2.600   0.631  -0.858  0.00  0.00    +0.500 C 
ATOM      2  N   LIG    1       -3.890   0.336  -1.113  0.00  0.00    -0.590 N 
ATOM      3  C   LIG    1       -4.597  -0.681  -0.323  0.00  0.00    +0.270 C 
ATOM      4  C   LIG    1       -5.884  -0.065   0.236  0.00  0.00    +0.020 C 
ATOM      5  C   LIG    1       -6.706   0.520  -0.914  0.00  0.00    +0.030 C 
ATOM      6  C   LIG    1       -5.904   1.623  -1.608  0.00  0.00    +0.040 C 
ATOM      7  C   LIG    1       -4.619   1.030  -2.184  0.00  0.00    +0.350 C 
ATOM      8  O   LIG    1       -2.054   1.532  -1.458  0.00  0.00    -0.500 OA
ENDROOT
BRANCH   7   9
ATOM      9  C   LIG    1       -3.762   2.136  -2.744  0.00  0.00    +0.240 A 
ATOM     10  N   LIG    1       -3.461   3.250  -2.129  0.00  0.00    -0.290 NA
ATOM     11  N   LIG    1       -2.646   3.988  -3.002  0.00  0.00    -0.470 N 
ATOM     12  H   LIG    1       -2.256   4.861  -2.836  0.00  0.00    +0.440 HD
ATOM     13  C   LIG    1       -2.517   3.248  -4.117  0.00  0.00    +0.490 A 
ATOM     14  N   LIG    1       -3.192   2.139  -3.948  0.00  0.00    -0.540 NA
ENDBRANCH   7   9
BRANCH   1  15
ATOM     15  C   LIG    1       -1.837  -0.160   0.173  0.00  0.00    +0.290 C 
BRANCH  15  16
ATOM     16  N   LIG    1       -0.463   0.352   0.264  0.00  0.00    -0.340 N 
ATOM     17  H   LIG    1       -0.485   1.343   0.453  0.00  0.00    +0.420 HD
BRANCH  16  18
ATOM     18  C   LIG    1        0.235   0.111  -1.006  0.00  0.00    +0.090 C 
ATOM     19  C   LIG    1        0.456   1.310  -1.930  0.00  0.00    +0.120 C 
ATOM     20  C   LIG    1        1.636   0.704  -1.167  0.00  0.00    +0.090 C 
ENDBRANCH  16  18
BRANCH  16  22
ATOM     21  C   LIG    1        1.617   0.309   1.556  0.00  0.00    +0.090 C 
ATOM     22  C   LIG    1        0.246  -0.338   1.350  0.00  0.00    +0.260 C 
ENDBRANCH  16  22
ENDBRANCH  15  16
ENDBRANCH   1  15
TORSDOF 5
