REMARK  Name = ZINCkj000005mh25.0
REMARK                            x       y       z     vdW  Elec       q    Type
REMARK                         _______ _______ _______ _____ _____    ______ ____
ROOT
ATOM      1  O   LIG    1        0.226   4.152  -1.054  0.00  0.00    -0.940 OA
ATOM      2  S   LIG    1        0.560   3.567  -2.305  0.00  0.00    +2.600 S 
ATOM      3  C   LIG    1        0.122   1.810  -2.335  0.00  0.00    -0.350 C 
ATOM      4  C   LIG    1       -0.781   1.477  -1.153  0.00  0.00    +0.330 C 
ATOM      5  N   LIG    1       -0.012   1.010   0.008  0.00  0.00    -0.380 N 
ATOM      6  C   LIG    1        1.356   1.526  -0.003  0.00  0.00    +0.220 C 
ATOM      7  C   LIG    1        2.133   1.098   1.245  0.00  0.00    +0.040 C 
ATOM      8  C   LIG    1        3.617   1.428   1.045  0.00  0.00    +0.050 C 
ATOM      9  C   LIG    1        3.763   2.931   0.797  0.00  0.00    +0.010 C 
ATOM     10  C   LIG    1        3.983   3.185  -0.693  0.00  0.00    +0.010 C 
ATOM     11  C   LIG    1        2.948   4.183  -1.214  0.00  0.00    +0.300 C 
ATOM     12  H   LIG    1        0.002  -0.004   0.002  0.00  0.00    +0.420 HD
ATOM     13  O   LIG    1        0.178   4.194  -3.523  0.00  0.00    -0.920 OA
ATOM     14  N   LIG    1        2.224   3.576  -2.349  0.00  0.00    -1.120 NA
ATOM     15  H   LIG    1        2.713   3.186  -3.099  0.00  0.00    +0.420 HD
ENDROOT
BRANCH   5  16
ATOM     16  C   LIG    1       -0.707   1.444   1.232  0.00  0.00    +0.290 C 
BRANCH  16  17
ATOM     17  C   LIG    1       -2.090   0.793   1.291  0.00  0.00    +0.150 C 
ATOM     18  C   LIG    1       -2.812   1.245   2.563  0.00  0.00    +0.030 C 
ATOM     19  C   LIG    1       -4.218   0.637   2.585  0.00  0.00    +0.030 C 
ATOM     20  C   LIG    1       -4.964   1.055   1.314  0.00  0.00    +0.000 C 
ATOM     21  C   LIG    1       -4.158   0.611   0.090  0.00  0.00    +0.230 C 
ATOM     22  O   LIG    1       -2.851   1.187   0.147  0.00  0.00    -0.390 OA
ENDBRANCH  16  17
ENDBRANCH   5  16
TORSDOF 2
