REMARK  Name = ZINCkj000005mh25.1
REMARK                            x       y       z     vdW  Elec       q    Type
REMARK                         _______ _______ _______ _____ _____    ______ ____
ROOT
ATOM      1  O   LIG    1        4.442   4.505  -4.263  0.00  0.00    -0.920 OA
ATOM      2  S   LIG    1        3.048   4.722  -4.087  0.00  0.00    +2.610 S 
ATOM      3  C   LIG    1        2.548   4.291  -2.395  0.00  0.00    -0.370 C 
ATOM      4  C   LIG    1        1.170   3.635  -2.424  0.00  0.00    +0.300 C 
ATOM      5  N   LIG    1        0.399   3.956  -1.222  0.00  0.00    -0.380 N 
ATOM      6  C   LIG    1        0.095   5.389  -1.160  0.00  0.00    +0.250 C 
ATOM      7  C   LIG    1       -0.946   5.747  -2.223  0.00  0.00    +0.030 C 
ATOM      8  C   LIG    1       -1.080   7.269  -2.312  0.00  0.00    +0.040 C 
ATOM      9  C   LIG    1       -0.536   7.753  -3.657  0.00  0.00    +0.030 C 
ATOM     10  C   LIG    1        0.990   7.834  -3.596  0.00  0.00    +0.010 C 
ATOM     11  C   LIG    1        1.595   6.910  -4.655  0.00  0.00    +0.290 C 
ATOM     12  H   LIG    1       -0.478   3.441  -1.250  0.00  0.00    +0.440 HD
ATOM     13  O   LIG    1        2.106   4.231  -5.029  0.00  0.00    -0.930 OA
ATOM     14  N   LIG    1        2.877   6.379  -4.146  0.00  0.00    -1.110 NA
ATOM     15  H   LIG    1        3.592   6.971  -3.860  0.00  0.00    +0.430 HD
ENDROOT
BRANCH   5  16
ATOM     16  C   LIG    1        1.135   3.549  -0.018  0.00  0.00    +0.280 C 
BRANCH  16  17
ATOM     17  C   LIG    1        1.279   2.026   0.001  0.00  0.00    +0.140 C 
ATOM     18  C   LIG    1        2.046   1.601   1.256  0.00  0.00    +0.010 C 
ATOM     19  C   LIG    1        2.133   0.073   1.299  0.00  0.00    +0.020 C 
ATOM     20  C   LIG    1        0.718  -0.510   1.257  0.00  0.00    +0.010 C 
ATOM     21  C   LIG    1        0.002  -0.004   0.002  0.00  0.00    +0.230 C 
ATOM     22  O   LIG    1       -0.017   1.425   0.010  0.00  0.00    -0.390 OA
ENDBRANCH  16  17
ENDBRANCH   5  16
TORSDOF 2
