REMARK  Name = ZINCrD0000071prF.0
REMARK                            x       y       z     vdW  Elec       q    Type
REMARK                         _______ _______ _______ _____ _____    ______ ____
ROOT
ATOM      1  C   LIG    1       -4.666   5.049  -2.867  0.00  0.00    +0.410 C 
ENDROOT
BRANCH   1   2
ATOM      2  N   LIG    1       -5.942   5.763  -2.775  0.00  0.00    -0.570 N 
ATOM      3  C   LIG    1       -7.138   5.164  -2.734  0.00  0.00    +0.710 C 
ATOM      4  N   LIG    1       -8.152   6.046  -2.647  0.00  0.00    -0.710 N 
ATOM      5  H   LIG    1       -9.099   5.840  -2.602  0.00  0.00    +0.440 HD
ATOM      6  C   LIG    1       -7.542   7.381  -2.639  0.00  0.00    +0.130 C 
ATOM      7  C   LIG    1       -8.006   8.188  -3.847  0.00  0.00    +0.050 C 
ATOM      8  C   LIG    1       -9.514   8.432  -3.752  0.00  0.00    +0.030 C 
ATOM      9  C   LIG    1       -9.828   9.189  -2.460  0.00  0.00    +0.010 C 
ATOM     10  C   LIG    1       -9.379   8.356  -1.258  0.00  0.00    +0.040 C 
ATOM     11  C   LIG    1       -7.870   8.112  -1.342  0.00  0.00    +0.020 C 
ATOM     12  C   LIG    1       -7.424   7.262  -0.151  0.00  0.00    +0.040 C 
ATOM     13  O   LIG    1       -7.292   3.958  -2.768  0.00  0.00    -0.540 OA
ATOM     14  C   LIG    1       -6.058   7.106  -2.728  0.00  0.00    +0.540 C 
ATOM     15  O   LIG    1       -5.161   7.922  -2.753  0.00  0.00    -0.460 OA
ENDBRANCH   1   2
BRANCH   1  16
ATOM     16  C   LIG    1       -4.151   4.762  -1.481  0.00  0.00    +0.450 C 
ATOM     17  O   LIG    1       -4.784   5.116  -0.515  0.00  0.00    -0.490 OA
BRANCH  16  18
ATOM     18  O   LIG    1       -2.988   4.111  -1.319  0.00  0.00    -0.350 OA
BRANCH  18  19
ATOM     19  C   LIG    1       -2.553   3.869   0.045  0.00  0.00    +0.270 C 
BRANCH  19  23
ATOM     20  C   LIG    1        1.175   1.783   0.000  0.00  0.00    -0.060 A 
ATOM     21  C   LIG    1       -0.013   1.076   0.008  0.00  0.00    +0.010 A 
ATOM     22  C   LIG    1       -1.219   1.751   0.017  0.00  0.00    +0.030 A 
ATOM     23  C   LIG    1       -1.238   3.133   0.030  0.00  0.00    -0.110 A 
ATOM     24  C   LIG    1       -0.050   3.840   0.022  0.00  0.00    +0.030 A 
ATOM     25  C   LIG    1        1.156   3.165   0.008  0.00  0.00    +0.010 A 
BRANCH  20  27
ATOM     26  C   LIG    1        3.275   1.435  -1.271  0.00  0.00    +0.030 C 
ATOM     27  C   LIG    1        2.490   1.048  -0.016  0.00  0.00    +0.020 C 
ATOM     28  C   LIG    1        3.299   1.421   1.228  0.00  0.00    +0.030 C 
ENDBRANCH  20  27
ENDBRANCH  19  23
ENDBRANCH  18  19
ENDBRANCH  16  18
ENDBRANCH   1  16
TORSDOF 6
