REMARK  Name = ZINCvU00000005LM.0
REMARK                            x       y       z     vdW  Elec       q    Type
REMARK                         _______ _______ _______ _____ _____    ______ ____
ROOT
ATOM      1  O   LIG    1       -0.314  -2.855   0.347  0.00  0.00    -0.470 OA
ATOM      2  C   LIG    1       -1.328  -2.203   0.189  0.00  0.00    +0.560 C 
ATOM      3  N   LIG    1       -2.510  -2.828   0.012  0.00  0.00    -0.670 N 
ATOM      4  H   LIG    1       -3.329  -2.311  -0.037  0.00  0.00    +0.410 HD
ENDROOT
BRANCH   2   5
ATOM      5  C   LIG    1       -1.266  -0.731   0.190  0.00  0.00    -0.110 A 
ATOM      6  C   LIG    1        0.010  -0.035   0.381  0.00  0.00    +0.130 A 
ATOM      7  N   LIG    1        1.139  -0.706   0.557  0.00  0.00    -0.380 NA
ATOM      8  C   LIG    1        2.277  -0.038   0.727  0.00  0.00    +0.110 A 
ATOM      9  C   LIG    1        3.499  -0.716   0.917  0.00  0.00    +0.070 A 
ATOM     10  C   LIG    1        4.642  -0.004   1.087  0.00  0.00    +0.050 A 
ATOM     11  C   LIG    1        4.644   1.392   1.080  0.00  0.00    +0.050 A 
ATOM     12  C   LIG    1        3.504   2.107   0.903  0.00  0.00    +0.050 A 
ATOM     13  C   LIG    1        2.279   1.430   0.720  0.00  0.00    +0.100 A 
ATOM     14  N   LIG    1        1.145   2.100   0.543  0.00  0.00    -0.410 NA
ATOM     15  C   LIG    1        0.009   1.432   0.373  0.00  0.00    +0.100 A 
ATOM     16  C   LIG    1       -1.215   2.110   0.189  0.00  0.00    +0.100 A 
ATOM     17  C   LIG    1       -2.368   1.416   0.011  0.00  0.00    +0.040 A 
ATOM     18  C   LIG    1       -2.413   0.026   0.012  0.00  0.00    +0.100 A 
ENDBRANCH   2   5
BRANCH   3  19
ATOM     19  C   LIG    1       -2.554  -4.218  -0.100  0.00  0.00    +0.190 A 
ATOM     20  C   LIG    1       -1.497  -4.888  -0.734  0.00  0.00    +0.060 A 
ATOM     21  C   LIG    1       -1.488  -6.237  -0.864  0.00  0.00    +0.090 A 
ATOM     22  C   LIG    1       -2.568  -6.996  -0.363  0.00  0.00    +0.100 A 
ATOM     23  N   LIG    1       -2.588  -8.319  -0.481  0.00  0.00    -0.410 NA
ATOM     24  C   LIG    1       -3.619  -9.005   0.002  0.00  0.00    +0.100 A 
ATOM     25  C   LIG    1       -3.671 -10.412  -0.106  0.00  0.00    +0.060 A 
ATOM     26  C   LIG    1       -4.738 -11.083   0.397  0.00  0.00    +0.040 A 
ATOM     27  C   LIG    1       -5.794 -10.419   1.024  0.00  0.00    +0.050 A 
ATOM     28  C   LIG    1       -5.806  -9.069   1.161  0.00  0.00    +0.050 A 
ATOM     29  C   LIG    1       -4.729  -8.307   0.661  0.00  0.00    +0.110 A 
ATOM     30  N   LIG    1       -4.710  -6.984   0.779  0.00  0.00    -0.420 NA
ATOM     31  C   LIG    1       -3.679  -6.297   0.297  0.00  0.00    +0.130 A 
ATOM     32  C   LIG    1       -3.627  -4.893   0.406  0.00  0.00    +0.020 A 
ENDBRANCH   3  19
TORSDOF 2
