REMARK  Name = ZINCpk000000mRf7.0
REMARK                            x       y       z     vdW  Elec       q    Type
REMARK                         _______ _______ _______ _____ _____    ______ ____
ROOT
ATOM      1  C   LIG    1        3.272   3.033  -1.137  0.00  0.00    +0.150 A 
ATOM      2  N   LIG    1        3.857   3.593  -2.175  0.00  0.00    -0.240 NA
ATOM      3  N   LIG    1        4.946   4.157  -1.780  0.00  0.00    -0.250 N 
ATOM      4  C   LIG    1        5.077   3.952  -0.454  0.00  0.00    +0.230 A 
ATOM      5  C   LIG    1        6.210   4.436   0.414  0.00  0.00    +0.210 C 
ATOM      6  N   LIG    1        4.041   3.257  -0.056  0.00  0.00    -0.480 NA
ENDROOT
BRANCH   1  15
ATOM      7  C   LIG    1        4.655  -1.129   0.506  0.00  0.00    +0.090 C 
ATOM      8  C   LIG    1        3.181  -1.350   0.728  0.00  0.00    +0.510 C 
ATOM      9  N   LIG    1        2.425  -0.367   1.257  0.00  0.00    -0.610 N 
ATOM     10  C   LIG    1        1.024  -0.602   1.458  0.00  0.00    +0.290 C 
ATOM     11  C   LIG    1        0.292  -0.257   0.150  0.00  0.00    +0.000 C 
ATOM     12  C   LIG    1        0.121   1.195  -0.015  0.00  0.00    +0.290 C 
ATOM     13  N   LIG    1        1.439   1.874  -0.001  0.00  0.00    -0.580 N 
ATOM     14  C   LIG    1        2.122   2.093   1.243  0.00  0.00    +0.290 C 
ATOM     15  C   LIG    1        1.997   2.285  -1.157  0.00  0.00    +0.610 C 
ATOM     16  O   LIG    1        1.452   2.040  -2.216  0.00  0.00    -0.510 OA
ATOM     17  C   LIG    1        3.070   0.926   1.614  0.00  0.00    +0.270 C 
ATOM     18  O   LIG    1        2.675  -2.411   0.431  0.00  0.00    -0.540 OA
ENDBRANCH   1  15
BRANCH   3  19
ATOM     19  C   LIG    1        5.845   4.861  -2.593  0.00  0.00    +0.100 A 
ATOM     20  C   LIG    1        5.370   5.736  -3.561  0.00  0.00    +0.090 A 
ATOM     21  C   LIG    1        6.257   6.431  -4.358  0.00  0.00    +0.010 A 
ATOM     22  C   LIG    1        7.621   6.248  -4.200  0.00  0.00    +0.120 A 
ATOM     23  C   LIG    1        8.097   5.372  -3.239  0.00  0.00    +0.010 A 
ATOM     24  F   LIG    1        8.488   6.926  -4.984  0.00  0.00    -0.130 F 
ATOM     25  C   LIG    1        7.213   4.679  -2.436  0.00  0.00    +0.070 A 
ENDBRANCH   3  19
TORSDOF 2
