REMARK  Name = ZINCvU0000000FtK.0
REMARK                            x       y       z     vdW  Elec       q    Type
REMARK                         _______ _______ _______ _____ _____    ______ ____
ROOT
ATOM      1  O   LIG    1        3.451   1.566  -2.086  0.00  0.00    -0.530 OA
ATOM      2  C   LIG    1        4.062   0.602  -2.497  0.00  0.00    +0.540 C 
ATOM      3  N   LIG    1        3.654  -0.641  -2.174  0.00  0.00    -0.620 N 
ATOM      4  C   LIG    1        4.355  -1.891  -2.519  0.00  0.00    +0.250 C 
ATOM      5  C   LIG    1        3.253  -2.981  -2.505  0.00  0.00    +0.030 C 
ATOM      6  C   LIG    1        2.370  -2.514  -1.317  0.00  0.00    +0.030 C 
ATOM      7  C   LIG    1        2.437  -0.976  -1.420  0.00  0.00    +0.230 C 
ENDROOT
BRANCH   2   8
ATOM      8  C   LIG    1        5.277   0.795  -3.367  0.00  0.00    -0.010 C 
ATOM      9  C   LIG    1        6.500   0.178  -2.683  0.00  0.00    +0.050 C 
ATOM     10  C   LIG    1        7.740   0.430  -3.543  0.00  0.00    +0.200 C 
ATOM     11  N   LIG    1        7.931   1.876  -3.717  0.00  0.00    -0.470 N 
ATOM     12  C   LIG    1        6.790   2.482  -4.414  0.00  0.00    +0.210 C 
ATOM     13  C   LIG    1        5.521   2.292  -3.580  0.00  0.00    +0.060 C 
BRANCH  11  14
ATOM     14  C   LIG    1        9.122   2.145  -4.383  0.00  0.00    +0.320 A 
ATOM     15  C   LIG    1       10.321   1.654  -3.876  0.00  0.00    -0.030 A 
ATOM     16  C   LIG    1       11.498   1.928  -4.549  0.00  0.00    +0.110 A 
ATOM     17  C   LIG    1       11.437   2.687  -5.710  0.00  0.00    -0.120 A 
ATOM     18  C   LIG    1       10.211   3.143  -6.157  0.00  0.00    +0.310 A 
ATOM     19 CL   LIG    1       12.885   3.061  -6.592  0.00  0.00    -0.050 Cl
ATOM     20  N   LIG    1        9.104   2.861  -5.497  0.00  0.00    -0.510 NA
ENDBRANCH  11  14
ENDBRANCH   2   8
BRANCH   7  21
ATOM     21  C   LIG    1        2.507  -0.363  -0.020  0.00  0.00    +0.070 C 
BRANCH  21  22
ATOM     22  C   LIG    1        1.200  -0.590   0.694  0.00  0.00    -0.070 A 
ATOM     23  C   LIG    1        0.145   0.241   0.470  0.00  0.00    +0.010 A 
ATOM     24  C   LIG    1       -1.072   0.047   1.121  0.00  0.00    +0.010 A 
ATOM     25  C   LIG    1       -1.242  -0.979   1.999  0.00  0.00    +0.020 A 
ATOM     26  C   LIG    1       -0.175  -1.858   2.256  0.00  0.00    -0.050 A 
ATOM     27  C   LIG    1       -0.312  -2.928   3.155  0.00  0.00    +0.030 A 
ATOM     28  C   LIG    1        0.742  -3.759   3.379  0.00  0.00    +0.000 A 
ATOM     29  C   LIG    1        1.957  -3.569   2.724  0.00  0.00    +0.000 A 
ATOM     30  C   LIG    1        2.129  -2.539   1.850  0.00  0.00    +0.020 A 
ATOM     31  C   LIG    1        1.063  -1.661   1.594  0.00  0.00    -0.040 A 
ENDBRANCH  21  22
ENDBRANCH   7  21
TORSDOF 4
