REMARK  Name = ZINCkj000005fJuH.0
REMARK                            x       y       z     vdW  Elec       q    Type
REMARK                         _______ _______ _______ _____ _____    ______ ____
ROOT
ATOM      1  N   LIG    1       -3.220   4.607  -1.527  0.00  0.00    -0.990 NA
ENDROOT
BRANCH   1   2
ATOM      2  C   LIG    1       -3.987   3.613  -2.282  0.00  0.00    +0.280 C 
ATOM      3  C   LIG    1       -5.333   3.326  -1.577  0.00  0.00    +0.070 C 
ATOM      4  C   LIG    1       -5.498   1.795  -1.759  0.00  0.00    +0.290 C 
ATOM      5  N   LIG    1       -4.112   1.282  -1.612  0.00  0.00    -0.520 N 
ATOM      6  H   LIG    1       -3.863   1.222  -0.636  0.00  0.00    +0.440 HD
ATOM      7  H   LIG    1       -4.027   0.378  -2.050  0.00  0.00    +0.440 HD
ATOM      8  C   LIG    1       -3.244   2.264  -2.299  0.00  0.00    +0.230 C 
ENDBRANCH   1   2
BRANCH   1   9
ATOM      9  S   LIG    1       -2.747   4.282   0.026  0.00  0.00    +2.690 S 
ATOM     10  O   LIG    1       -2.739   5.527   0.712  0.00  0.00    -0.920 OA
ATOM     11  O   LIG    1       -3.513   3.165   0.454  0.00  0.00    -0.970 OA
BRANCH   9  12
ATOM     12  C   LIG    1       -1.072   3.741  -0.041  0.00  0.00    -0.690 A 
ATOM     13  C   LIG    1       -0.044   4.662   0.056  0.00  0.00    +0.170 A 
ATOM     14  C   LIG    1        1.275   4.245   0.003  0.00  0.00    +0.040 A 
ATOM     15  C   LIG    1        1.573   2.907  -0.147  0.00  0.00    +0.140 A 
ATOM     16  C   LIG    1        0.540   1.972  -0.245  0.00  0.00    -0.030 A 
ATOM     17  C   LIG    1       -0.788   2.400  -0.197  0.00  0.00    +0.130 A 
BRANCH  16  18
ATOM     18  C   LIG    1        0.843   0.581  -0.402  0.00  0.00    +0.230 C 
ATOM     19  N   LIG    1        1.082  -0.523  -0.525  0.00  0.00    -0.380 NA
ENDBRANCH  16  18
ENDBRANCH   9  12
ENDBRANCH   1   9
BRANCH   1  20
ATOM     20  C   LIG    1       -2.872   5.888  -2.146  0.00  0.00    +0.310 C 
BRANCH  20  22
ATOM     21  C   LIG    1       -1.338   7.015  -3.765  0.00  0.00    +0.020 C 
ATOM     22  C   LIG    1       -1.629   5.710  -3.021  0.00  0.00    -0.010 C 
ENDBRANCH  20  22
ENDBRANCH   1  20
TORSDOF 6
