REMARK  Name = ZINCqH0000006ZpC.0
REMARK                            x       y       z     vdW  Elec       q    Type
REMARK                         _______ _______ _______ _____ _____    ______ ____
ROOT
ATOM      1  C   LIG    1       -1.375   7.421   1.278  0.00  0.00    +0.130 A 
ATOM      2  N   LIG    1       -1.525   6.128   1.276  0.00  0.00    -0.440 NA
ATOM      3  C   LIG    1       -2.316   5.620   0.359  0.00  0.00    +0.080 A 
ATOM      4  C   LIG    1       -2.878   6.498  -0.478  0.00  0.00    -0.060 A 
ATOM      5  S   LIG    1       -2.338   8.114  -0.024  0.00  0.00    +0.090 S 
ENDROOT
BRANCH   1   9
ATOM      6  C   LIG    1        1.048   9.616   3.998  0.00  0.00    +0.120 A 
ATOM      7  C   LIG    1        0.970   8.235   4.097  0.00  0.00    -0.040 A 
ATOM      8  C   LIG    1        0.185   7.520   3.216  0.00  0.00    +0.080 A 
ATOM      9  C   LIG    1       -0.533   8.186   2.223  0.00  0.00    -0.030 A 
ATOM     10  C   LIG    1       -0.451   9.576   2.119  0.00  0.00    -0.010 A 
ATOM     11  C   LIG    1        0.333  10.287   3.008  0.00  0.00    +0.100 A 
BRANCH   6  13
ATOM     12  C   LIG    1        2.528   9.565   5.858  0.00  0.00    +0.240 C 
ATOM     13  O   LIG    1        1.822  10.316   4.868  0.00  0.00    -0.300 OA
ENDBRANCH   6  13
BRANCH  11  14
ATOM     14  O   LIG    1        0.411  11.642   2.913  0.00  0.00    -0.300 OA
ATOM     15  C   LIG    1       -0.348  12.264   1.874  0.00  0.00    +0.240 C 
ENDBRANCH  11  14
ENDBRANCH   1   9
BRANCH   3  16
ATOM     16  C   LIG    1       -2.570   4.138   0.252  0.00  0.00    +0.160 C 
BRANCH  16  17
ATOM     17  C   LIG    1       -1.256   3.411   0.128  0.00  0.00    +0.510 C 
ATOM     18  N   LIG    1       -1.237   2.068   0.019  0.00  0.00    -0.680 N 
ATOM     19  H   LIG    1       -2.070   1.575  -0.057  0.00  0.00    +0.410 HD
ATOM     20  O   LIG    1       -0.216   4.034   0.127  0.00  0.00    -0.490 OA
BRANCH  18  21
ATOM     21  C   LIG    1       -0.017   1.383   0.015  0.00  0.00    +0.160 A 
ATOM     22  C   LIG    1        0.127   0.222  -0.733  0.00  0.00    -0.030 A 
ATOM     23  C   LIG    1        1.330  -0.457  -0.732  0.00  0.00    +0.050 A 
ATOM     24  C   LIG    1        2.393   0.017   0.013  0.00  0.00    -0.030 A 
ATOM     25  C   LIG    1        2.255   1.177   0.762  0.00  0.00    +0.130 A 
ATOM     26  C   LIG    1        1.050   1.861   0.764  0.00  0.00    -0.010 A 
BRANCH  25  27
ATOM     27  O   LIG    1        3.302   1.642   1.494  0.00  0.00    -0.500 OA
ATOM     28  H   LIG    1        3.334   1.298   2.397  0.00  0.00    +0.390 HD
ENDBRANCH  25  27
ENDBRANCH  18  21
ENDBRANCH  16  17
ENDBRANCH   3  16
TORSDOF 7
