REMARK  Name = ZINCpk00000KfKFO.0
REMARK                            x       y       z     vdW  Elec       q    Type
REMARK                         _______ _______ _______ _____ _____    ______ ____
ROOT
ATOM      1  N   LIG    1       -0.613   3.202   3.442  0.00  0.00    -0.710 N 
ATOM      2  H   LIG    1       -0.332   3.562   2.587  0.00  0.00    +0.410 HD
ATOM      3  C   LIG    1       -0.985   4.035   4.434  0.00  0.00    +0.560 C 
ATOM      4  O   LIG    1       -1.337   3.584   5.507  0.00  0.00    -0.540 OA
ENDROOT
BRANCH   3   5
ATOM      5  C   LIG    1       -0.964   5.496   4.218  0.00  0.00    -0.140 A 
ATOM      6  C   LIG    1       -0.553   6.016   2.988  0.00  0.00    +0.080 A 
ATOM      7  C   LIG    1       -0.541   7.379   2.788  0.00  0.00    +0.000 A 
ATOM      8  C   LIG    1       -0.924   8.237   3.813  0.00  0.00    +0.180 A 
ATOM      9  C   LIG    1       -1.328   7.723   5.040  0.00  0.00    +0.030 A 
ATOM     10  C   LIG    1       -1.348   6.361   5.245  0.00  0.00    +0.120 A 
BRANCH   8  11
ATOM     11  N   LIG    1       -0.904   9.620   3.608  0.00  0.00    -0.340 N 
ATOM     12  C   LIG    1       -0.535  10.266   2.484  0.00  0.00    +0.500 A 
ATOM     13  N   LIG    1       -0.661  11.551   2.695  0.00  0.00    -0.530 NA
ATOM     14  C   LIG    1       -1.095  11.765   3.937  0.00  0.00    +0.440 A 
ATOM     15  N   LIG    1       -1.259  10.614   4.535  0.00  0.00    -0.310 NA
ENDBRANCH   8  11
ENDBRANCH   3   5
BRANCH   1  16
ATOM     16  C   LIG    1       -0.634   1.753   3.657  0.00  0.00    +0.270 C 
BRANCH  16  17
ATOM     17  C   LIG    1       -0.293   1.039   2.347  0.00  0.00    +0.160 C 
ATOM     18  C   LIG    1       -0.428  -0.473   2.541  0.00  0.00    +0.010 C 
BRANCH  17  22
ATOM     19  C   LIG    1       -3.420   3.232   0.478  0.00  0.00    +0.020 C 
ATOM     20  C   LIG    1       -3.539   1.708   0.557  0.00  0.00    +0.190 C 
ATOM     21  C   LIG    1       -2.609   1.179   1.651  0.00  0.00    +0.160 C 
ATOM     22  N   LIG    1       -1.216   1.482   1.293  0.00  0.00    -0.530 NA
ATOM     23  C   LIG    1       -0.867   0.879  -0.001  0.00  0.00    +0.160 C 
ATOM     24  C   LIG    1       -1.815   1.412  -1.079  0.00  0.00    +0.160 C 
ATOM     25  C   LIG    1       -1.509   0.727  -2.413  0.00  0.00    +0.050 C 
ATOM     26  O   LIG    1       -3.165   1.135  -0.699  0.00  0.00    -0.380 OA
ENDBRANCH  17  22
ENDBRANCH  16  17
ENDBRANCH   1  16
TORSDOF 5
