REMARK  Name = ZINCrH00000No50n.0
REMARK                            x       y       z     vdW  Elec       q    Type
REMARK                         _______ _______ _______ _____ _____    ______ ____
ROOT
ATOM      1  N   LIG    1       -3.257   3.523   1.296  0.00  0.00    -0.590 NA
ATOM      2  C   LIG    1       -4.495   3.951   1.055  0.00  0.00    +0.380 A 
ATOM      3  S   LIG    1       -5.951   3.038   1.168  0.00  0.00    +0.170 S 
ATOM      4  C   LIG    1       -7.007   4.379   0.691  0.00  0.00    -0.050 A 
ATOM      5  C   LIG    1       -6.197   5.410   0.482  0.00  0.00    +0.260 A 
ATOM      6  N   LIG    1       -4.869   5.197   0.677  0.00  0.00    -0.520 N 
ENDROOT
BRANCH   1   7
ATOM      7  C   LIG    1       -2.239   4.386   1.292  0.00  0.00    +0.560 C 
ATOM      8  O   LIG    1       -1.609   4.580   0.266  0.00  0.00    -0.470 OA
BRANCH   7  15
ATOM      9  C   LIG    1       -0.178   6.416   1.216  0.00  0.00    +0.120 C 
ATOM     10  C   LIG    1       -0.883   6.089   2.507  0.00  0.00    +0.030 A 
ATOM     11  C   LIG    1       -0.548   6.758   3.666  0.00  0.00    -0.010 A 
ATOM     12  C   LIG    1       -1.194   6.458   4.853  0.00  0.00    +0.160 A 
ATOM     13  C   LIG    1       -2.179   5.487   4.884  0.00  0.00    -0.680 A 
ATOM     14  C   LIG    1       -2.518   4.807   3.733  0.00  0.00    +0.180 A 
ATOM     15  C   LIG    1       -1.875   5.108   2.533  0.00  0.00    -0.190 A 
BRANCH  13  16
ATOM     16  S   LIG    1       -2.996   5.113   6.400  0.00  0.00    +2.500 S 
ATOM     17  O   LIG    1       -2.054   5.469   7.403  0.00  0.00    -0.930 OA
ATOM     18  O   LIG    1       -3.426   3.768   6.243  0.00  0.00    -0.930 OA
ATOM     19  C   LIG    1       -4.420   6.237   6.436  0.00  0.00    -0.250 C 
ENDBRANCH  13  16
ENDBRANCH   7  15
ENDBRANCH   1   7
BRANCH   6  20
ATOM     20  C   LIG    1       -3.886   6.265   0.482  0.00  0.00    +0.320 C 
BRANCH  20  21
ATOM     21  C   LIG    1       -4.194   7.005  -0.794  0.00  0.00    -0.110 A 
ATOM     22  C   LIG    1       -4.691   8.293  -0.744  0.00  0.00    +0.040 A 
ATOM     23  C   LIG    1       -4.974   8.972  -1.915  0.00  0.00    +0.010 A 
ATOM     24  C   LIG    1       -4.760   8.362  -3.136  0.00  0.00    +0.050 A 
ATOM     25  C   LIG    1       -4.263   7.073  -3.188  0.00  0.00    +0.030 A 
ATOM     26  C   LIG    1       -3.974   6.396  -2.017  0.00  0.00    -0.020 A 
ATOM     27 CL   LIG    1       -3.342   4.780  -2.082  0.00  0.00    -0.040 Cl
ENDBRANCH  20  21
ENDBRANCH   6  20
TORSDOF 5
