REMARK  Name = ZINCrD00000l6ihe.0
REMARK                            x       y       z     vdW  Elec       q    Type
REMARK                         _______ _______ _______ _____ _____    ______ ____
ROOT
ATOM      1  C   LIG    1       -4.321   1.144  -5.241  0.00  0.00    +0.460 C 
ATOM      2  O   LIG    1       -3.894   1.956  -6.028  0.00  0.00    -0.490 OA
ENDROOT
BRANCH   1   3
ATOM      3  C   LIG    1       -5.465   0.244  -5.633  0.00  0.00    +0.270 C 
ATOM      4  C   LIG    1       -4.925  -1.144  -6.036  0.00  0.00    +0.080 C 
ATOM      5  C   LIG    1       -5.832  -1.535  -7.233  0.00  0.00    +0.060 C 
ATOM      6  C   LIG    1       -6.054  -0.163  -7.916  0.00  0.00    +0.250 C 
ATOM      7  N   LIG    1       -6.159   0.800  -6.804  0.00  0.00    -0.600 N 
ATOM      8  C   LIG    1       -6.787   1.991  -6.853  0.00  0.00    +0.620 C 
ATOM      9  O   LIG    1       -6.900   2.661  -5.844  0.00  0.00    -0.520 OA
BRANCH   8  10
ATOM     10  C   LIG    1       -7.335   2.479  -8.122  0.00  0.00    -0.270 A 
ATOM     11  C   LIG    1       -8.094   3.605  -8.277  0.00  0.00    +0.100 A 
ATOM     12  C   LIG    1       -8.473   3.830  -9.579  0.00  0.00    +0.000 A 
ATOM     13  C   LIG    1       -8.049   2.916 -10.460  0.00  0.00    -0.070 A 
ATOM     14  S   LIG    1       -7.128   1.705  -9.688  0.00  0.00    +0.220 S 
ENDBRANCH   8  10
ENDBRANCH   1   3
BRANCH   1  15
ATOM     15  O   LIG    1       -3.777   1.044  -4.019  0.00  0.00    -0.330 OA
BRANCH  15  16
ATOM     16  C   LIG    1       -2.679   1.942  -3.710  0.00  0.00    +0.250 C 
BRANCH  16  19
ATOM     17  C   LIG    1       -0.539   3.442  -2.613  0.00  0.00    +0.290 C 
ATOM     18  N   LIG    1       -1.181   2.408  -1.797  0.00  0.00    -0.610 N 
ATOM     19  C   LIG    1       -2.200   1.686  -2.304  0.00  0.00    +0.520 C 
ATOM     20  O   LIG    1       -2.731   0.830  -1.629  0.00  0.00    -0.510 OA
BRANCH  18  21
ATOM     21  C   LIG    1       -0.715   2.158  -0.431  0.00  0.00    +0.400 C 
BRANCH  21  22
ATOM     22  C   LIG    1        0.369   1.112  -0.453  0.00  0.00    -0.200 A 
ATOM     23  C   LIG    1        1.674   1.359  -0.583  0.00  0.00    +0.050 A 
ATOM     24  C   LIG    1        2.483   0.235  -0.582  0.00  0.00    -0.110 A 
ATOM     25  C   LIG    1        1.835  -0.924  -0.451  0.00  0.00    -0.020 A 
ATOM     26 BR   LIG    1        4.364   0.336  -0.753  0.00  0.00    -0.030 Br
ATOM     27  S   LIG    1        0.108  -0.622  -0.319  0.00  0.00    +0.190 S 
ENDBRANCH  21  22
ENDBRANCH  18  21
ENDBRANCH  16  19
ENDBRANCH  15  16
ENDBRANCH   1  15
TORSDOF 7
