REMARK  Name = ZINCrH000004ruXa.0
REMARK                            x       y       z     vdW  Elec       q    Type
REMARK                         _______ _______ _______ _____ _____    ______ ____
ROOT
ATOM      1  C   LIG    1       -1.232   3.147   0.039  0.00  0.00    +0.100 A 
ATOM      2  C   LIG    1       -1.194   1.777  -0.189  0.00  0.00    +0.060 A 
ATOM      3  C   LIG    1        0.015   1.111  -0.190  0.00  0.00    +0.000 A 
ATOM      4  C   LIG    1        1.193   1.810   0.025  0.00  0.00    +0.140 A 
ATOM      5  C   LIG    1        1.157   3.179   0.246  0.00  0.00    -0.050 A 
ATOM      6  C   LIG    1       -0.052   3.846   0.254  0.00  0.00    +0.070 A 
ENDROOT
BRANCH   1   7
ATOM      7  N   LIG    1       -2.457   3.822   0.046  0.00  0.00    -0.950 N 
ATOM      8  C   LIG    1       -3.491   3.454   1.017  0.00  0.00    +0.310 C 
BRANCH   7   9
ATOM      9  S   LIG    1       -2.740   5.037  -1.043  0.00  0.00    +2.680 S 
ATOM     10  O   LIG    1       -1.469   5.438  -1.536  0.00  0.00    -0.940 OA
ATOM     11  O   LIG    1       -3.649   5.933  -0.419  0.00  0.00    -0.950 OA
BRANCH   9  16
ATOM     12  C   LIG    1       -5.685   2.601  -5.712  0.00  0.00    +0.090 C 
ATOM     13  C   LIG    1       -4.950   3.209  -4.546  0.00  0.00    -0.030 A 
ATOM     14  C   LIG    1       -5.657   3.725  -3.476  0.00  0.00    -0.010 A 
ATOM     15  C   LIG    1       -4.982   4.283  -2.406  0.00  0.00    +0.120 A 
ATOM     16  C   LIG    1       -3.600   4.325  -2.407  0.00  0.00    -0.680 A 
ATOM     17  C   LIG    1       -2.893   3.814  -3.479  0.00  0.00    +0.130 A 
ATOM     18  C   LIG    1       -3.568   3.251  -4.546  0.00  0.00    -0.010 A 
ENDBRANCH   9  16
ENDBRANCH   7   9
ENDBRANCH   1   7
BRANCH   4  19
ATOM     19  O   LIG    1        2.384   1.154   0.017  0.00  0.00    -0.310 OA
BRANCH  19  20
ATOM     20  C   LIG    1        3.558   1.937   0.245  0.00  0.00    +0.320 C 
BRANCH  20  21
ATOM     21  C   LIG    1        4.773   1.046   0.201  0.00  0.00    +0.080 A 
ATOM     22  N   LIG    1        6.012   1.430   0.369  0.00  0.00    -0.260 NA
ATOM     23  N   LIG    1        6.839   0.305   0.254  0.00  0.00    -0.360 N 
ATOM     24  C   LIG    1        6.053  -0.765   0.011  0.00  0.00    +0.120 A 
ATOM     25 CL   LIG    1        6.591  -2.401  -0.212  0.00  0.00    +0.000 Cl
ATOM     26  C   LIG    1        8.299   0.293   0.376  0.00  0.00    +0.360 C 
ATOM     27  C   LIG    1        4.769  -0.335  -0.021  0.00  0.00    -0.050 A 
ENDBRANCH  20  21
ENDBRANCH  19  20
ENDBRANCH   4  19
TORSDOF 6
