REMARK  Name = ZINCqH0000001AsB.0
REMARK                            x       y       z     vdW  Elec       q    Type
REMARK                         _______ _______ _______ _____ _____    ______ ____
ROOT
ATOM      1  N   LIG    1        1.362   1.593  -0.002  0.00  0.00    -0.690 N 
ATOM      2  H   LIG    1        1.583   2.404   0.482  0.00  0.00    +0.410 HD
ATOM      3  C   LIG    1        2.318   0.933  -0.685  0.00  0.00    +0.510 C 
ATOM      4  O   LIG    1        2.041  -0.082  -1.290  0.00  0.00    -0.510 OA
ENDROOT
BRANCH   3   5
ATOM      5  C   LIG    1        3.720   1.450  -0.695  0.00  0.00    +0.510 C 
ATOM      6  N   LIG    1        4.677   0.790  -1.377  0.00  0.00    -0.690 N 
ATOM      7  H   LIG    1        4.456  -0.021  -1.861  0.00  0.00    +0.410 HD
ATOM      8  O   LIG    1        3.998   2.465  -0.090  0.00  0.00    -0.510 OA
BRANCH   6   9
ATOM      9  C   LIG    1        6.052   1.297  -1.388  0.00  0.00    +0.330 C 
BRANCH   9  10
ATOM     10  C   LIG    1        6.757   0.811  -2.628  0.00  0.00    -0.090 A 
ATOM     11  C   LIG    1        6.558  -0.482  -3.074  0.00  0.00    +0.010 A 
ATOM     12  C   LIG    1        7.202  -0.926  -4.214  0.00  0.00    +0.010 A 
ATOM     13  C   LIG    1        8.052  -0.081  -4.902  0.00  0.00    +0.000 A 
ATOM     14  C   LIG    1        8.254   1.211  -4.453  0.00  0.00    +0.010 A 
ATOM     15  C   LIG    1        7.607   1.657  -3.316  0.00  0.00    +0.030 A 
ENDBRANCH   9  10
BRANCH   9  16
ATOM     16  C   LIG    1        6.792   0.790  -0.148  0.00  0.00    -0.050 C 
ATOM     17  C   LIG    1        6.088  -0.258   0.715  0.00  0.00    +0.000 C 
ATOM     18  C   LIG    1        6.227   1.179   1.220  0.00  0.00    +0.020 C 
ENDBRANCH   9  16
ENDBRANCH   6   9
ENDBRANCH   3   5
BRANCH   1  19
ATOM     19  C   LIG    1       -0.013   1.086   0.008  0.00  0.00    +0.290 C 
BRANCH  19  20
ATOM     20  C   LIG    1       -0.718   1.572   1.248  0.00  0.00    -0.090 A 
ATOM     21  C   LIG    1       -0.511   2.861   1.700  0.00  0.00    +0.010 A 
ATOM     22  C   LIG    1       -1.161   3.309   2.835  0.00  0.00    +0.020 A 
ATOM     23  C   LIG    1       -2.012   2.463   3.523  0.00  0.00    +0.000 A 
ATOM     24  C   LIG    1       -2.215   1.172   3.073  0.00  0.00    +0.010 A 
ATOM     25  C   LIG    1       -1.568   0.726   1.936  0.00  0.00    +0.020 A 
ENDBRANCH  19  20
BRANCH  19  27
ATOM     26  C   LIG    1       -0.037   1.099  -2.490  0.00  0.00    +0.030 C 
ATOM     27  C   LIG    1       -0.753   1.593  -1.232  0.00  0.00    -0.030 C 
ATOM     28  C   LIG    1       -2.188   1.063  -1.221  0.00  0.00    +0.030 C 
ENDBRANCH  19  27
ENDBRANCH   1  19
TORSDOF 7
