REMARK  Name = ZINCrD000000AMxK.0
REMARK                            x       y       z     vdW  Elec       q    Type
REMARK                         _______ _______ _______ _____ _____    ______ ____
ROOT
ATOM      1  C   LIG    1       -1.684   5.059   2.065  0.00  0.00    +0.240 C 
ATOM      2  C   LIG    1       -0.871   6.074   2.873  0.00  0.00    +0.010 C 
ATOM      3  C   LIG    1       -0.432   7.218   1.953  0.00  0.00    +0.280 C 
ATOM      4  N   LIG    1       -1.620   7.781   1.297  0.00  0.00    -0.610 N 
ATOM      5  C   LIG    1       -2.520   6.876   0.569  0.00  0.00    +0.280 C 
ATOM      6  C   LIG    1       -1.879   9.102   1.362  0.00  0.00    +0.560 C 
ATOM      7  O   LIG    1       -1.178   9.826   2.042  0.00  0.00    -0.530 OA
ATOM      8  C   LIG    1       -2.936   5.737   1.504  0.00  0.00    +0.030 C 
ENDROOT
BRANCH   6   9
ATOM      9  C   LIG    1       -3.015   9.670   0.606  0.00  0.00    -0.130 A 
ATOM     10  C   LIG    1       -3.296   9.217  -0.684  0.00  0.00    +0.040 A 
ATOM     11  C   LIG    1       -4.358   9.753  -1.381  0.00  0.00    +0.020 A 
ATOM     12  C   LIG    1       -5.148  10.738  -0.809  0.00  0.00    -0.070 A 
ATOM     13  C   LIG    1       -6.351  11.472  -1.364  0.00  0.00    +0.080 C 
ATOM     14  C   LIG    1       -7.043  12.100  -0.136  0.00  0.00    +0.030 C 
ATOM     15  C   LIG    1       -5.874  12.260   0.859  0.00  0.00    +0.080 C 
ATOM     16  C   LIG    1       -4.874  11.192   0.469  0.00  0.00    -0.100 A 
ATOM     17  C   LIG    1       -3.815  10.658   1.180  0.00  0.00    +0.080 A 
ENDBRANCH   6   9
BRANCH   1  20
ATOM     18  O   LIG    1       -0.142   2.912   2.599  0.00  0.00    -0.520 OA
ATOM     19  C   LIG    1       -1.232   2.918   3.137  0.00  0.00    +0.560 C 
ATOM     20  N   LIG    1       -2.078   3.948   2.934  0.00  0.00    -0.720 N 
ATOM     21  H   LIG    1       -2.948   3.953   3.364  0.00  0.00    +0.400 HD
BRANCH  19  22
ATOM     22  C   LIG    1       -1.630   1.798   4.013  0.00  0.00    -0.180 A 
ATOM     23  C   LIG    1       -2.881   1.801   4.633  0.00  0.00    +0.070 A 
ATOM     24  C   LIG    1       -3.246   0.752   5.450  0.00  0.00    +0.000 A 
ATOM     25  C   LIG    1       -2.377  -0.305   5.657  0.00  0.00    +0.080 A 
ATOM     26  C   LIG    1       -1.136  -0.318   5.047  0.00  0.00    -0.020 A 
ATOM     27  C   LIG    1       -0.755   0.727   4.225  0.00  0.00    +0.160 A 
ATOM     28  F   LIG    1        0.457   0.714   3.630  0.00  0.00    -0.110 F 
ENDBRANCH  19  22
ENDBRANCH   1  20
TORSDOF 3
