REMARK  Name = ZINCpe000000VehO.0
REMARK                            x       y       z     vdW  Elec       q    Type
REMARK                         _______ _______ _______ _____ _____    ______ ____
ROOT
ATOM      1  C   LIG    1       -3.145   0.447  -5.030  0.00  0.00    +0.500 C 
ATOM      2  N   LIG    1       -2.525   0.720  -3.865  0.00  0.00    -0.610 N 
ATOM      3  C   LIG    1       -2.739  -0.132  -2.687  0.00  0.00    +0.290 C 
ATOM      4  C   LIG    1       -3.216   0.748  -1.525  0.00  0.00    +0.290 C 
ATOM      5  N   LIG    1       -2.315   1.904  -1.410  0.00  0.00    -0.990 NA
ATOM      6  C   LIG    1       -2.106   2.759  -2.587  0.00  0.00    +0.300 C 
ATOM      7  C   LIG    1       -1.624   1.875  -3.750  0.00  0.00    +0.270 C 
ATOM      8  O   LIG    1       -3.887  -0.509  -5.113  0.00  0.00    -0.520 OA
ENDROOT
BRANCH   5   9
ATOM      9  S   LIG    1       -1.554   2.240   0.022  0.00  0.00    +2.690 S 
ATOM     10  O   LIG    1       -1.239   3.625  -0.007  0.00  0.00    -0.950 OA
ATOM     11  O   LIG    1       -2.340   1.643   1.044  0.00  0.00    -0.930 OA
BRANCH   9  12
ATOM     12  C   LIG    1       -0.017   1.379   0.010  0.00  0.00    -0.670 A 
ATOM     13  C   LIG    1        1.171   2.086   0.002  0.00  0.00    +0.140 A 
ATOM     14  C   LIG    1        2.377   1.411  -0.013  0.00  0.00    +0.010 A 
ATOM     15  C   LIG    1        2.397   0.029  -0.021  0.00  0.00    +0.090 A 
ATOM     16  C   LIG    1        1.210  -0.679  -0.013  0.00  0.00    +0.010 A 
ATOM     17  C   LIG    1        0.002  -0.004   0.002  0.00  0.00    +0.050 A 
ATOM     18 CL   LIG    1       -1.489  -0.893   0.011  0.00  0.00    -0.040 Cl
ENDBRANCH   9  12
ENDBRANCH   5   9
BRANCH   1  19
ATOM     19  C   LIG    1       -2.917   1.329  -6.230  0.00  0.00    +0.350 C 
BRANCH  19  21
ATOM     20  C   LIG    1       -4.956   1.263  -7.562  0.00  0.00    +0.660 C 
ATOM     21  N   LIG    1       -3.698   0.825  -7.363  0.00  0.00    -0.580 N 
ATOM     22  C   LIG    1       -3.110  -0.156  -8.279  0.00  0.00    +0.290 C 
ATOM     23  O   LIG    1       -5.444   2.076  -6.802  0.00  0.00    -0.570 OA
BRANCH  20  25
ATOM     24  C   LIG    1       -7.022   1.316  -8.756  0.00  0.00    +0.280 C 
ATOM     25  O   LIG    1       -5.674   0.800  -8.603  0.00  0.00    -0.370 OA
ENDBRANCH  20  25
ENDBRANCH  19  21
ENDBRANCH   1  19
TORSDOF 5
