REMARK  Name = ZINCrH000004ouq0.0
REMARK                            x       y       z     vdW  Elec       q    Type
REMARK                         _______ _______ _______ _____ _____    ______ ____
ROOT
ATOM      1  N   LIG    1        4.336   2.130  -0.028  0.00  0.00    -0.530 NA
ATOM      2  C   LIG    1        3.590   1.751  -1.236  0.00  0.00    +0.180 C 
ATOM      3  C   LIG    1        2.259   2.509  -1.268  0.00  0.00    +0.310 C 
ATOM      4  N   LIG    1        1.553   2.269  -0.001  0.00  0.00    -1.000 NA
ATOM      5  C   LIG    1        2.281   2.502   1.256  0.00  0.00    +0.310 C 
ATOM      6  C   LIG    1        3.613   1.738   1.190  0.00  0.00    +0.170 C 
ENDROOT
BRANCH   4   7
ATOM      7  S   LIG    1       -0.022   1.758   0.012  0.00  0.00    +2.690 S 
ATOM      8  O   LIG    1       -0.560   2.145   1.269  0.00  0.00    -0.950 OA
ATOM      9  O   LIG    1       -0.584   2.158  -1.231  0.00  0.00    -0.950 OA
BRANCH   7  10
ATOM     10  C   LIG    1        0.002  -0.004   0.002  0.00  0.00    -0.680 A 
ATOM     11  C   LIG    1        0.023  -0.702   1.195  0.00  0.00    +0.160 A 
ATOM     12  C   LIG    1        0.042  -2.084   1.188  0.00  0.00    +0.010 A 
ATOM     13  C   LIG    1        0.039  -2.768  -0.013  0.00  0.00    +0.130 A 
ATOM     14  C   LIG    1        0.017  -2.071  -1.207  0.00  0.00    -0.200 A 
ATOM     15  C   LIG    1       -0.006  -0.689  -1.199  0.00  0.00    +0.180 A 
BRANCH  14  16
ATOM     16  C   LIG    1        0.013  -2.817  -2.516  0.00  0.00    +0.510 C 
ATOM     17  F   LIG    1        1.143  -2.460  -3.259  0.00  0.00    -0.170 F 
ATOM     18  F   LIG    1       -1.141  -2.491  -3.236  0.00  0.00    -0.170 F 
ATOM     19  F   LIG    1        0.034  -4.194  -2.268  0.00  0.00    -0.170 F 
ENDBRANCH  14  16
ENDBRANCH   7  10
ENDBRANCH   4   7
BRANCH   1  21
ATOM     20  C   LIG    1        6.446   2.073  -1.270  0.00  0.00    +0.050 C 
ATOM     21  C   LIG    1        5.689   1.558  -0.044  0.00  0.00    +0.170 C 
BRANCH  21  22
ATOM     22  C   LIG    1        6.422   1.967   1.208  0.00  0.00    -0.080 A 
ATOM     23  C   LIG    1        6.286   3.252   1.700  0.00  0.00    +0.040 A 
ATOM     24  C   LIG    1        6.955   3.625   2.850  0.00  0.00    +0.000 A 
ATOM     25  C   LIG    1        7.768   2.718   3.503  0.00  0.00    +0.000 A 
ATOM     26  C   LIG    1        7.908   1.435   3.008  0.00  0.00    +0.000 A 
ATOM     27  C   LIG    1        7.235   1.059   1.860  0.00  0.00    +0.000 A 
ENDBRANCH  21  22
ENDBRANCH   1  21
TORSDOF 5
