REMARK  Name = ZINCpe00000MJMDA.0
REMARK                            x       y       z     vdW  Elec       q    Type
REMARK                         _______ _______ _______ _____ _____    ______ ____
ROOT
ATOM      1  N   LIG    1       -3.191   3.657  -0.146  0.00  0.00    -0.670 N 
ATOM      2  H   LIG    1       -4.084   3.278  -0.130  0.00  0.00    +0.410 HD
ATOM      3  C   LIG    1       -3.024   4.991  -0.054  0.00  0.00    +0.720 C 
ATOM      4  N   LIG    1       -4.087   5.790   0.162  0.00  0.00    -0.630 N 
ATOM      5  C   LIG    1       -5.500   5.373   0.315  0.00  0.00    +0.240 C 
ATOM      6  C   LIG    1       -6.282   6.470  -0.445  0.00  0.00    +0.180 C 
ATOM      7  C   LIG    1       -5.484   7.753  -0.117  0.00  0.00    +0.160 C 
ATOM      8  C   LIG    1       -4.083   7.260   0.288  0.00  0.00    +0.320 C 
ATOM      9  O   LIG    1       -1.913   5.473  -0.166  0.00  0.00    -0.520 OA
ENDROOT
BRANCH   1  15
ATOM     10  C   LIG    1        1.553   3.244  -0.653  0.00  0.00    +0.130 C 
ATOM     11  C   LIG    1        0.202   2.594  -0.508  0.00  0.00    +0.160 A 
ATOM     12  C   LIG    1        0.105   1.217  -0.496  0.00  0.00    -0.070 A 
ATOM     13  C   LIG    1       -1.143   0.624  -0.363  0.00  0.00    +0.100 A 
ATOM     14  C   LIG    1       -2.253   1.442  -0.245  0.00  0.00    -0.090 A 
ATOM     15  C   LIG    1       -2.082   2.821  -0.264  0.00  0.00    +0.380 A 
ATOM     16  N   LIG    1       -0.874   3.349  -0.388  0.00  0.00    -0.480 NA
ENDBRANCH   1  15
BRANCH   7  17
ATOM     17  N   LIG    1       -5.398   8.617  -1.303  0.00  0.00    -0.530 NA
ATOM     18  C   LIG    1       -4.614   9.825  -1.017  0.00  0.00    +0.200 C 
BRANCH  17  19
ATOM     19  C   LIG    1       -6.736   8.963  -1.800  0.00  0.00    +0.350 C 
BRANCH  19  20
ATOM     20  C   LIG    1       -6.614   9.636  -3.143  0.00  0.00    +0.170 A 
ATOM     21  N   LIG    1       -6.618   9.047  -4.304  0.00  0.00    -0.270 NA
ATOM     22  N   LIG    1       -6.495   9.930  -5.232  0.00  0.00    -0.290 NA
ATOM     23  C   LIG    1       -6.410  11.113  -4.694  0.00  0.00    +0.170 A 
ATOM     24  C   LIG    1       -6.257  12.419  -5.430  0.00  0.00    +0.240 C 
ATOM     25  O   LIG    1       -6.488  10.956  -3.361  0.00  0.00    -0.230 OA
ENDBRANCH  19  20
ENDBRANCH  17  19
ENDBRANCH   7  17
BRANCH   6  26
ATOM     26  O   LIG    1       -7.622   6.569   0.042  0.00  0.00    -0.560 OA
ATOM     27  H   LIG    1       -8.164   5.789  -0.138  0.00  0.00    +0.390 HD
ENDBRANCH   6  26
TORSDOF 5
