REMARK  Name = ZINCvU0000000Hdl.0
REMARK                            x       y       z     vdW  Elec       q    Type
REMARK                         _______ _______ _______ _____ _____    ______ ____
ROOT
ATOM      1  O   LIG    1        1.532   5.845   0.202  0.00  0.00    -0.490 OA
ATOM      2  C   LIG    1        2.544   5.205   0.007  0.00  0.00    +0.490 C 
ATOM      3  N   LIG    1        2.488   3.861  -0.066  0.00  0.00    -0.660 N 
ATOM      4  H   LIG    1        3.304   3.346  -0.165  0.00  0.00    +0.420 HD
ENDROOT
BRANCH   3   5
ATOM      5  C   LIG    1        1.250   3.207   0.001  0.00  0.00    +0.150 A 
ATOM      6  C   LIG    1        0.180   3.808   0.645  0.00  0.00    +0.060 A 
ATOM      7  C   LIG    1       -1.041   3.160   0.710  0.00  0.00    -0.030 A 
ATOM      8  C   LIG    1       -1.200   1.916   0.127  0.00  0.00    +0.040 A 
ATOM      9  C   LIG    1       -0.136   1.307  -0.513  0.00  0.00    +0.000 A 
ATOM     10 CL   LIG    1       -2.380   3.915   1.517  0.00  0.00    -0.060 Cl
ATOM     11  C   LIG    1        1.091   1.949  -0.582  0.00  0.00    +0.070 A 
BRANCH  11  12
ATOM     12  N   LIG    1        2.168   1.337  -1.234  0.00  0.00    -0.470 N 
ATOM     13  C   LIG    1        1.791  -0.010  -1.733  0.00  0.00    +0.180 C 
ATOM     14  C   LIG    1        2.850  -0.291  -2.829  0.00  0.00    +0.040 C 
ATOM     15  C   LIG    1        3.043   1.095  -3.486  0.00  0.00    +0.020 C 
ATOM     16  C   LIG    1        2.573   2.111  -2.428  0.00  0.00    +0.170 C 
ENDBRANCH  11  12
ENDBRANCH   3   5
BRANCH   2  17
ATOM     17  C   LIG    1        3.864   5.914  -0.155  0.00  0.00    +0.330 C 
BRANCH  17  18
ATOM     18  N   LIG    1        3.660   7.360  -0.036  0.00  0.00    -0.520 N 
ATOM     19  C   LIG    1        3.386   8.115  -1.162  0.00  0.00    +0.220 A 
ATOM     20  C   LIG    1        3.790   7.700  -2.423  0.00  0.00    -0.050 A 
ATOM     21  C   LIG    1        3.490   8.469  -3.528  0.00  0.00    +0.080 A 
ATOM     22  C   LIG    1        2.782   9.655  -3.397  0.00  0.00    -0.030 A 
ATOM     23  C   LIG    1        2.369  10.086  -2.154  0.00  0.00    +0.110 A 
ATOM     24  C   LIG    1        2.667   9.321  -1.030  0.00  0.00    -0.200 A 
ATOM     25  C   LIG    1        2.254   9.739   0.327  0.00  0.00    +0.440 A 
ATOM     26  C   LIG    1        3.047   9.170   1.437  0.00  0.00    -0.200 A 
ATOM     27  C   LIG    1        3.115   9.791   2.682  0.00  0.00    +0.110 A 
ATOM     28  C   LIG    1        3.878   9.224   3.681  0.00  0.00    -0.030 A 
ATOM     29  C   LIG    1        4.574   8.046   3.449  0.00  0.00    +0.080 A 
ATOM     30  C   LIG    1        4.513   7.419   2.223  0.00  0.00    -0.050 A 
ATOM     31  O   LIG    1        1.323  10.501   0.517  0.00  0.00    -0.450 OA
ATOM     32  C   LIG    1        3.747   7.971   1.203  0.00  0.00    +0.220 A 
ENDBRANCH  17  18
ENDBRANCH   2  17
TORSDOF 4
