REMARK  Name = ZINCrD00000F5LGD.0
REMARK                            x       y       z     vdW  Elec       q    Type
REMARK                         _______ _______ _______ _____ _____    ______ ____
ROOT
ATOM      1  C   LIG    1       -6.045  -0.048   1.862  0.00  0.00    +0.220 C 
ENDROOT
BRANCH   1   4
ATOM      2  C   LIG    1       -2.687   1.570   2.474  0.00  0.00    +0.160 A 
ATOM      3  C   LIG    1       -4.006   1.181   2.634  0.00  0.00    -0.020 A 
ATOM      4  C   LIG    1       -4.611   0.380   1.683  0.00  0.00    -0.000 A 
ATOM      5  C   LIG    1       -3.904  -0.029   0.568  0.00  0.00    -0.030 A 
ATOM      6  C   LIG    1       -2.588   0.360   0.399  0.00  0.00    +0.050 A 
ATOM      7  C   LIG    1       -1.976   1.163   1.348  0.00  0.00    +0.110 A 
BRANCH   5   8
ATOM      8  N   LIG    1       -4.556  -0.886  -0.447  0.00  0.00    +0.040 N 
ATOM      9  O   LIG    1       -5.716  -1.230  -0.299  0.00  0.00    -0.130 OA
ATOM     10  O   LIG    1       -3.934  -1.248  -1.429  0.00  0.00    -0.180 OA
ENDBRANCH   5   8
BRANCH   2  12
ATOM     11  C   LIG    1       -2.878   2.733   4.539  0.00  0.00    +0.250 C 
ATOM     12  O   LIG    1       -2.088   2.353   3.411  0.00  0.00    -0.290 OA
ENDBRANCH   2  12
BRANCH   7  13
ATOM     13  O   LIG    1       -0.682   1.547   1.184  0.00  0.00    -0.290 OA
ATOM     14  C   LIG    1       -0.013   1.086   0.008  0.00  0.00    +0.250 C 
ENDBRANCH   7  13
ENDBRANCH   1   4
BRANCH   1  15
ATOM     15  N   LIG    1       -6.085  -1.420   2.385  0.00  0.00    -0.440 NA
ATOM     16  C   LIG    1       -5.707  -1.454   3.810  0.00  0.00    +0.150 C 
ATOM     17  C   LIG    1       -6.838  -2.468   4.029  0.00  0.00    +0.060 C 
ATOM     18  C   LIG    1       -7.452  -1.789   2.797  0.00  0.00    +0.130 C 
BRANCH  18  19
ATOM     19  C   LIG    1       -8.134  -2.767   1.839  0.00  0.00    +0.220 C 
BRANCH  19  20
ATOM     20  O   LIG    1       -7.435  -4.013   1.852  0.00  0.00    -0.290 OA
BRANCH  20  21
ATOM     21  C   LIG    1       -7.916  -4.999   1.049  0.00  0.00    +0.090 A 
ATOM     22  C   LIG    1       -7.287  -6.239   1.002  0.00  0.00    +0.050 A 
ATOM     23  C   LIG    1       -7.817  -7.215   0.174  0.00  0.00    +0.040 A 
ATOM     24  C   LIG    1       -8.938  -6.923  -0.583  0.00  0.00    +0.130 A 
ATOM     25  N   LIG    1       -9.506  -5.734  -0.519  0.00  0.00    -0.440 NA
ATOM     26 CL   LIG    1       -9.604  -8.136  -1.631  0.00  0.00    -0.030 Cl
ATOM     27  C   LIG    1       -9.036  -4.781   0.261  0.00  0.00    +0.210 A 
ENDBRANCH  20  21
ENDBRANCH  19  20
ENDBRANCH  18  19
ENDBRANCH   1  15
TORSDOF 8
