REMARK  Name = ZINCrD000000AyR9.0
REMARK                            x       y       z     vdW  Elec       q    Type
REMARK                         _______ _______ _______ _____ _____    ______ ____
ROOT
ATOM      1  O   LIG    1        4.696   8.005   0.708  0.00  0.00    -0.520 OA
ATOM      2  C   LIG    1        3.654   7.392   0.806  0.00  0.00    +0.520 C 
ATOM      3  N   LIG    1        3.670   6.048   0.901  0.00  0.00    -0.620 N 
ATOM      4  C   LIG    1        4.942   5.312   0.887  0.00  0.00    +0.290 C 
ATOM      5  C   LIG    1        4.892   4.267  -0.234  0.00  0.00    +0.290 C 
ATOM      6  N   LIG    1        3.637   3.511  -0.115  0.00  0.00    -0.610 N 
ATOM      7  C   LIG    1        2.365   4.246  -0.107  0.00  0.00    +0.270 C 
ATOM      8  C   LIG    1        3.653   2.166  -0.021  0.00  0.00    +0.570 C 
ATOM      9  O   LIG    1        4.712   1.576   0.072  0.00  0.00    -0.510 OA
ATOM     10  C   LIG    1        2.416   5.292   1.020  0.00  0.00    +0.270 C 
ENDROOT
BRANCH   8  11
ATOM     11  C   LIG    1        2.385   1.411  -0.030  0.00  0.00    -0.180 A 
ATOM     12  C   LIG    1        1.469   1.592  -1.069  0.00  0.00    +0.120 A 
ATOM     13  C   LIG    1        0.287   0.884  -1.072  0.00  0.00    -0.020 A 
ATOM     14  C   LIG    1        0.004  -0.007  -0.048  0.00  0.00    +0.160 A 
ATOM     15  C   LIG    1        0.907  -0.192   0.986  0.00  0.00    -0.040 A 
ATOM     16  F   LIG    1       -1.158  -0.697  -0.058  0.00  0.00    -0.120 F 
ATOM     17  C   LIG    1        2.096   0.511   1.002  0.00  0.00    +0.180 A 
ATOM     18  F   LIG    1        2.977   0.330   2.010  0.00  0.00    -0.110 F 
ENDBRANCH   8  11
BRANCH   2  19
ATOM     19  C   LIG    1        2.342   8.133   0.821  0.00  0.00    +0.120 C 
BRANCH  19  20
ATOM     20  C   LIG    1        2.599   9.613   0.702  0.00  0.00    -0.080 A 
ATOM     21  C   LIG    1        2.655  10.206  -0.545  0.00  0.00    +0.080 A 
ATOM     22  C   LIG    1        2.891  11.563  -0.657  0.00  0.00    +0.010 A 
ATOM     23  C   LIG    1        3.072  12.330   0.482  0.00  0.00    +0.130 A 
ATOM     24  C   LIG    1        3.016  11.735   1.732  0.00  0.00    -0.130 A 
ATOM     25 BR   LIG    1        3.261  12.779   3.289  0.00  0.00    -0.030 Br
ATOM     26  F   LIG    1        3.303  13.656   0.374  0.00  0.00    -0.120 F 
ATOM     27  C   LIG    1        2.774  10.378   1.841  0.00  0.00    +0.090 A 
ENDBRANCH  19  20
ENDBRANCH   2  19
TORSDOF 3
