REMARK  Name = ZINCb800000011b4.0
REMARK                            x       y       z     vdW  Elec       q    Type
REMARK                         _______ _______ _______ _____ _____    ______ ____
ROOT
ATOM      1  C   LIG    1        1.284   4.397   1.036  0.00  0.00    +0.100 C 
ATOM      2  C   LIG    1        0.574   3.664  -0.104  0.00  0.00    +0.210 C 
ATOM      3  N   LIG    1       -0.863   3.517   0.185  0.00  0.00    -0.660 N 
ATOM      4  H   LIG    1       -1.504   4.234   0.317  0.00  0.00    +0.460 HD
ATOM      5  C   LIG    1       -1.114   2.196   0.228  0.00  0.00    +0.540 C 
ATOM      6  N   LIG    1       -0.018   1.461   0.010  0.00  0.00    -0.510 N 
ATOM      7  S   LIG    1       -2.662   1.531   0.531  0.00  0.00    -0.550 S 
ATOM      8  C   LIG    1        1.065   2.234  -0.207  0.00  0.00    +0.520 C 
ATOM      9  O   LIG    1        2.196   1.862  -0.436  0.00  0.00    -0.440 OA
ENDROOT
BRANCH   6  10
ATOM     10  C   LIG    1        0.002  -0.004   0.002  0.00  0.00    +0.220 C 
ATOM     11  C   LIG    1        1.367  -0.693   0.071  0.00  0.00    +0.050 C 
ATOM     12  C   LIG    1        0.573  -0.696  -1.237  0.00  0.00    +0.050 C 
ENDBRANCH   6  10
TORSDOF 1
