REMARK  Name = ZINCpe000000Tjj9.0
REMARK                            x       y       z     vdW  Elec       q    Type
REMARK                         _______ _______ _______ _____ _____    ______ ____
ROOT
ATOM      1  C   LIG    1       -1.697  -4.538  -2.205  0.00  0.00    +0.600 C 
ATOM      2  N   LIG    1       -1.543  -3.909  -3.388  0.00  0.00    -0.600 N 
ATOM      3  C   LIG    1       -1.276  -2.475  -3.567  0.00  0.00    +0.280 C 
ATOM      4  C   LIG    1       -1.204  -2.209  -5.086  0.00  0.00    -0.010 C 
ATOM      5  C   LIG    1       -1.997  -3.401  -5.685  0.00  0.00    +0.130 C 
ATOM      6  C   LIG    1        0.247  -2.221  -5.570  0.00  0.00    +0.040 C 
ATOM      7  C   LIG    1       -1.610  -4.548  -4.715  0.00  0.00    +0.290 C 
ATOM      8  O   LIG    1       -1.915  -5.733  -2.176  0.00  0.00    -0.520 OA
ENDROOT
BRANCH   1  11
ATOM      9  N   LIG    1       -1.267  -1.774   0.090  0.00  0.00    -0.340 N 
ATOM     10  N   LIG    1       -1.362  -2.481  -0.977  0.00  0.00    -0.170 NA
ATOM     11  C   LIG    1       -1.599  -3.773  -0.943  0.00  0.00    +0.020 A 
ATOM     12  C   LIG    1       -1.759  -4.436   0.297  0.00  0.00    +0.130 A 
ATOM     13  C   LIG    1       -1.662  -3.698   1.440  0.00  0.00    -0.020 A 
ATOM     14  C   LIG    1       -1.401  -2.316   1.315  0.00  0.00    +0.480 A 
ATOM     15  O   LIG    1       -1.301  -1.617   2.310  0.00  0.00    -0.520 OA
BRANCH   9  16
ATOM     16  C   LIG    1       -1.001  -0.338  -0.029  0.00  0.00    +0.320 C 
BRANCH  16  17
ATOM     17  C   LIG    1        0.510  -0.097  -0.024  0.00  0.00    +0.010 C 
BRANCH  17  19
ATOM     18  C   LIG    1        2.299   1.643  -0.143  0.00  0.00    +0.030 C 
ATOM     19  C   LIG    1        0.788   1.402  -0.148  0.00  0.00    +0.020 C 
ENDBRANCH  17  19
ENDBRANCH  16  17
ENDBRANCH   9  16
ENDBRANCH   1  11
BRANCH   5  20
ATOM     20  N   LIG    1       -1.549  -3.697  -7.052  0.00  0.00    -0.520 NA
ATOM     21  C   LIG    1       -1.889  -2.598  -7.968  0.00  0.00    +0.150 C 
ATOM     22  C   LIG    1       -1.353  -2.921  -9.365  0.00  0.00    +0.220 C 
ATOM     23  O   LIG    1       -1.889  -4.173  -9.799  0.00  0.00    -0.380 OA
ATOM     24  C   LIG    1       -1.576  -5.265  -8.931  0.00  0.00    +0.220 C 
ATOM     25  C   LIG    1       -2.115  -4.967  -7.529  0.00  0.00    +0.150 C 
ENDBRANCH   5  20
TORSDOF 5
