REMARK  Name = ZINCrH000004svIw.0
REMARK                            x       y       z     vdW  Elec       q    Type
REMARK                         _______ _______ _______ _____ _____    ______ ____
ROOT
ATOM      1  C   LIG    1       -1.640   0.812  -1.757  0.00  0.00    +0.530 C 
ATOM      2  N   LIG    1       -0.646   1.531  -1.200  0.00  0.00    -0.610 N 
ATOM      3  C   LIG    1       -0.013   1.086   0.008  0.00  0.00    +0.280 C 
ATOM      4  C   LIG    1       -0.671   1.552   1.330  0.00  0.00    +0.040 C 
ATOM      5  C   LIG    1       -1.099   3.035   1.220  0.00  0.00    -0.020 C 
ATOM      6  C   LIG    1       -0.081   3.832   0.458  0.00  0.00    +0.310 C 
ATOM      7  C   LIG    1       -0.612   3.911  -0.970  0.00  0.00    +0.020 C 
ATOM      8  F   LIG    1        0.037   5.115   1.002  0.00  0.00    -0.190 F 
ATOM      9  F   LIG    1        1.157   3.180   0.478  0.00  0.00    -0.180 F 
ATOM     10  C   LIG    1       -0.183   2.811  -1.833  0.00  0.00    +0.320 C 
ATOM     11  O   LIG    1       -2.006  -0.221  -1.237  0.00  0.00    -0.510 OA
ENDROOT
BRANCH   1  12
ATOM     12  C   LIG    1       -2.297   1.291  -3.026  0.00  0.00    +0.110 C 
BRANCH  12  13
ATOM     13  S   LIG    1       -3.584   0.117  -3.519  0.00  0.00    +0.030 S 
BRANCH  13  17
ATOM     14  C   LIG    1       -3.373   3.955  -6.878  0.00  0.00    +0.150 C 
ATOM     15  C   LIG    1       -4.030   2.661  -6.474  0.00  0.00    +0.180 A 
ATOM     16  N   LIG    1       -3.627   2.044  -5.381  0.00  0.00    -0.490 NA
ATOM     17  C   LIG    1       -4.168   0.902  -4.985  0.00  0.00    +0.150 A 
ATOM     18  C   LIG    1       -5.209   0.315  -5.725  0.00  0.00    -0.070 A 
ATOM     19  C   LIG    1       -5.655   0.957  -6.886  0.00  0.00    +0.030 A 
ATOM     20  C   LIG    1       -6.769   0.368  -7.714  0.00  0.00    +0.120 C 
ATOM     21  C   LIG    1       -5.050   2.145  -7.254  0.00  0.00    -0.150 A 
ATOM     22  C   LIG    1       -5.497   2.871  -8.497  0.00  0.00    +0.120 C 
BRANCH  18  23
ATOM     23  C   LIG    1       -5.802  -0.918  -5.300  0.00  0.00    +0.250 C 
ATOM     24  N   LIG    1       -6.272  -1.895  -4.962  0.00  0.00    -0.390 NA
ENDBRANCH  18  23
ENDBRANCH  13  17
ENDBRANCH  12  13
ENDBRANCH   1  12
BRANCH   5  25
ATOM     25  C   LIG    1       -1.250   3.623   2.624  0.00  0.00    +0.210 C 
BRANCH  25  26
ATOM     26  C   LIG    1       -2.332   2.923   3.336  0.00  0.00    +0.200 C 
ATOM     27  N   LIG    1       -3.167   2.382   3.885  0.00  0.00    -0.420 NA
ENDBRANCH  25  26
ENDBRANCH   5  25
TORSDOF 6
