REMARK  Name = ZINCrg000000tqOX.0
REMARK                            x       y       z     vdW  Elec       q    Type
REMARK                         _______ _______ _______ _____ _____    ______ ____
ROOT
ATOM      1  O   LIG    1        6.811  -1.083   0.119  0.00  0.00    -0.580 OA
ATOM      2  C   LIG    1        6.717  -1.073   1.331  0.00  0.00    +0.710 C 
ATOM      3  N   LIG    1        5.505  -0.982   1.913  0.00  0.00    -0.630 N 
ATOM      4  C   LIG    1        5.365  -1.079   3.372  0.00  0.00    +0.260 C 
ATOM      5  C   LIG    1        4.596   0.146   3.876  0.00  0.00    +0.020 C 
ATOM      6  C   LIG    1        3.268   0.257   3.123  0.00  0.00    +0.020 C 
ATOM      7  C   LIG    1        3.541   0.438   1.628  0.00  0.00    +0.270 C 
ATOM      8  C   LIG    1        4.298  -0.784   1.099  0.00  0.00    +0.290 C 
ATOM      9  N   LIG    1        7.826  -1.152   2.094  0.00  0.00    -0.750 N 
ATOM     10  H   LIG    1        7.747  -1.219   3.059  0.00  0.00    +0.390 HD
ENDROOT
BRANCH   7  11
ATOM     11  N   LIG    1        2.270   0.574   0.912  0.00  0.00    -0.980 NA
ATOM     12  C   LIG    1        1.192  -0.416   0.873  0.00  0.00    +0.240 C 
ATOM     13  C   LIG    1        0.003   0.002   0.002  0.00  0.00    +0.090 C 
ATOM     14  C   LIG    1       -0.017   1.557   0.009  0.00  0.00    -0.310 C 
ATOM     15  S   LIG    1        1.792   1.888  -0.006  0.00  0.00    +2.560 S 
ATOM     16  O   LIG    1        2.119   3.031   0.772  0.00  0.00    -0.960 OA
ATOM     17  O   LIG    1        2.350   1.670  -1.295  0.00  0.00    -0.940 OA
ENDBRANCH   7  11
BRANCH   9  18
ATOM     18  C   LIG    1        9.149  -1.139   1.466  0.00  0.00    +0.290 C 
BRANCH  18  19
ATOM     19  C   LIG    1       10.227  -1.240   2.547  0.00  0.00    +0.130 C 
BRANCH  19  20
ATOM     20  C   LIG    1       11.589  -1.226   1.901  0.00  0.00    +0.060 A 
ATOM     21  C   LIG    1       12.591  -0.369   2.194  0.00  0.00    +0.090 A 
ATOM     22  N   LIG    1       13.649  -0.693   1.388  0.00  0.00    -0.360 N 
ATOM     23  C   LIG    1       14.903  -0.170   1.256  0.00  0.00    +0.210 A 
ATOM     24  C   LIG    1       15.773  -0.690   0.365  0.00  0.00    +0.010 A 
ATOM     25  C   LIG    1       15.398  -1.778  -0.441  0.00  0.00    +0.040 A 
ATOM     26  C   LIG    1       14.151  -2.308  -0.319  0.00  0.00    +0.070 A 
ATOM     27  C   LIG    1       13.254  -1.755   0.617  0.00  0.00    +0.230 A 
ATOM     28  N   LIG    1       12.008  -2.062   0.949  0.00  0.00    -0.480 NA
ENDBRANCH  19  20
ENDBRANCH  18  19
ENDBRANCH   9  18
TORSDOF 4
