REMARK  Name = ZINCrH000004kfsj.0
REMARK                            x       y       z     vdW  Elec       q    Type
REMARK                         _______ _______ _______ _____ _____    ______ ____
ROOT
ATOM      1  N   LIG    1       -1.093   3.561   0.025  0.00  0.00    -0.650 N 
ATOM      2  H   LIG    1       -0.216   3.969   0.093  0.00  0.00    +0.430 HD
ATOM      3  C   LIG    1       -1.215   2.219   0.022  0.00  0.00    +0.600 C 
ATOM      4  O   LIG    1       -2.319   1.708   0.039  0.00  0.00    -0.500 OA
ENDROOT
BRANCH   1  10
ATOM      5  C   LIG    1       -2.215   5.666   0.449  0.00  0.00    -0.180 A 
ATOM      6  C   LIG    1       -3.357   6.462   0.343  0.00  0.00    +0.070 A 
ATOM      7  C   LIG    1       -4.491   5.960  -0.258  0.00  0.00    -0.020 A 
ATOM      8  C   LIG    1       -4.503   4.670  -0.764  0.00  0.00    +0.070 A 
ATOM      9  C   LIG    1       -3.379   3.873  -0.672  0.00  0.00    +0.010 A 
ATOM     10  C   LIG    1       -2.227   4.362  -0.069  0.00  0.00    +0.210 A 
BRANCH   5  14
ATOM     11  C   LIG    1        0.185   7.935   2.325  0.00  0.00    +0.290 C 
ATOM     12  N   LIG    1       -1.022   7.409   1.682  0.00  0.00    -0.730 N 
ATOM     13  H   LIG    1       -1.837   7.935   1.677  0.00  0.00    +0.400 HD
ATOM     14  C   LIG    1       -1.000   6.195   1.097  0.00  0.00    +0.570 C 
ATOM     15  O   LIG    1        0.022   5.536   1.104  0.00  0.00    -0.540 OA
ENDBRANCH   5  14
ENDBRANCH   1  10
BRANCH   3  16
ATOM     16  C   LIG    1       -0.016   1.374  -0.001  0.00  0.00    -0.080 A 
ATOM     17  C   LIG    1        0.003  -0.003  -0.006  0.00  0.00    +0.060 A 
ATOM     18  C   LIG    1        1.347  -0.389  -0.037  0.00  0.00    -0.020 A 
ATOM     19  C   LIG    1        2.092   0.756  -0.049  0.00  0.00    +0.060 A 
ATOM     20  O   LIG    1        1.260   1.811  -0.028  0.00  0.00    -0.150 OA
BRANCH  19  21
ATOM     21  C   LIG    1        3.566   0.824  -0.081  0.00  0.00    +0.010 A 
ATOM     22  C   LIG    1        4.319  -0.355  -0.095  0.00  0.00    +0.040 A 
ATOM     23  C   LIG    1        5.683  -0.294  -0.129  0.00  0.00    +0.070 A 
ATOM     24  C   LIG    1        6.327   0.949  -0.139  0.00  0.00    -0.160 A 
ATOM     25  C   LIG    1        5.572   2.129  -0.119  0.00  0.00    +0.080 A 
ATOM     26  C   LIG    1        4.209   2.066  -0.090  0.00  0.00    +0.030 A 
BRANCH  24  27
ATOM     27  C   LIG    1        7.795   1.016  -0.171  0.00  0.00    +0.390 C 
ATOM     28  O   LIG    1        8.353   2.093  -0.180  0.00  0.00    -0.450 OA
ATOM     29  C   LIG    1        8.607  -0.253  -0.192  0.00  0.00    +0.090 C 
ENDBRANCH  24  27
ENDBRANCH  19  21
ENDBRANCH   3  16
TORSDOF 5
