REMARK  Name = ZINCrH000004v1mg.0
REMARK                            x       y       z     vdW  Elec       q    Type
REMARK                         _______ _______ _______ _____ _____    ______ ____
ROOT
ATOM      1  O   LIG    1        3.545   2.664   0.082  0.00  0.00    -0.510 OA
ATOM      2  C   LIG    1        3.529   3.879   0.090  0.00  0.00    +0.560 C 
ATOM      3  N   LIG    1        2.357   4.539   0.006  0.00  0.00    -0.660 N 
ATOM      4  H   LIG    1        2.348   5.506  -0.068  0.00  0.00    +0.420 HD
ENDROOT
BRANCH   3   5
ATOM      5  C   LIG    1        1.150   3.827   0.025  0.00  0.00    +0.150 A 
ATOM      6  C   LIG    1        1.093   2.580   0.625  0.00  0.00    +0.080 A 
ATOM      7  C   LIG    1       -0.095   1.872   0.648  0.00  0.00    -0.040 A 
ATOM      8  C   LIG    1       -1.228   2.409   0.061  0.00  0.00    +0.060 A 
ATOM      9  C   LIG    1       -1.175   3.652  -0.535  0.00  0.00    -0.140 A 
ATOM     10  C   LIG    1       -2.224   4.482  -1.249  0.00  0.00    +0.090 C 
ATOM     11  C   LIG    1       -1.356   5.528  -1.988  0.00  0.00    +0.240 C 
ATOM     12  O   LIG    1       -0.166   5.578  -1.183  0.00  0.00    -0.300 OA
ATOM     13 CL   LIG    1       -0.163   0.311   1.403  0.00  0.00    -0.050 Cl
ATOM     14  C   LIG    1        0.006   4.378  -0.562  0.00  0.00    +0.080 A 
ENDBRANCH   3   5
BRANCH   2  15
ATOM     15  C   LIG    1        4.795   4.634   0.193  0.00  0.00    -0.130 A 
ATOM     16  C   LIG    1        4.780   6.030   0.203  0.00  0.00    +0.080 A 
ATOM     17  C   LIG    1        5.963   6.733   0.299  0.00  0.00    +0.040 A 
ATOM     18  C   LIG    1        7.168   6.059   0.386  0.00  0.00    -0.000 A 
ATOM     19  C   LIG    1        7.194   4.668   0.377  0.00  0.00    +0.170 A 
ATOM     20 CL   LIG    1        8.652   6.951   0.507  0.00  0.00    -0.030 Cl
ATOM     21  C   LIG    1        6.010   3.953   0.286  0.00  0.00    +0.130 A 
BRANCH  19  22
ATOM     22  N   LIG    1        8.414   3.990   0.465  0.00  0.00    -0.950 N 
ATOM     23  C   LIG    1        9.211   3.482  -0.661  0.00  0.00    +0.260 C 
ATOM     24  C   LIG    1       10.708   3.475  -0.287  0.00  0.00    +0.100 C 
ATOM     25  C   LIG    1       10.741   2.859   1.141  0.00  0.00    -0.310 C 
ATOM     26  S   LIG    1        9.231   3.604   1.869  0.00  0.00    +2.560 S 
ATOM     27  O   LIG    1        8.427   2.620   2.507  0.00  0.00    -0.940 OA
ATOM     28  O   LIG    1        9.518   4.851   2.487  0.00  0.00    -0.930 OA
ENDBRANCH  19  22
ENDBRANCH   2  15
TORSDOF 3
