REMARK  Name = ZINCue00000003iv.0
REMARK                            x       y       z     vdW  Elec       q    Type
REMARK                         _______ _______ _______ _____ _____    ______ ____
ROOT
ATOM      1  N   LIG    1       -0.702   1.975   1.216  0.00  0.00    -0.610 N 
ATOM      2  C   LIG    1       -1.907   2.811   1.242  0.00  0.00    +0.350 C 
ATOM      3  C   LIG    1       -2.235   3.035   2.698  0.00  0.00    -0.060 A 
ATOM      4  C   LIG    1       -3.237   3.728   3.340  0.00  0.00    +0.030 A 
ATOM      5  C   LIG    1       -3.282   3.763   4.721  0.00  0.00    +0.090 A 
ATOM      6  C   LIG    1       -2.309   3.096   5.469  0.00  0.00    -0.130 A 
ATOM      7  C   LIG    1       -1.293   2.395   4.824  0.00  0.00    +0.170 A 
ATOM      8  C   LIG    1       -1.253   2.362   3.432  0.00  0.00    -0.170 A 
ATOM      9  C   LIG    1       -0.324   1.720   2.481  0.00  0.00    +0.570 C 
ATOM     10  O   LIG    1        0.643   1.056   2.796  0.00  0.00    -0.510 OA
ENDROOT
BRANCH   1  15
ATOM     11  O   LIG    1        2.934  -0.748  -1.640  0.00  0.00    -0.500 OA
ATOM     12  C   LIG    1        2.052  -0.076  -1.151  0.00  0.00    +0.520 C 
ATOM     13  C   LIG    1        2.149   1.426  -1.210  0.00  0.00    +0.100 C 
ATOM     14  C   LIG    1        1.422   2.024  -0.001  0.00  0.00    +0.060 C 
ATOM     15  C   LIG    1       -0.018   1.502   0.010  0.00  0.00    +0.300 C 
ATOM     16  C   LIG    1        0.002  -0.004   0.002  0.00  0.00    +0.510 C 
ATOM     17  O   LIG    1       -0.908  -0.614   0.521  0.00  0.00    -0.480 OA
ATOM     18  N   LIG    1        1.008  -0.684  -0.568  0.00  0.00    -0.670 N 
ATOM     19  H   LIG    1        0.979  -1.653  -0.559  0.00  0.00    +0.420 HD
ENDBRANCH   1  15
BRANCH   6  20
ATOM     20  C   LIG    1       -2.358   3.135   6.947  0.00  0.00    +0.560 C 
ATOM     21  N   LIG    1       -3.341   3.814   7.571  0.00  0.00    -0.710 N 
ATOM     22  H   LIG    1       -4.016   4.277   7.051  0.00  0.00    +0.400 HD
ATOM     23  O   LIG    1       -1.511   2.555   7.598  0.00  0.00    -0.530 OA
BRANCH  21  24
ATOM     24  C   LIG    1       -3.389   3.852   9.035  0.00  0.00    +0.230 C 
ATOM     25  C   LIG    1       -2.488   4.978   9.545  0.00  0.00    +0.000 C 
ATOM     26  C   LIG    1       -2.538   5.019  11.074  0.00  0.00    +0.010 C 
ATOM     27  C   LIG    1       -3.976   5.270  11.530  0.00  0.00    +0.020 C 
ATOM     28  C   LIG    1       -4.878   4.144  11.020  0.00  0.00    -0.090 C 
ATOM     29  C   LIG    1       -4.827   4.104   9.491  0.00  0.00    +0.030 C 
BRANCH  28  30
ATOM     30  C   LIG    1       -6.294   4.391  11.470  0.00  0.00    +0.500 C 
ATOM     31  O   LIG    1       -6.996   5.185  10.866  0.00  0.00    -0.700 OA
ATOM     32  O   LIG    1       -6.739   3.798  12.437  0.00  0.00    -0.700 OA
ENDBRANCH  28  30
ENDBRANCH  21  24
ENDBRANCH   6  20
TORSDOF 4
