REMARK  Name = ZINCqH000006739T.0
REMARK                            x       y       z     vdW  Elec       q    Type
REMARK                         _______ _______ _______ _____ _____    ______ ____
ROOT
ATOM      1  N   LIG    1       -0.706   5.878   6.462  0.00  0.00    -0.460 N 
ATOM      2  C   LIG    1       -0.406   5.816   7.795  0.00  0.00    +0.190 A 
ATOM      3  N   LIG    1       -0.328   4.555   8.116  0.00  0.00    -0.280 NA
ATOM      4  N   LIG    1       -0.562   3.823   7.086  0.00  0.00    -0.300 NA
ATOM      5  C   LIG    1       -0.803   4.583   6.044  0.00  0.00    +0.340 A 
ENDROOT
BRANCH   2   6
ATOM      6  C   LIG    1       -0.197   6.987   8.719  0.00  0.00    +0.090 C 
ATOM      7  C   LIG    1        1.214   6.927   9.292  0.00  0.00    +0.060 C 
ATOM      8  C   LIG    1        1.800   8.329   9.160  0.00  0.00    +0.060 C 
ATOM      9  C   LIG    1        1.083   9.361  10.006  0.00  0.00    +0.000 C 
ATOM     10  C   LIG    1       -0.049   8.919  10.851  0.00  0.00    -0.030 C 
ATOM     11  C   LIG    1       -0.588   7.547  11.098  0.00  0.00    +0.070 C 
ATOM     12  C   LIG    1        1.236   9.312  11.525  0.00  0.00    +0.190 C 
ATOM     13  F   LIG    1        1.272  10.527  12.216  0.00  0.00    -0.160 F 
ATOM     14  F   LIG    1        2.013   8.282  12.068  0.00  0.00    -0.150 F 
ATOM     15  C   LIG    1       -1.271   6.941   9.860  0.00  0.00    +0.060 C 
ENDBRANCH   2   6
BRANCH   1  17
ATOM     16  C   LIG    1       -2.333   7.573   5.783  0.00  0.00    +0.030 C 
ATOM     17  C   LIG    1       -0.889   7.086   5.653  0.00  0.00    +0.300 C 
ENDBRANCH   1  17
BRANCH   5  18
ATOM     18  N   LIG    1       -1.095   4.152   4.760  0.00  0.00    -0.460 N 
ATOM     19  C   LIG    1       -2.411   3.501   4.710  0.00  0.00    +0.240 C 
BRANCH  18  20
ATOM     20  C   LIG    1       -0.046   3.258   4.253  0.00  0.00    +0.330 C 
BRANCH  20  21
ATOM     21  C   LIG    1       -0.266   3.008   2.783  0.00  0.00    +0.020 A 
ATOM     22  N   LIG    1       -1.045   2.109   2.253  0.00  0.00    -0.350 NA
ATOM     23  O   LIG    1       -1.018   2.152   1.045  0.00  0.00    +0.100 OA
ATOM     24  C   LIG    1       -0.187   3.108   0.605  0.00  0.00    -0.030 A 
ATOM     25  C   LIG    1        0.109   3.455  -0.831  0.00  0.00    +0.180 C 
ATOM     26  C   LIG    1        0.331   3.703   1.706  0.00  0.00    -0.050 A 
ENDBRANCH  20  21
ENDBRANCH  18  20
ENDBRANCH   5  18
TORSDOF 5
