REMARK  Name = ZINCvU000000048o.0
REMARK                            x       y       z     vdW  Elec       q    Type
REMARK                         _______ _______ _______ _____ _____    ______ ____
ROOT
ATOM      1  C   LIG    1       -0.742   1.510   2.856  0.00  0.00    +0.290 A 
ATOM      2  N   LIG    1       -1.447   2.188   3.714  0.00  0.00    -0.480 NA
ATOM      3  C   LIG    1       -2.757   2.152   3.358  0.00  0.00    +0.050 A 
ATOM      4  C   LIG    1       -3.921   2.695   3.908  0.00  0.00    +0.070 A 
ATOM      5  C   LIG    1       -5.126   2.478   3.302  0.00  0.00    +0.000 A 
ATOM      6  C   LIG    1       -5.209   1.721   2.143  0.00  0.00    +0.030 A 
ATOM      7  C   LIG    1       -4.074   1.175   1.582  0.00  0.00    +0.010 A 
ATOM      8  C   LIG    1       -2.840   1.390   2.180  0.00  0.00    +0.060 A 
ATOM      9  N   LIG    1       -1.549   0.993   1.891  0.00  0.00    -0.480 N 
ENDROOT
BRANCH   1  12
ATOM     10  N   LIG    1        2.437   1.238   4.627  0.00  0.00    -0.570 N 
ATOM     11  C   LIG    1        1.165   0.621   4.234  0.00  0.00    +0.300 C 
ATOM     12  C   LIG    1        0.752   1.325   2.922  0.00  0.00    +0.090 C 
ATOM     13  C   LIG    1        1.473   2.686   3.055  0.00  0.00    +0.090 C 
ATOM     14  C   LIG    1        2.633   2.403   3.984  0.00  0.00    +0.530 C 
ATOM     15  O   LIG    1        3.599   3.121   4.128  0.00  0.00    -0.510 OA
BRANCH  10  21
ATOM     16  C   LIG    1        3.144   0.900   6.912  0.00  0.00    -0.070 A 
ATOM     17  C   LIG    1        4.027   0.353   7.822  0.00  0.00    +0.020 A 
ATOM     18  C   LIG    1        5.095  -0.406   7.381  0.00  0.00    +0.020 A 
ATOM     19  C   LIG    1        5.284  -0.620   6.028  0.00  0.00    +0.010 A 
ATOM     20  C   LIG    1        4.401  -0.080   5.112  0.00  0.00    +0.010 A 
ATOM     21  C   LIG    1        3.330   0.686   5.552  0.00  0.00    +0.140 A 
BRANCH  16  23
ATOM     22  C   LIG    1        2.370   3.206   7.392  0.00  0.00    +0.030 C 
ATOM     23  C   LIG    1        1.979   1.726   7.393  0.00  0.00    +0.050 C 
ENDBRANCH  16  23
ENDBRANCH  10  21
ENDBRANCH   1  12
BRANCH   9  24
ATOM     24  C   LIG    1       -1.127   0.173   0.753  0.00  0.00    +0.370 C 
BRANCH  24  25
ATOM     25  C   LIG    1       -1.162  -1.282   1.142  0.00  0.00    -0.110 A 
ATOM     26  C   LIG    1       -0.040  -1.879   1.685  0.00  0.00    +0.030 A 
ATOM     27  C   LIG    1       -0.073  -3.213   2.047  0.00  0.00    +0.040 A 
ATOM     28  C   LIG    1       -1.225  -3.953   1.856  0.00  0.00    +0.040 A 
ATOM     29  C   LIG    1       -2.346  -3.357   1.307  0.00  0.00    -0.030 A 
ATOM     30 CL   LIG    1       -3.794  -4.286   1.067  0.00  0.00    -0.060 Cl
ATOM     31  C   LIG    1       -2.314  -2.021   0.950  0.00  0.00    +0.040 A 
ENDBRANCH  24  25
ENDBRANCH   9  24
TORSDOF 5
