REMARK  Name = ZINCpk000000n2sJ.0
REMARK                            x       y       z     vdW  Elec       q    Type
REMARK                         _______ _______ _______ _____ _____    ______ ____
ROOT
ATOM      1  C   LIG    1       -3.146   3.801  -3.246  0.00  0.00    +0.530 C 
ATOM      2  N   LIG    1       -2.129   3.045  -2.789  0.00  0.00    -0.610 N 
ATOM      3  C   LIG    1       -2.230   1.578  -2.767  0.00  0.00    +0.300 C 
ATOM      4  C   LIG    1       -1.860   1.086  -1.363  0.00  0.00    +0.190 C 
ATOM      5  N   LIG    1       -0.544   1.623  -0.991  0.00  0.00    -0.520 NA
ATOM      6  C   LIG    1       -0.570   3.090  -0.916  0.00  0.00    +0.180 C 
ATOM      7  C   LIG    1       -0.887   3.664  -2.300  0.00  0.00    +0.290 C 
ATOM      8  O   LIG    1       -4.197   3.281  -3.557  0.00  0.00    -0.520 OA
ENDROOT
BRANCH   5   9
ATOM      9  C   LIG    1       -0.075   1.040   0.273  0.00  0.00    +0.140 C 
ATOM     10  C   LIG    1        0.210  -0.470   0.099  0.00  0.00    +0.070 C 
ATOM     11  C   LIG    1        1.722  -0.470  -0.219  0.00  0.00    +0.280 C 
ATOM     12  N   LIG    1        2.249   0.760   0.386  0.00  0.00    -0.550 N 
ATOM     13  C   LIG    1        1.262   1.627   0.667  0.00  0.00    +0.530 C 
ATOM     14  O   LIG    1        1.420   2.722   1.164  0.00  0.00    -0.500 OA
BRANCH  12  15
ATOM     15  C   LIG    1        3.605   0.998   0.637  0.00  0.00    +0.160 A 
ATOM     16  C   LIG    1        3.996   2.147   1.312  0.00  0.00    -0.010 A 
ATOM     17  C   LIG    1        5.335   2.377   1.563  0.00  0.00    +0.040 A 
ATOM     18  C   LIG    1        6.285   1.469   1.134  0.00  0.00    -0.020 A 
ATOM     19  C   LIG    1        5.900   0.326   0.457  0.00  0.00    +0.040 A 
ATOM     20  C   LIG    1        4.562   0.088   0.208  0.00  0.00    -0.030 A 
ENDBRANCH  12  15
ENDBRANCH   5   9
BRANCH   1  22
ATOM     21  C   LIG    1       -1.791   5.599  -4.287  0.00  0.00    +0.100 C 
ATOM     22  C   LIG    1       -2.978   5.294  -3.371  0.00  0.00    +0.020 C 
ATOM     23  C   LIG    1       -4.250   5.902  -3.965  0.00  0.00    +0.110 C 
BRANCH  22  24
ATOM     24  C   LIG    1       -2.733   5.873  -2.040  0.00  0.00    +0.200 C 
ATOM     25  N   LIG    1       -2.543   6.320  -1.013  0.00  0.00    -0.400 NA
ENDBRANCH  22  24
ENDBRANCH   1  22
TORSDOF 4
