REMARK  Name = ZINCrD00000hQ5pk.0
REMARK                            x       y       z     vdW  Elec       q    Type
REMARK                         _______ _______ _______ _____ _____    ______ ____
ROOT
ATOM      1  N   LIG    1        3.791   1.019  -0.180  0.00  0.00    -0.710 N 
ATOM      2  H   LIG    1        3.928   1.978  -0.222  0.00  0.00    +0.410 HD
ENDROOT
BRANCH   1   3
ATOM      3  C   LIG    1        4.876   0.160  -0.244  0.00  0.00    +0.440 A 
ATOM      4  C   LIG    1        4.691  -1.223  -0.180  0.00  0.00    -0.120 A 
ATOM      5  C   LIG    1        5.805  -2.037  -0.252  0.00  0.00    +0.200 A 
ATOM      6  N   LIG    1        7.004  -1.484  -0.369  0.00  0.00    -0.550 NA
ATOM      7  C   LIG    1        7.145  -0.174  -0.422  0.00  0.00    +0.380 A 
ATOM      8  N   LIG    1        6.111   0.639  -0.362  0.00  0.00    -0.570 NA
BRANCH   7   9
ATOM      9  C   LIG    1        8.529   0.408  -0.556  0.00  0.00    +0.000 C 
ATOM     10  C   LIG    1        9.173  -0.099  -1.848  0.00  0.00    +0.050 C 
ATOM     11  C   LIG    1        9.380  -0.021   0.641  0.00  0.00    +0.050 C 
ATOM     12  C   LIG    1        8.438   1.935  -0.597  0.00  0.00    +0.050 C 
ENDBRANCH   7   9
BRANCH   5  13
ATOM     13  C   LIG    1        5.659  -3.535  -0.191  0.00  0.00    +0.270 C 
BRANCH  13  14
ATOM     14  O   LIG    1        4.277  -3.875  -0.065  0.00  0.00    -0.390 OA
ATOM     15  C   LIG    1        4.027  -5.280   0.001  0.00  0.00    +0.220 C 
ENDBRANCH  13  14
ENDBRANCH   5  13
ENDBRANCH   1   3
BRANCH   1  16
ATOM     16  C   LIG    1        2.435   0.478  -0.051  0.00  0.00    +0.290 C 
BRANCH  16  21
ATOM     17  C   LIG    1       -0.013   1.086   0.008  0.00  0.00    +0.250 C 
ATOM     18  O   LIG    1       -0.639   1.560   1.212  0.00  0.00    -0.370 OA
ATOM     19  C   LIG    1        0.413   1.778   2.177  0.00  0.00    +0.210 C 
ATOM     20  C   LIG    1        1.553   2.402   1.333  0.00  0.00    +0.020 C 
ATOM     21  C   LIG    1        1.429   1.629  -0.003  0.00  0.00    -0.020 C 
BRANCH  17  26
ATOM     22  N   LIG    1       -1.552   2.687  -1.239  0.00  0.00    -0.350 N 
ATOM     23  N   LIG    1       -2.054   2.806  -2.542  0.00  0.00    -0.290 NA
ATOM     24  C   LIG    1       -1.578   1.817  -3.255  0.00  0.00    +0.230 A 
ATOM     25  C   LIG    1       -0.756   1.041  -2.432  0.00  0.00    -0.120 A 
ATOM     26  C   LIG    1       -0.761   1.595  -1.197  0.00  0.00    +0.080 A 
BRANCH  22  28
ATOM     27  C   LIG    1       -0.798   4.713  -0.096  0.00  0.00    +0.030 C 
ATOM     28  C   LIG    1       -1.836   3.590  -0.121  0.00  0.00    +0.320 C 
ENDBRANCH  22  28
ENDBRANCH  17  26
ENDBRANCH  16  21
ENDBRANCH   1  16
TORSDOF 8
