REMARK  Name = ZINCrD00000hQ5pK.1
REMARK                            x       y       z     vdW  Elec       q    Type
REMARK                         _______ _______ _______ _____ _____    ______ ____
ROOT
ATOM      1  C   LIG    1       -7.962  -3.089   0.614  0.00  0.00    +0.370 C 
ATOM      2  C   LIG    1       -7.911  -4.351   1.480  0.00  0.00    +0.030 C 
ATOM      3  C   LIG    1       -8.107  -3.966   2.948  0.00  0.00    +0.030 C 
ATOM      4  C   LIG    1       -6.977  -3.032   3.388  0.00  0.00    +0.010 C 
ATOM      5  C   LIG    1       -7.014  -1.759   2.544  0.00  0.00    +0.270 C 
ATOM      6  N   LIG    1       -6.976  -2.126   1.122  0.00  0.00    -0.610 N 
ATOM      7  C   LIG    1       -6.050  -1.593   0.300  0.00  0.00    +0.710 C 
ATOM      8  N   LIG    1       -5.095  -0.782   0.797  0.00  0.00    -0.640 N 
ATOM      9  H   LIG    1       -5.117  -0.522   1.731  0.00  0.00    +0.420 HD
ATOM     10  O   LIG    1       -6.075  -1.845  -0.889  0.00  0.00    -0.530 OA
ENDROOT
BRANCH   8  11
ATOM     11  C   LIG    1       -4.078  -0.319  -0.029  0.00  0.00    +0.270 A 
ATOM     12  N   LIG    1       -3.120   0.459   0.344  0.00  0.00    -0.510 NA
ATOM     13  C   LIG    1       -2.217   0.816  -0.575  0.00  0.00    +0.080 A 
ATOM     14  C   LIG    1       -2.456   0.292  -1.781  0.00  0.00    -0.310 A 
ATOM     15  C   LIG    1       -1.401   0.730  -2.781  0.00  0.00    +0.130 C 
ATOM     16  C   LIG    1       -0.228   1.247  -1.917  0.00  0.00    +0.060 C 
ATOM     17  C   LIG    1       -0.958   1.678  -0.629  0.00  0.00    +0.020 C 
ATOM     18  C   LIG    1       -0.079   1.411   0.594  0.00  0.00    +0.040 C 
ATOM     19  C   LIG    1       -1.331   3.160  -0.701  0.00  0.00    +0.050 C 
ATOM     20  S   LIG    1       -3.916  -0.696  -1.687  0.00  0.00    +0.260 S 
ENDBRANCH   8  11
BRANCH   1  23
ATOM     21  C   LIG    1       -7.822  -3.622  -2.959  0.00  0.00    +0.290 A 
ATOM     22  N   LIG    1       -8.402  -3.182  -1.872  0.00  0.00    -0.530 NA
ATOM     23  C   LIG    1       -7.634  -3.442  -0.814  0.00  0.00    +0.240 A 
ATOM     24  N   LIG    1       -6.548  -4.048  -1.216  0.00  0.00    -0.280 NA
ATOM     25  N   LIG    1       -6.651  -4.181  -2.611  0.00  0.00    -0.450 N 
ATOM     26  H   LIG    1       -6.003  -4.592  -3.204  0.00  0.00    +0.440 HD
BRANCH  21  27
ATOM     27  C   LIG    1       -8.372  -3.518  -4.359  0.00  0.00    +0.320 C 
BRANCH  27  29
ATOM     28  C   LIG    1       -7.880  -4.067  -6.639  0.00  0.00    +0.230 C 
ATOM     29  O   LIG    1       -7.452  -4.112  -5.277  0.00  0.00    -0.400 OA
ENDBRANCH  27  29
ENDBRANCH  21  27
ENDBRANCH   1  23
TORSDOF 4
