REMARK  Name = ZINCpk00000ebfh2.0
REMARK                            x       y       z     vdW  Elec       q    Type
REMARK                         _______ _______ _______ _____ _____    ______ ____
ROOT
ATOM      1  N   LIG    1       -0.678   4.160   4.878  0.00  0.00    -0.530 NA
ATOM      2  C   LIG    1       -0.754   4.714   6.230  0.00  0.00    +0.150 C 
ATOM      3  C   LIG    1        0.154   5.851   6.474  0.00  0.00    +0.030 C 
ATOM      4  C   LIG    1       -0.215   7.026   5.535  0.00  0.00    +0.280 C 
ATOM      5  N   LIG    1        0.121   6.679   4.171  0.00  0.00    -0.570 N 
ATOM      6  C   LIG    1       -0.819   5.988   3.264  0.00  0.00    +0.270 C 
ATOM      7  C   LIG    1        1.345   7.000   3.708  0.00  0.00    +0.600 C 
ATOM      8  O   LIG    1        1.673   6.678   2.582  0.00  0.00    -0.540 OA
ATOM      9  C   LIG    1       -1.578   4.861   3.988  0.00  0.00    +0.160 C 
ENDROOT
BRANCH   7  10
ATOM     10  C   LIG    1        2.288   7.742   4.567  0.00  0.00    +0.010 A 
ATOM     11  C   LIG    1        3.500   8.241   4.182  0.00  0.00    +0.170 A 
ATOM     12  N   LIG    1        4.044   8.854   5.270  0.00  0.00    -0.360 N 
ATOM     13  C   LIG    1        5.225   9.516   5.458  0.00  0.00    +0.220 A 
ATOM     14  C   LIG    1        5.537  10.038   6.661  0.00  0.00    +0.010 A 
ATOM     15  C   LIG    1        4.648   9.908   7.743  0.00  0.00    +0.050 A 
ATOM     16  C   LIG    1        3.470   9.253   7.572  0.00  0.00    +0.070 A 
ATOM     17  C   LIG    1        3.156   8.711   6.307  0.00  0.00    +0.220 A 
ATOM     18  N   LIG    1        2.106   8.040   5.867  0.00  0.00    -0.460 NA
ENDBRANCH   7  10
BRANCH   1  19
ATOM     19  C   LIG    1       -0.959   2.718   4.884  0.00  0.00    +0.260 C 
BRANCH  19  23
ATOM     20  C   LIG    1        0.046   0.884   0.329  0.00  0.00    +0.360 C 
ATOM     21  N   LIG    1       -0.669   1.432   1.484  0.00  0.00    -0.370 N 
ATOM     22  C   LIG    1       -0.122   1.764   2.672  0.00  0.00    +0.250 A 
ATOM     23  C   LIG    1       -1.113   2.231   3.466  0.00  0.00    -0.240 A 
ATOM     24  C   LIG    1       -2.307   2.182   2.738  0.00  0.00    +0.230 A 
ATOM     25  N   LIG    1       -2.041   1.708   1.548  0.00  0.00    -0.290 NA
ENDBRANCH  19  23
ENDBRANCH   1  19
TORSDOF 3
