REMARK  Name = ZINCrg000000tX7G.1
REMARK                            x       y       z     vdW  Elec       q    Type
REMARK                         _______ _______ _______ _____ _____    ______ ____
ROOT
ATOM      1  C   LIG    1       -0.729   1.579   1.267  0.00  0.00    +0.180 C 
ENDROOT
BRANCH   1   7
ATOM      2  O   LIG    1        1.421  -1.349   6.012  0.00  0.00    -0.470 OA
ATOM      3  C   LIG    1        0.648  -1.277   5.074  0.00  0.00    +0.600 A 
ATOM      4  C   LIG    1        0.661  -0.114   4.177  0.00  0.00    +0.110 A 
ATOM      5  N   LIG    1        1.369   0.991   4.118  0.00  0.00    -0.200 NA
ATOM      6  N   LIG    1        0.974   1.696   3.115  0.00  0.00    -0.260 NA
ATOM      7  C   LIG    1        0.000   1.080   2.488  0.00  0.00    +0.200 A 
ATOM      8  N   LIG    1       -0.234  -0.075   3.135  0.00  0.00    -0.390 N 
ATOM      9  C   LIG    1       -1.113  -1.126   2.948  0.00  0.00    +0.160 A 
ATOM     10  C   LIG    1       -1.114  -2.173   3.766  0.00  0.00    +0.280 A 
ATOM     11  N   LIG    1       -0.242  -2.265   4.833  0.00  0.00    -0.500 N 
BRANCH  11  12
ATOM     12  C   LIG    1       -0.282  -3.439   5.708  0.00  0.00    +0.210 C 
ATOM     13  C   LIG    1       -1.161  -4.614   5.274  0.00  0.00    +0.050 C 
ATOM     14  C   LIG    1       -1.591  -3.727   6.445  0.00  0.00    +0.030 C 
ENDBRANCH  11  12
ENDBRANCH   1   7
BRANCH   1  15
ATOM     15  C   LIG    1       -0.013   1.086   0.008  0.00  0.00    +0.290 C 
BRANCH  15  16
ATOM     16  N   LIG    1       -0.721   1.571  -1.179  0.00  0.00    -1.110 NA
ATOM     17  H   LIG    1       -1.621   1.925  -1.096  0.00  0.00    +0.420 HD
BRANCH  16  18
ATOM     18  S   LIG    1        0.013   1.515  -2.662  0.00  0.00    +2.700 S 
ATOM     19  O   LIG    1        1.308   2.074  -2.490  0.00  0.00    -0.930 OA
ATOM     20  O   LIG    1       -0.932   2.018  -3.597  0.00  0.00    -0.930 OA
BRANCH  18  21
ATOM     21  C   LIG    1        0.253  -0.184  -3.062  0.00  0.00    -0.770 A 
ATOM     22  C   LIG    1        1.424  -0.824  -2.693  0.00  0.00    +0.230 A 
ATOM     23  C   LIG    1        1.609  -2.160  -3.003  0.00  0.00    -0.040 A 
ATOM     24  C   LIG    1        0.630  -2.853  -3.691  0.00  0.00    +0.160 A 
ATOM     25  C   LIG    1       -0.537  -2.214  -4.063  0.00  0.00    -0.030 A 
ATOM     26  F   LIG    1        2.383  -0.145  -2.026  0.00  0.00    -0.100 F 
ATOM     27  C   LIG    1       -0.727  -0.879  -3.749  0.00  0.00    +0.230 A 
ATOM     28  F   LIG    1       -1.868  -0.254  -4.115  0.00  0.00    -0.100 F 
ENDBRANCH  18  21
ENDBRANCH  16  18
ENDBRANCH  15  16
ENDBRANCH   1  15
TORSDOF 6
