REMARK  Name = ZINCqH0000007cOU.0
REMARK                            x       y       z     vdW  Elec       q    Type
REMARK                         _______ _______ _______ _____ _____    ______ ____
ROOT
ATOM      1  S   LIG    1        0.027  -0.618   1.709  0.00  0.00    +2.410 S 
ATOM      2  O   LIG    1       -1.198  -0.262   2.335  0.00  0.00    -0.920 OA
ATOM      3  O   LIG    1        1.253  -0.229   2.312  0.00  0.00    -0.910 OA
ENDROOT
BRANCH   1   4
ATOM      4  C   LIG    1        0.002  -0.004   0.002  0.00  0.00    -0.260 C 
BRANCH   4   8
ATOM      5  C   LIG    1       -0.059   4.270   0.026  0.00  0.00    +0.110 A 
ATOM      6  C   LIG    1       -1.248   3.558   0.033  0.00  0.00    -0.030 A 
ATOM      7  C   LIG    1       -1.225   2.176   0.020  0.00  0.00    +0.070 A 
ATOM      8  C   LIG    1       -0.018   1.503   0.010  0.00  0.00    -0.110 A 
ATOM      9  C   LIG    1        1.171   2.209   0.003  0.00  0.00    +0.050 A 
ATOM     10  C   LIG    1        1.154   3.592   0.010  0.00  0.00    +0.070 A 
ATOM     11  F   LIG    1        2.315   4.282   0.003  0.00  0.00    -0.130 F 
BRANCH   5  13
ATOM     12  C   LIG    1       -1.361   6.260   0.048  0.00  0.00    +0.250 C 
ATOM     13  O   LIG    1       -0.079   5.630   0.033  0.00  0.00    -0.310 OA
ENDBRANCH   5  13
ENDBRANCH   4   8
ENDBRANCH   1   4
BRANCH   1  14
ATOM     14  C   LIG    1        0.049  -2.415   1.461  0.00  0.00    -0.230 C 
BRANCH  14  15
ATOM     15  C   LIG    1        0.071  -3.106   2.799  0.00  0.00    -0.020 A 
ATOM     16  C   LIG    1       -1.005  -3.485   3.513  0.00  0.00    +0.200 A 
ATOM     17  O   LIG    1       -0.552  -4.065   4.643  0.00  0.00    -0.190 OA
ATOM     18  C   LIG    1        0.792  -4.035   4.607  0.00  0.00    +0.250 A 
ATOM     19  N   LIG    1        1.167  -3.460   3.488  0.00  0.00    -0.450 NA
BRANCH  18  20
ATOM     20  C   LIG    1        1.695  -4.566   5.649  0.00  0.00    -0.040 A 
ATOM     21  C   LIG    1        3.079  -4.477   5.488  0.00  0.00    +0.110 A 
ATOM     22  C   LIG    1        3.917  -4.970   6.466  0.00  0.00    +0.000 A 
ATOM     23  C   LIG    1        3.388  -5.562   7.602  0.00  0.00    +0.120 A 
ATOM     24  C   LIG    1        2.015  -5.656   7.765  0.00  0.00    +0.000 A 
ATOM     25  F   LIG    1        4.214  -6.048   8.555  0.00  0.00    -0.130 F 
ATOM     26  C   LIG    1        1.168  -5.162   6.796  0.00  0.00    +0.080 A 
ENDBRANCH  18  20
ENDBRANCH  14  15
ENDBRANCH   1  14
TORSDOF 6
