REMARK  Name = ZINCpk00000eaPCK.0
REMARK                            x       y       z     vdW  Elec       q    Type
REMARK                         _______ _______ _______ _____ _____    ______ ____
ROOT
ATOM      1  C   LIG    1        3.469   3.873  -1.438  0.00  0.00    +0.140 C 
ATOM      2  C   LIG    1        2.526   4.698  -0.560  0.00  0.00    +0.080 C 
ENDROOT
BRANCH   1   3
ATOM      3  C   LIG    1        3.433   2.432  -0.998  0.00  0.00    +0.520 C 
ATOM      4  N   LIG    1        2.506   1.595  -1.506  0.00  0.00    -0.560 N 
ATOM      5  C   LIG    1        1.463   2.147  -2.366  0.00  0.00    +0.290 C 
ATOM      6  C   LIG    1        0.095   1.723  -1.810  0.00  0.00    +0.100 C 
ATOM      7  S   LIG    1       -0.036  -0.082  -1.973  0.00  0.00    -0.110 S 
ATOM      8  C   LIG    1        1.514  -0.637  -1.340  0.00  0.00    -0.120 A 
ATOM      9  C   LIG    1        1.658  -1.977  -0.998  0.00  0.00    +0.050 A 
ATOM     10  C   LIG    1        2.858  -2.444  -0.499  0.00  0.00    +0.010 A 
ATOM     11  C   LIG    1        3.926  -1.578  -0.349  0.00  0.00    +0.030 A 
ATOM     12  C   LIG    1        3.793  -0.247  -0.690  0.00  0.00    +0.030 A 
ATOM     13  C   LIG    1        2.585   0.237  -1.187  0.00  0.00    +0.150 A 
ATOM     14  O   LIG    1        4.238   2.026  -0.187  0.00  0.00    -0.480 OA
ENDBRANCH   1   3
BRANCH   1  18
ATOM     15  C   LIG    1        6.396   7.820  -1.752  0.00  0.00    +0.050 C 
ATOM     16  C   LIG    1        6.286   6.365  -1.291  0.00  0.00    +0.250 C 
ATOM     17  C   LIG    1        4.887   5.828  -1.611  0.00  0.00    +0.180 C 
ATOM     18  N   LIG    1        4.837   4.391  -1.309  0.00  0.00    -0.510 NA
ATOM     19  C   LIG    1        5.768   3.635  -2.157  0.00  0.00    +0.170 C 
ATOM     20  C   LIG    1        7.204   4.083  -1.860  0.00  0.00    +0.320 C 
ATOM     21  N   LIG    1        7.277   5.545  -2.005  0.00  0.00    -1.000 NA
BRANCH  21  22
ATOM     22  S   LIG    1        8.443   6.248  -2.946  0.00  0.00    +2.610 S 
ATOM     23  O   LIG    1        9.435   5.240  -3.087  0.00  0.00    -0.950 OA
ATOM     24  O   LIG    1        8.732   7.474  -2.288  0.00  0.00    -0.950 OA
ATOM     25  C   LIG    1        7.619   6.556  -4.533  0.00  0.00    -0.290 C 
ENDBRANCH  21  22
ENDBRANCH   1  18
TORSDOF 3
