REMARK  Name = ZINCpe00000MJLri.0
REMARK                            x       y       z     vdW  Elec       q    Type
REMARK                         _______ _______ _______ _____ _____    ______ ____
ROOT
ATOM      1  C   LIG    1       -1.306   2.120   0.020  0.00  0.00    +0.600 C 
ATOM      2  N   LIG    1       -1.322   3.468   0.027  0.00  0.00    -0.600 N 
ATOM      3  C   LIG    1       -0.134   4.341   0.033  0.00  0.00    +0.290 C 
ATOM      4  C   LIG    1       -0.626   5.680  -0.575  0.00  0.00    +0.050 C 
ATOM      5  C   LIG    1       -2.057   5.781   0.017  0.00  0.00    +0.250 C 
ATOM      6  C   LIG    1       -2.526   4.311   0.037  0.00  0.00    +0.260 C 
ATOM      7  O   LIG    1       -2.352   1.500   0.021  0.00  0.00    -0.530 OA
ENDROOT
BRANCH   1  11
ATOM      8  C   LIG    1        2.378   0.158  -0.020  0.00  0.00    +0.280 A 
ATOM      9  C   LIG    1        1.234  -0.637  -0.013  0.00  0.00    +0.030 A 
ATOM     10  C   LIG    1        0.002  -0.004   0.002  0.00  0.00    +0.140 A 
ATOM     11  C   LIG    1       -0.017   1.395   0.010  0.00  0.00    -0.010 A 
ATOM     12  N   LIG    1        1.127   2.070   0.002  0.00  0.00    -0.170 NA
ATOM     13  N   LIG    1        2.266   1.480  -0.012  0.00  0.00    -0.300 NA
BRANCH   8  15
ATOM     14  C   LIG    1        4.733   0.456  -0.041  0.00  0.00    +0.280 C 
ATOM     15  O   LIG    1        3.604  -0.419  -0.035  0.00  0.00    -0.290 OA
ENDBRANCH   8  15
ENDBRANCH   1  11
BRANCH   5  16
ATOM     16  N   LIG    1       -2.923   6.589  -0.845  0.00  0.00    -0.690 N 
ATOM     17  H   LIG    1       -2.685   6.731  -1.775  0.00  0.00    +0.420 HD
BRANCH  16  18
ATOM     18  C   LIG    1       -4.086   7.153  -0.330  0.00  0.00    +0.410 A 
ATOM     19  N   LIG    1       -4.404   6.951   0.927  0.00  0.00    -0.350 NA
ATOM     20  N   LIG    1       -5.565   7.512   1.467  0.00  0.00    -0.250 N 
ATOM     21  C   LIG    1       -6.124   7.471   2.708  0.00  0.00    +0.170 A 
ATOM     22  C   LIG    1       -7.266   8.198   2.659  0.00  0.00    +0.200 A 
ATOM     23  N   LIG    1       -7.412   8.676   1.423  0.00  0.00    -0.460 NA
ATOM     24  C   LIG    1       -6.390   8.272   0.679  0.00  0.00    +0.140 A 
ATOM     25  C   LIG    1       -6.051   8.484  -0.672  0.00  0.00    +0.180 A 
ATOM     26  C   LIG    1       -4.912   7.929  -1.165  0.00  0.00    -0.050 A 
ENDBRANCH  16  18
ENDBRANCH   5  16
TORSDOF 4
