REMARK  Name = ZINC650000002DyP.0
REMARK                            x       y       z     vdW  Elec       q    Type
REMARK                         _______ _______ _______ _____ _____    ______ ____
ROOT
ATOM      1  C   LIG    1       -0.017   1.428   0.010  0.00  0.00    -0.210 C 
ATOM      2  C   LIG    1       -1.208   2.094   0.019  0.00  0.00    +0.510 C 
ENDROOT
BRANCH   2   3
ATOM      3  N   LIG    1       -1.226   3.467   0.027  0.00  0.00    -0.860 N 
ATOM      4  H   LIG    1       -2.073   3.941   0.033  0.00  0.00    +0.400 HD
ATOM      5  H   LIG    1       -0.393   3.963   0.025  0.00  0.00    +0.420 HD
ENDBRANCH   2   3
BRANCH   2   6
ATOM      6  N   LIG    1       -2.388   1.391   0.021  0.00  0.00    -0.860 N 
ATOM      7  H   LIG    1       -3.234   1.864   0.028  0.00  0.00    +0.400 HD
ATOM      8  H   LIG    1       -2.374   0.421   0.016  0.00  0.00    +0.420 HD
ENDBRANCH   2   6
BRANCH   1  10
ATOM      9  N   LIG    1        0.018  -1.140  -0.004  0.00  0.00    -0.490 NA
ATOM     10  C   LIG    1        0.002  -0.004   0.002  0.00  0.00    +0.270 C 
ENDBRANCH   1  10
TORSDOF 3
