REMARK  Name = ZINCrH000004o3uI.0
REMARK                            x       y       z     vdW  Elec       q    Type
REMARK                         _______ _______ _______ _____ _____    ______ ____
ROOT
ATOM      1  C   LIG    1        6.783  -1.061   0.031  0.00  0.00    +0.520 C 
ATOM      2  N   LIG    1        6.476   0.248  -0.060  0.00  0.00    -0.680 N 
ATOM      3  H   LIG    1        7.183   0.907  -0.141  0.00  0.00    +0.410 HD
ATOM      4  O   LIG    1        5.900  -1.893   0.036  0.00  0.00    -0.510 OA
ENDROOT
BRANCH   2   5
ATOM      5  C   LIG    1        5.138   0.655  -0.039  0.00  0.00    +0.150 A 
ATOM      6  C   LIG    1        4.210  -0.048   0.720  0.00  0.00    +0.020 A 
ATOM      7  C   LIG    1        2.891   0.352   0.743  0.00  0.00    +0.070 A 
ATOM      8  C   LIG    1        2.488   1.464   0.004  0.00  0.00    -0.030 A 
ATOM      9  C   LIG    1        3.419   2.165  -0.760  0.00  0.00    +0.050 A 
ATOM     10  C   LIG    1        4.739   1.764  -0.776  0.00  0.00    -0.020 A 
BRANCH   8  11
ATOM     11  C   LIG    1        1.069   1.896   0.027  0.00  0.00    +0.090 A 
ATOM     12  C   LIG    1        0.549   2.953  -0.642  0.00  0.00    +0.150 A 
ATOM     13  N   LIG    1       -0.807   3.007  -0.341  0.00  0.00    -0.420 N 
ATOM     14  C   LIG    1       -1.906   3.773  -0.655  0.00  0.00    +0.220 A 
ATOM     15  C   LIG    1       -3.075   3.454  -0.127  0.00  0.00    +0.010 A 
ATOM     16  S   LIG    1       -2.771   2.025   0.876  0.00  0.00    +0.160 S 
ATOM     17  C   LIG    1       -1.042   1.961   0.499  0.00  0.00    +0.160 A 
ATOM     18  N   LIG    1        0.073   1.306   0.717  0.00  0.00    -0.440 NA
ENDBRANCH   8  11
ENDBRANCH   2   5
BRANCH   1  19
ATOM     19  C   LIG    1        8.224  -1.492   0.128  0.00  0.00    +0.070 C 
BRANCH  19  21
ATOM     20  C   LIG    1        9.746  -3.448   0.444  0.00  0.00    +0.040 C 
ATOM     21  C   LIG    1        8.295  -3.018   0.220  0.00  0.00    +0.250 C 
BRANCH  21  22
ATOM     22  N   LIG    1        7.797  -3.606  -1.026  0.00  0.00    -0.590 N 
ATOM     23  C   LIG    1        6.646  -4.497  -0.949  0.00  0.00    +0.260 C 
ATOM     24  C   LIG    1        5.982  -4.630  -2.321  0.00  0.00    +0.020 C 
ATOM     25  C   LIG    1        7.059  -4.989  -3.352  0.00  0.00    +0.020 C 
ATOM     26  C   LIG    1        7.997  -3.790  -3.510  0.00  0.00    +0.060 C 
ATOM     27  C   LIG    1        8.429  -3.297  -2.159  0.00  0.00    +0.520 C 
ATOM     28  O   LIG    1        9.405  -2.581  -2.095  0.00  0.00    -0.560 OA
ENDBRANCH  21  22
ENDBRANCH  19  21
ENDBRANCH   1  19
TORSDOF 5
