REMARK  Name = ZINCrg00000BmFRY.1
REMARK                            x       y       z     vdW  Elec       q    Type
REMARK                         _______ _______ _______ _____ _____    ______ ____
ROOT
ATOM      1  C   LIG    1        2.207   0.798   0.598  0.00  0.00    +0.250 C 
ATOM      2  C   LIG    1        1.482  -0.442   0.013  0.00  0.00    +0.030 C 
ATOM      3  C   LIG    1        0.002  -0.004   0.002  0.00  0.00    +0.260 C 
ATOM      4  N   LIG    1       -0.018   1.466   0.010  0.00  0.00    -0.620 N 
ATOM      5  C   LIG    1       -1.124   2.236   0.020  0.00  0.00    +0.530 C 
ATOM      6  O   LIG    1       -1.021   3.445   0.025  0.00  0.00    -0.520 OA
ATOM      7  C   LIG    1        1.372   1.958  -0.001  0.00  0.00    +0.260 C 
ENDROOT
BRANCH   1  10
ATOM      8  O   LIG    1        4.276  -0.449   1.794  0.00  0.00    -0.500 OA
ATOM      9  C   LIG    1        4.559   0.198   0.808  0.00  0.00    +0.520 C 
ATOM     10  N   LIG    1        3.596   0.860   0.136  0.00  0.00    -0.720 N 
ATOM     11  H   LIG    1        3.823   1.377  -0.652  0.00  0.00    +0.400 HD
BRANCH   9  12
ATOM     12  C   LIG    1        5.988   0.261   0.334  0.00  0.00    +0.190 C 
BRANCH  12  13
ATOM     13  C   LIG    1        6.859  -0.558   1.251  0.00  0.00    +0.180 A 
ATOM     14  N   LIG    1        6.960  -0.424   2.546  0.00  0.00    -0.260 NA
ATOM     15  N   LIG    1        7.790  -1.290   3.007  0.00  0.00    -0.290 NA
ATOM     16  C   LIG    1        8.264  -2.010   2.027  0.00  0.00    +0.380 A 
ATOM     17  N   LIG    1        7.687  -1.566   0.885  0.00  0.00    -0.580 N 
ATOM     18  H   LIG    1        7.836  -1.902  -0.013  0.00  0.00    +0.430 HD
ENDBRANCH  12  13
ENDBRANCH   9  12
ENDBRANCH   1  10
BRANCH   5  19
ATOM     19  C   LIG    1       -2.488   1.597   0.024  0.00  0.00    +0.100 C 
BRANCH  19  20
ATOM     20  C   LIG    1       -3.562   2.686   0.035  0.00  0.00    +0.200 C 
ATOM     21  C   LIG    1       -4.952   2.039  -0.083  0.00  0.00    +0.090 C 
ATOM     22  S   LIG    1       -6.159   3.388  -0.267  0.00  0.00    -0.110 S 
ATOM     23  C   LIG    1       -5.607   4.542   0.950  0.00  0.00    -0.160 A 
ATOM     24  C   LIG    1       -6.444   5.591   1.309  0.00  0.00    +0.070 A 
ATOM     25  C   LIG    1       -6.031   6.524   2.240  0.00  0.00    -0.010 A 
ATOM     26  C   LIG    1       -4.779   6.412   2.815  0.00  0.00    +0.050 A 
ATOM     27  C   LIG    1       -3.946   5.367   2.468  0.00  0.00    +0.000 A 
ATOM     28  C   LIG    1       -4.352   4.416   1.535  0.00  0.00    +0.140 A 
ATOM     29  O   LIG    1       -3.490   3.412   1.252  0.00  0.00    -0.310 OA
ENDBRANCH  19  20
ENDBRANCH   5  19
TORSDOF 5
