REMARK  Name = ZINCrg00000BmFRY.0
REMARK                            x       y       z     vdW  Elec       q    Type
REMARK                         _______ _______ _______ _____ _____    ______ ____
ROOT
ATOM      1  C   LIG    1        8.532   4.357   1.178  0.00  0.00    +0.250 C 
ATOM      2  C   LIG    1        8.424   5.809   0.640  0.00  0.00    +0.030 C 
ATOM      3  C   LIG    1        6.919   5.952   0.331  0.00  0.00    +0.260 C 
ATOM      4  N   LIG    1        6.210   4.948   1.139  0.00  0.00    -0.620 N 
ATOM      5  C   LIG    1        4.879   4.738   1.139  0.00  0.00    +0.530 C 
ATOM      6  O   LIG    1        4.401   3.879   1.850  0.00  0.00    -0.520 OA
ATOM      7  C   LIG    1        7.196   4.215   1.954  0.00  0.00    +0.270 C 
ENDROOT
BRANCH   1  10
ATOM      8  O   LIG    1       11.047   3.800   0.385  0.00  0.00    -0.520 OA
ATOM      9  C   LIG    1       10.898   3.935   1.581  0.00  0.00    +0.530 C 
ATOM     10  N   LIG    1        9.678   4.215   2.080  0.00  0.00    -0.720 N 
ATOM     11  H   LIG    1        9.558   4.323   3.037  0.00  0.00    +0.410 HD
BRANCH   9  12
ATOM     12  C   LIG    1       12.076   3.789   2.509  0.00  0.00    +0.200 C 
BRANCH  12  13
ATOM     13  C   LIG    1       13.313   3.478   1.705  0.00  0.00    +0.240 A 
ATOM     14  N   LIG    1       13.738   2.281   1.397  0.00  0.00    -0.300 NA
ATOM     15  N   LIG    1       14.911   2.449   0.644  0.00  0.00    -0.480 N 
ATOM     16  H   LIG    1       15.464   1.747   0.265  0.00  0.00    +0.440 HD
ATOM     17  C   LIG    1       15.120   3.774   0.558  0.00  0.00    +0.490 A 
ATOM     18  N   LIG    1       14.153   4.380   1.199  0.00  0.00    -0.540 NA
ENDBRANCH  12  13
ENDBRANCH   9  12
ENDBRANCH   1  10
BRANCH   5  19
ATOM     19  C   LIG    1        3.985   5.570   0.257  0.00  0.00    +0.100 C 
BRANCH  19  20
ATOM     20  C   LIG    1        2.531   5.132   0.446  0.00  0.00    +0.200 C 
ATOM     21  C   LIG    1        1.604   6.051  -0.365  0.00  0.00    +0.090 C 
ATOM     22  S   LIG    1       -0.106   5.607   0.068  0.00  0.00    -0.110 S 
ATOM     23  C   LIG    1       -0.044   3.843   0.034  0.00  0.00    -0.160 A 
ATOM     24  C   LIG    1       -1.236   3.129   0.034  0.00  0.00    +0.070 A 
ATOM     25  C   LIG    1       -1.220   1.748   0.017  0.00  0.00    -0.010 A 
ATOM     26  C   LIG    1       -0.013   1.076   0.008  0.00  0.00    +0.050 A 
ATOM     27  C   LIG    1        1.175   1.780   0.000  0.00  0.00    +0.000 A 
ATOM     28  C   LIG    1        1.173   3.172   0.012  0.00  0.00    +0.140 A 
ATOM     29  O   LIG    1        2.373   3.797  -0.012  0.00  0.00    -0.310 OA
ENDBRANCH  19  20
ENDBRANCH   5  19
TORSDOF 5
