REMARK  Name = ZINCnE00000dSPJG.0
REMARK                            x       y       z     vdW  Elec       q    Type
REMARK                         _______ _______ _______ _____ _____    ______ ____
ROOT
ATOM      1  C   LIG    1       -0.401   1.154   6.330  0.00  0.00    +0.510 C 
ATOM      2  N   LIG    1        0.287   0.889   7.458  0.00  0.00    -0.670 N 
ATOM      3  H   LIG    1        1.113   0.381   7.414  0.00  0.00    +0.410 HD
ATOM      4  O   LIG    1       -1.480   1.704   6.394  0.00  0.00    -0.500 OA
ENDROOT
BRANCH   2   5
ATOM      5  C   LIG    1       -0.189   1.345   8.693  0.00  0.00    +0.120 A 
ATOM      6  C   LIG    1        0.019   0.588   9.840  0.00  0.00    +0.020 A 
ATOM      7  C   LIG    1       -0.444   1.035  11.064  0.00  0.00    -0.080 A 
ATOM      8  C   LIG    1       -1.127   2.235  11.154  0.00  0.00    +0.130 A 
ATOM      9  C   LIG    1       -1.346   3.001  10.003  0.00  0.00    -0.140 A 
ATOM     10  F   LIG    1       -1.583   2.666  12.350  0.00  0.00    -0.110 F 
ATOM     11 CL   LIG    1       -0.173   0.085  12.491  0.00  0.00    -0.060 Cl
ATOM     12  C   LIG    1       -0.871   2.548   8.769  0.00  0.00    +0.100 A 
BRANCH   9  13
ATOM     13  C   LIG    1       -2.073   4.280  10.092  0.00  0.00    +0.520 C 
ATOM     14  O   LIG    1       -2.487   4.674  11.173  0.00  0.00    -0.670 OA
ATOM     15  O   LIG    1       -2.262   4.947   9.084  0.00  0.00    -0.670 OA
ENDBRANCH   9  13
ENDBRANCH   2   5
BRANCH   1  16
ATOM     16  C   LIG    1        0.169   0.767   4.990  0.00  0.00    +0.050 C 
BRANCH  16  17
ATOM     17  C   LIG    1       -0.804   1.178   3.883  0.00  0.00    +0.130 C 
BRANCH  17  18
ATOM     18  C   LIG    1       -0.225   0.785   2.523  0.00  0.00    +0.040 C 
ATOM     19  N   LIG    1        1.231   0.734   2.369  0.00  0.00    -0.120 NA
ATOM     20  N   LIG    1        0.672  -0.371   2.450  0.00  0.00    -0.130 NA
BRANCH  18  21
ATOM     21  C   LIG    1       -1.079   1.127   1.300  0.00  0.00    +0.120 C 
BRANCH  21  22
ATOM     22  C   LIG    1       -0.358   0.669   0.031  0.00  0.00    +0.160 C 
BRANCH  22  24
ATOM     23  C   LIG    1       -1.835   1.260  -2.084  0.00  0.00    +0.020 C 
ATOM     24  C   LIG    1       -1.180   0.998  -1.146  0.00  0.00    -0.190 C 
ENDBRANCH  22  24
ENDBRANCH  21  22
ENDBRANCH  18  21
ENDBRANCH  17  18
ENDBRANCH  16  17
ENDBRANCH   1  16
TORSDOF 8
