REMARK  Name = ZINCpk00000KfKDc.0
REMARK                            x       y       z     vdW  Elec       q    Type
REMARK                         _______ _______ _______ _____ _____    ______ ____
ROOT
ATOM      1  C   LIG    1        0.002  -0.004   0.002  0.00  0.00    +0.510 C 
ATOM      2  N   LIG    1        0.585  -0.664  -1.018  0.00  0.00    -0.610 N 
ATOM      3  C   LIG    1        0.595  -2.140  -0.995  0.00  0.00    +0.270 C 
ATOM      4  C   LIG    1        0.287  -2.719  -2.391  0.00  0.00    +0.050 C 
ATOM      5  C   LIG    1       -0.795  -1.899  -3.058  0.00  0.00    +0.200 C 
ATOM      6  N   LIG    1       -0.172  -0.852  -3.866  0.00  0.00    -0.510 N 
ATOM      7  C   LIG    1        0.132   0.358  -3.199  0.00  0.00    +0.190 C 
ATOM      8  C   LIG    1        1.184   0.101  -2.092  0.00  0.00    +0.300 C 
ATOM      9  O   LIG    1       -0.506  -0.622   0.913  0.00  0.00    -0.530 OA
ENDROOT
BRANCH   6  10
ATOM     10  C   LIG    1       -0.906  -0.612  -5.022  0.00  0.00    +0.250 A 
ATOM     11  C   LIG    1       -2.106   0.095  -4.956  0.00  0.00    +0.000 A 
ATOM     12  C   LIG    1       -2.800   0.308  -6.137  0.00  0.00    +0.050 A 
ATOM     13  C   LIG    1       -2.258  -0.196  -7.311  0.00  0.00    +0.220 A 
ATOM     14  N   LIG    1       -1.117  -0.855  -7.282  0.00  0.00    -0.230 NA
ATOM     15  N   LIG    1       -0.466  -1.050  -6.193  0.00  0.00    -0.220 NA
ENDBRANCH   6  10
BRANCH   1  16
ATOM     16  C   LIG    1       -0.018   1.503   0.010  0.00  0.00    +0.070 C 
BRANCH  16  17
ATOM     17  C   LIG    1       -0.735   1.996   1.269  0.00  0.00    +0.220 C 
BRANCH  17  21
ATOM     18  C   LIG    1       -1.281   5.535   1.007  0.00  0.00    +0.170 A 
ATOM     19  N   LIG    1       -0.151   5.467   1.644  0.00  0.00    -0.380 NA
ATOM     20  O   LIG    1        0.166   4.309   1.815  0.00  0.00    +0.080 OA
ATOM     21  C   LIG    1       -0.755   3.503   1.277  0.00  0.00    +0.180 A 
ATOM     22  N   LIG    1       -1.683   4.274   0.764  0.00  0.00    -0.480 NA
BRANCH  18  23
ATOM     23  C   LIG    1       -2.009   6.794   0.613  0.00  0.00    +0.160 C 
BRANCH  23  25
ATOM     24  C   LIG    1       -3.703   8.482   1.336  0.00  0.00    +0.030 C 
ATOM     25  C   LIG    1       -2.964   7.204   1.736  0.00  0.00    +0.020 C 
ENDBRANCH  23  25
ENDBRANCH  18  23
ENDBRANCH  17  21
ENDBRANCH  16  17
ENDBRANCH   1  16
TORSDOF 6
