REMARK  Name = ZINCvU0000000BHn.0
REMARK                            x       y       z     vdW  Elec       q    Type
REMARK                         _______ _______ _______ _____ _____    ______ ____
ROOT
ATOM      1  O   LIG    1        1.387  -0.864   0.087  0.00  0.00    -0.480 OA
ATOM      2  C   LIG    1        2.426  -0.238   0.080  0.00  0.00    +0.530 C 
ATOM      3  N   LIG    1        2.402   1.106  -0.015  0.00  0.00    -0.670 N 
ATOM      4  H   LIG    1        3.233   1.602  -0.086  0.00  0.00    +0.420 HD
ENDROOT
BRANCH   3   5
ATOM      5  C   LIG    1        1.179   1.786  -0.010  0.00  0.00    +0.250 A 
ATOM      6  C   LIG    1        0.064   1.216  -0.608  0.00  0.00    +0.060 A 
ATOM      7  C   LIG    1       -1.141   1.892  -0.607  0.00  0.00    +0.170 A 
ATOM      8  C   LIG    1       -1.239   3.131   0.000  0.00  0.00    -0.060 A 
ATOM      9  C   LIG    1       -0.130   3.702   0.596  0.00  0.00    +0.200 A 
ATOM     10  C   LIG    1        1.079   3.034   0.593  0.00  0.00    -0.220 A 
BRANCH  10  11
ATOM     11  C   LIG    1        2.287   3.657   1.243  0.00  0.00    +0.520 C 
ATOM     12  F   LIG    1        3.296   3.824   0.288  0.00  0.00    -0.170 F 
ATOM     13  F   LIG    1        2.748   2.823   2.267  0.00  0.00    -0.170 F 
ATOM     14  F   LIG    1        1.939   4.902   1.776  0.00  0.00    -0.160 F 
ENDBRANCH  10  11
BRANCH   8  15
ATOM     15  N   LIG    1       -2.533   3.850   0.005  0.00  0.00    +0.030 N 
ATOM     16  O   LIG    1       -3.511   3.348  -0.519  0.00  0.00    -0.150 OA
ATOM     17  O   LIG    1       -2.619   4.944   0.534  0.00  0.00    -0.150 OA
ENDBRANCH   8  15
ENDBRANCH   3   5
BRANCH   2  18
ATOM     18  C   LIG    1        3.744  -0.963   0.178  0.00  0.00    +0.290 C 
BRANCH  18  19
ATOM     19  O   LIG    1        3.504  -2.392   0.269  0.00  0.00    -0.330 OA
BRANCH  19  20
ATOM     20  C   LIG    1        4.582  -3.186   0.363  0.00  0.00    +0.480 C 
ATOM     21  O   LIG    1        5.689  -2.703   0.368  0.00  0.00    -0.480 OA
BRANCH  20  22
ATOM     22  C   LIG    1        4.411  -4.680   0.461  0.00  0.00    +0.150 C 
BRANCH  22  23
ATOM     23  S   LIG    1        6.041  -5.469   0.574  0.00  0.00    -0.160 S 
BRANCH  23  24
ATOM     24  C   LIG    1        5.633  -7.234   0.683  0.00  0.00    +0.130 C 
BRANCH  24  25
ATOM     25  C   LIG    1        6.904  -8.037   0.784  0.00  0.00    -0.060 A 
ATOM     26  C   LIG    1        7.526  -8.494  -0.363  0.00  0.00    +0.060 A 
ATOM     27  C   LIG    1        8.695  -9.226  -0.272  0.00  0.00    +0.050 A 
ATOM     28  C   LIG    1        9.237  -9.512   0.968  0.00  0.00    -0.030 A 
ATOM     29  C   LIG    1        8.611  -9.060   2.118  0.00  0.00    -0.030 A 
ATOM     30 CL   LIG    1        9.290  -9.417   3.675  0.00  0.00    -0.040 Cl
ATOM     31 CL   LIG    1       10.700 -10.438   1.084  0.00  0.00    -0.040 Cl
ATOM     32  C   LIG    1        7.444  -8.322   2.024  0.00  0.00    +0.070 A 
ENDBRANCH  24  25
ENDBRANCH  23  24
ENDBRANCH  22  23
ENDBRANCH  20  22
ENDBRANCH  19  20
ENDBRANCH  18  19
ENDBRANCH   2  18
TORSDOF 10
