REMARK  Name = ZINCqH00000099ry.0
REMARK                            x       y       z     vdW  Elec       q    Type
REMARK                         _______ _______ _______ _____ _____    ______ ____
ROOT
ATOM      1  N   LIG    1        1.151  -0.236   1.330  0.00  0.00    -0.740 N 
ATOM      2  H   LIG    1        2.009  -0.687   1.302  0.00  0.00    +0.390 HD
ATOM      3  C   LIG    1        0.343  -0.391   2.398  0.00  0.00    +0.710 C 
ATOM      4  N   LIG    1        0.727  -1.173   3.426  0.00  0.00    -0.620 N 
ATOM      5  C   LIG    1        2.023  -1.855   3.384  0.00  0.00    +0.280 C 
ATOM      6  O   LIG    1       -0.733   0.175   2.433  0.00  0.00    -0.580 OA
ENDROOT
BRANCH   1   8
ATOM      7  C   LIG    1        1.098   2.069   0.515  0.00  0.00    +0.040 C 
ATOM      8  C   LIG    1        0.734   0.614   0.213  0.00  0.00    +0.300 C 
BRANCH   8   9
ATOM      9  C   LIG    1        1.436   0.171  -1.045  0.00  0.00    -0.100 A 
ATOM     10  C   LIG    1        2.767  -0.202  -0.997  0.00  0.00    +0.040 A 
ATOM     11  C   LIG    1        3.412  -0.612  -2.147  0.00  0.00    -0.010 A 
ATOM     12  C   LIG    1        2.726  -0.641  -3.354  0.00  0.00    +0.160 A 
ATOM     13  C   LIG    1        1.391  -0.262  -3.400  0.00  0.00    +0.030 A 
ATOM     14  C   LIG    1        0.750   0.144  -2.245  0.00  0.00    +0.060 A 
BRANCH  12  15
ATOM     15  N   LIG    1        3.379  -1.054  -4.524  0.00  0.00    -0.330 N 
ATOM     16  C   LIG    1        4.671  -1.442  -4.619  0.00  0.00    +0.230 A 
ATOM     17  C   LIG    1        4.910  -1.762  -5.912  0.00  0.00    -0.100 A 
ATOM     18  C   LIG    1        3.728  -1.555  -6.633  0.00  0.00    +0.250 A 
ATOM     19  N   LIG    1        2.811  -1.131  -5.802  0.00  0.00    -0.290 NA
ENDBRANCH  12  15
ENDBRANCH   8   9
ENDBRANCH   1   8
BRANCH   4  20
ATOM     20  C   LIG    1       -0.151  -1.341   4.587  0.00  0.00    +0.320 C 
ATOM     21  C   LIG    1       -0.393  -2.832   4.831  0.00  0.00    +0.040 C 
BRANCH  20  22
ATOM     22  C   LIG    1        0.499  -0.731   5.801  0.00  0.00    -0.150 A 
ATOM     23  C   LIG    1        1.796  -1.075   6.151  0.00  0.00    +0.070 A 
ATOM     24  C   LIG    1        2.356  -0.485   7.274  0.00  0.00    -0.030 A 
ATOM     25  C   LIG    1        1.604   0.412   8.009  0.00  0.00    +0.260 A 
ATOM     26  N   LIG    1        0.371   0.712   7.649  0.00  0.00    -0.480 NA
ATOM     27  C   LIG    1       -0.192   0.174   6.585  0.00  0.00    +0.270 A 
ENDBRANCH  20  22
ENDBRANCH   4  20
TORSDOF 5
