REMARK  Name = ZINCrD000000ApJT.0
REMARK                            x       y       z     vdW  Elec       q    Type
REMARK                         _______ _______ _______ _____ _____    ______ ____
ROOT
ATOM      1  C   LIG    1       -1.707   3.812   0.403  0.00  0.00    -0.150 A 
ATOM      2  C   LIG    1       -1.463   2.442   0.273  0.00  0.00    +0.120 A 
ATOM      3  C   LIG    1       -0.170   1.982   0.166  0.00  0.00    -0.020 A 
ATOM      4  C   LIG    1        0.893   2.881   0.176  0.00  0.00    +0.190 A 
ATOM      5  C   LIG    1        0.653   4.246   0.300  0.00  0.00    +0.010 A 
ATOM      6  C   LIG    1       -0.637   4.712   0.414  0.00  0.00    +0.110 A 
ENDROOT
BRANCH   4   7
ATOM      7  N   LIG    1        2.200   2.413   0.062  0.00  0.00    -0.670 N 
ATOM      8  H   LIG    1        2.447   1.564   0.461  0.00  0.00    +0.420 HD
ATOM      9  C   LIG    1        3.120   3.139  -0.604  0.00  0.00    +0.610 C 
ATOM     10  O   LIG    1        2.788   4.154  -1.187  0.00  0.00    -0.490 OA
BRANCH   9  11
ATOM     11  C   LIG    1        4.520   2.705  -0.625  0.00  0.00    -0.090 A 
ATOM     12  C   LIG    1        5.548   3.344  -1.257  0.00  0.00    +0.060 A 
ATOM     13  C   LIG    1        6.704   2.585  -1.016  0.00  0.00    -0.070 A 
ATOM     14  C   LIG    1        6.335   1.529  -0.257  0.00  0.00    +0.220 A 
ATOM     15  O   LIG    1        5.020   1.608  -0.018  0.00  0.00    -0.170 OA
ENDBRANCH   9  11
ENDBRANCH   4   7
BRANCH   1  16
ATOM     16  C   LIG    1       -3.091   4.308   0.524  0.00  0.00    +0.520 C 
ATOM     17  O   LIG    1       -3.302   5.500   0.633  0.00  0.00    -0.500 OA
BRANCH  16  18
ATOM     18  O   LIG    1       -4.121   3.440   0.514  0.00  0.00    -0.330 OA
BRANCH  18  19
ATOM     19  C   LIG    1       -5.455   3.998   0.638  0.00  0.00    +0.270 C 
BRANCH  19  21
ATOM     20  O   LIG    1       -6.106   1.734   0.492  0.00  0.00    -0.490 OA
ATOM     21  C   LIG    1       -6.471   2.885   0.607  0.00  0.00    +0.520 C 
ATOM     22  N   LIG    1       -7.785   3.169   0.707  0.00  0.00    -0.670 N 
ATOM     23  H   LIG    1       -8.082   4.092   0.720  0.00  0.00    +0.410 HD
BRANCH  22  24
ATOM     24  C   LIG    1       -8.720   2.131   0.790  0.00  0.00    +0.140 A 
ATOM     25  C   LIG    1       -9.971   2.273   0.203  0.00  0.00    -0.010 A 
ATOM     26  C   LIG    1      -10.890   1.245   0.283  0.00  0.00    +0.030 A 
ATOM     27  C   LIG    1      -10.569   0.080   0.956  0.00  0.00    -0.010 A 
ATOM     28  C   LIG    1       -9.327  -0.062   1.546  0.00  0.00    +0.030 A 
ATOM     29  C   LIG    1       -8.402   0.960   1.465  0.00  0.00    +0.010 A 
ENDBRANCH  22  24
ENDBRANCH  19  21
ENDBRANCH  18  19
ENDBRANCH  16  18
ENDBRANCH   1  16
TORSDOF 7
