REMARK  Name = ZINCtV00000L6jVz.0
REMARK                            x       y       z     vdW  Elec       q    Type
REMARK                         _______ _______ _______ _____ _____    ______ ____
ROOT
ATOM      1  N   LIG    1        4.083   2.439  -1.374  0.00  0.00    -0.470 N 
ATOM      2  C   LIG    1        3.749   3.554  -2.117  0.00  0.00    +0.060 A 
ATOM      3  C   LIG    1        3.024   4.709  -1.856  0.00  0.00    +0.010 A 
ATOM      4  C   LIG    1        2.873   5.658  -2.845  0.00  0.00    +0.030 A 
ATOM      5  C   LIG    1        3.440   5.467  -4.096  0.00  0.00    +0.000 A 
ATOM      6  C   LIG    1        4.157   4.337  -4.371  0.00  0.00    +0.070 A 
ATOM      7  C   LIG    1        4.324   3.361  -3.385  0.00  0.00    +0.040 A 
ATOM      8  N   LIG    1        4.964   2.164  -3.351  0.00  0.00    -0.460 NA
ATOM      9  C   LIG    1        4.827   1.629  -2.173  0.00  0.00    +0.270 A 
ENDROOT
BRANCH   1  10
ATOM     10  C   LIG    1        3.708   2.180   0.018  0.00  0.00    +0.370 C 
BRANCH  10  17
ATOM     11 CL   LIG    1        3.689   5.054   0.922  0.00  0.00    -0.050 Cl
ATOM     12  C   LIG    1        4.902   3.903   1.390  0.00  0.00    -0.020 A 
ATOM     13  C   LIG    1        5.936   4.288   2.224  0.00  0.00    +0.030 A 
ATOM     14  C   LIG    1        6.902   3.371   2.595  0.00  0.00    +0.050 A 
ATOM     15  C   LIG    1        6.834   2.070   2.133  0.00  0.00    +0.030 A 
ATOM     16  C   LIG    1        5.801   1.685   1.299  0.00  0.00    +0.030 A 
ATOM     17  C   LIG    1        4.835   2.600   0.927  0.00  0.00    -0.110 A 
ENDBRANCH  10  17
ENDBRANCH   1  10
BRANCH   9  18
ATOM     18  C   LIG    1        5.406   0.301  -1.756  0.00  0.00    +0.320 C 
BRANCH  18  19
ATOM     19  O   LIG    1        4.528  -0.750  -2.162  0.00  0.00    -0.300 OA
BRANCH  19  20
ATOM     20  C   LIG    1        4.946  -2.023  -1.941  0.00  0.00    +0.150 A 
ATOM     21  C   LIG    1        6.160  -2.257  -1.360  0.00  0.00    -0.090 A 
ATOM     22  C   LIG    1        6.601  -3.556  -1.122  0.00  0.00    +0.060 A 
ATOM     23  C   LIG    1        5.842  -4.631  -1.471  0.00  0.00    -0.010 A 
ATOM     24  C   LIG    1        4.588  -4.433  -2.076  0.00  0.00    -0.020 A 
ATOM     25  C   LIG    1        3.779  -5.519  -2.448  0.00  0.00    +0.010 A 
ATOM     26  C   LIG    1        2.570  -5.289  -3.031  0.00  0.00    +0.030 A 
ATOM     27  C   LIG    1        2.123  -3.991  -3.267  0.00  0.00    +0.000 A 
ATOM     28  C   LIG    1        2.881  -2.915  -2.918  0.00  0.00    +0.050 A 
ATOM     29  C   LIG    1        4.133  -3.113  -2.315  0.00  0.00    -0.070 A 
ENDBRANCH  19  20
ENDBRANCH  18  19
ENDBRANCH   9  18
TORSDOF 5
