REMARK  Name = ZINCpk00000y6wXO.0
REMARK                            x       y       z     vdW  Elec       q    Type
REMARK                         _______ _______ _______ _____ _____    ______ ____
ROOT
ATOM      1  C   LIG    1        2.764   3.995  -0.024  0.00  0.00    +0.160 C 
ATOM      2  C   LIG    1        3.611   2.769  -0.454  0.00  0.00    +0.020 C 
ATOM      3  C   LIG    1        2.745   1.595   0.073  0.00  0.00    +0.270 C 
ATOM      4  N   LIG    1        1.353   2.024  -0.154  0.00  0.00    -0.620 N 
ATOM      5  C   LIG    1        0.291   1.206  -0.291  0.00  0.00    +0.530 C 
ATOM      6  O   LIG    1       -0.814   1.672  -0.474  0.00  0.00    -0.530 OA
ATOM      7  C   LIG    1        1.315   3.493  -0.200  0.00  0.00    +0.280 C 
ENDROOT
BRANCH   1   8
ATOM      8  O   LIG    1        3.020   5.112  -0.878  0.00  0.00    -0.280 OA
BRANCH   8  14
ATOM      9  C   LIG    1        4.252   7.134  -1.219  0.00  0.00    +0.290 A 
ATOM     10  N   LIG    1        5.223   7.957  -0.859  0.00  0.00    -0.490 NA
ATOM     11  C   LIG    1        5.999   7.701   0.178  0.00  0.00    +0.250 A 
ATOM     12  C   LIG    1        5.826   6.557   0.929  0.00  0.00    -0.020 A 
ATOM     13  C   LIG    1        4.815   5.666   0.590  0.00  0.00    -0.010 A 
ATOM     14  C   LIG    1        4.018   5.957  -0.506  0.00  0.00    +0.070 A 
BRANCH   9  16
ATOM     15  C   LIG    1        3.868   8.719  -2.924  0.00  0.00    +0.220 C 
ATOM     16  N   LIG    1        3.457   7.444  -2.320  0.00  0.00    -0.480 N 
ATOM     17  C   LIG    1        3.483   6.360  -3.310  0.00  0.00    +0.220 C 
ENDBRANCH   9  16
ENDBRANCH   8  14
ENDBRANCH   1   8
BRANCH   5  18
ATOM     18  C   LIG    1        0.476  -0.288  -0.222  0.00  0.00    +0.060 C 
BRANCH  18  19
ATOM     19  C   LIG    1       -0.876  -0.979  -0.406  0.00  0.00    +0.140 C 
BRANCH  19  20
ATOM     20  C   LIG    1       -0.691  -2.473  -0.337  0.00  0.00    +0.080 A 
ATOM     21  C   LIG    1       -0.661  -3.221   0.790  0.00  0.00    -0.120 A 
ATOM     22  C   LIG    1       -0.471  -4.556   0.415  0.00  0.00    +0.230 A 
ATOM     23  N   LIG    1       -0.390  -4.606  -0.890  0.00  0.00    -0.300 NA
ATOM     24  N   LIG    1       -0.531  -3.304  -1.387  0.00  0.00    -0.370 N 
ATOM     25  C   LIG    1       -0.505  -2.913  -2.799  0.00  0.00    +0.350 C 
ENDBRANCH  19  20
ENDBRANCH  18  19
ENDBRANCH   5  18
TORSDOF 6
