REMARK  Name = ZINCpk000000oFgz.0
REMARK                            x       y       z     vdW  Elec       q    Type
REMARK                         _______ _______ _______ _____ _____    ______ ____
ROOT
ATOM      1  N   LIG    1       -4.538   4.939  -0.591  0.00  0.00    -0.610 N 
ATOM      2  C   LIG    1       -5.596   5.413  -1.276  0.00  0.00    +0.520 C 
ATOM      3  O   LIG    1       -6.481   4.660  -1.625  0.00  0.00    -0.530 OA
ENDROOT
BRANCH   2   4
ATOM      4  C   LIG    1       -5.682   6.881  -1.610  0.00  0.00    +0.000 C 
ATOM      5  C   LIG    1       -5.754   7.694  -0.315  0.00  0.00    +0.030 C 
ATOM      6  C   LIG    1       -5.806   9.187  -0.657  0.00  0.00    +0.260 C 
ATOM      7  N   LIG    1       -6.924   9.422  -1.581  0.00  0.00    -0.630 N 
ATOM      8  C   LIG    1       -7.001   8.627  -2.814  0.00  0.00    +0.300 C 
ATOM      9  C   LIG    1       -7.861  10.349  -1.302  0.00  0.00    +0.710 C 
ATOM     10  O   LIG    1       -8.831  10.470  -2.026  0.00  0.00    -0.590 OA
ATOM     11  N   LIG    1       -7.724  11.142  -0.221  0.00  0.00    -0.870 N 
ATOM     12  H   LIG    1       -8.433  11.758   0.022  0.00  0.00    +0.420 HD
ATOM     13  H   LIG    1       -6.916  11.097   0.314  0.00  0.00    +0.400 HD
ATOM     14  C   LIG    1       -6.936   7.141  -2.448  0.00  0.00    +0.050 C 
ENDBRANCH   2   4
BRANCH   1  16
ATOM     15  C   LIG    1       -3.835   6.120   1.433  0.00  0.00    +0.020 C 
ATOM     16  C   LIG    1       -3.542   5.865  -0.047  0.00  0.00    +0.280 C 
ENDBRANCH   1  16
BRANCH   1  17
ATOM     17  C   LIG    1       -4.383   3.496  -0.388  0.00  0.00    +0.330 C 
BRANCH  17  18
ATOM     18  C   LIG    1       -3.503   2.917  -1.498  0.00  0.00    +0.130 C 
ATOM     19  C   LIG    1       -3.340   1.405  -1.292  0.00  0.00    +0.230 C 
ATOM     20  O   LIG    1       -2.502   0.899  -2.337  0.00  0.00    -0.300 OA
ATOM     21  C   LIG    1       -1.369   1.603  -2.610  0.00  0.00    +0.050 A 
ATOM     22  C   LIG    1       -0.349   0.999  -3.329  0.00  0.00    +0.020 A 
ATOM     23  C   LIG    1        0.806   1.702  -3.615  0.00  0.00    +0.010 A 
ATOM     24  C   LIG    1        0.950   3.006  -3.180  0.00  0.00    +0.010 A 
ATOM     25  C   LIG    1       -0.060   3.611  -2.457  0.00  0.00    +0.020 A 
ATOM     26  C   LIG    1       -1.221   2.912  -2.166  0.00  0.00    +0.050 A 
ATOM     27  O   LIG    1       -2.205   3.519  -1.448  0.00  0.00    -0.300 OA
ENDBRANCH  17  18
ENDBRANCH   1  17
TORSDOF 4
