REMARK  Name = ZINCrD00000F5LD5.0
REMARK                            x       y       z     vdW  Elec       q    Type
REMARK                         _______ _______ _______ _____ _____    ______ ____
ROOT
ATOM      1  C   LIG    1       -1.256  -0.677  -0.548  0.00  0.00    +0.270 C 
ENDROOT
BRANCH   1   2
ATOM      2  C   LIG    1       -2.098  -0.464   0.684  0.00  0.00    +0.510 C 
ATOM      3  N   LIG    1       -2.007  -1.323   1.718  0.00  0.00    -0.720 N 
ATOM      4  H   LIG    1       -1.401  -2.078   1.670  0.00  0.00    +0.400 HD
ATOM      5  O   LIG    1       -2.856   0.481   0.744  0.00  0.00    -0.510 OA
BRANCH   3   6
ATOM      6  C   LIG    1       -2.826  -1.115   2.916  0.00  0.00    +0.290 C 
ATOM      7  C   LIG    1       -2.142  -1.772   4.113  0.00  0.00    +0.020 C 
ATOM      8  C   LIG    1       -3.108  -1.735   5.303  0.00  0.00    +0.030 C 
ATOM      9  C   LIG    1       -4.257  -2.701   5.020  0.00  0.00    +0.080 C 
ATOM     10  C   LIG    1       -4.850  -2.436   3.661  0.00  0.00    -0.070 A 
ATOM     11  C   LIG    1       -6.111  -2.954   3.394  0.00  0.00    -0.010 A 
ATOM     12  C   LIG    1       -6.706  -2.750   2.166  0.00  0.00    +0.010 A 
ATOM     13  C   LIG    1       -6.043  -2.025   1.193  0.00  0.00    -0.010 A 
ATOM     14  C   LIG    1       -4.792  -1.509   1.458  0.00  0.00    +0.020 A 
ATOM     15  C   LIG    1       -4.191  -1.711   2.693  0.00  0.00    -0.100 A 
ENDBRANCH   3   6
ENDBRANCH   1   2
BRANCH   1  16
ATOM     16  O   LIG    1       -1.533   0.374  -1.511  0.00  0.00    -0.330 OA
BRANCH  16  17
ATOM     17  C   LIG    1       -0.857   0.330  -2.677  0.00  0.00    +0.520 C 
ATOM     18  O   LIG    1       -0.058  -0.563  -2.882  0.00  0.00    -0.480 OA
BRANCH  17  19
ATOM     19  C   LIG    1       -1.086   1.361  -3.700  0.00  0.00    -0.100 C 
ATOM     20  C   LIG    1       -0.296   1.401  -4.826  0.00  0.00    +0.250 C 
BRANCH  20  21
ATOM     21  C   LIG    1        0.911   0.572  -4.905  0.00  0.00    -0.110 A 
ATOM     22  C   LIG    1        1.780   0.486  -3.809  0.00  0.00    +0.080 A 
ATOM     23  C   LIG    1        2.909  -0.300  -3.890  0.00  0.00    +0.000 A 
ATOM     24  C   LIG    1        3.192  -0.994  -5.054  0.00  0.00    +0.030 A 
ATOM     25  C   LIG    1        2.342  -0.911  -6.144  0.00  0.00    +0.000 A 
ATOM     26  C   LIG    1        1.206  -0.134  -6.079  0.00  0.00    +0.050 A 
ENDBRANCH  20  21
BRANCH  19  28
ATOM     27  N   LIG    1       -2.960   3.088  -3.384  0.00  0.00    -0.390 NA
ATOM     28  C   LIG    1       -2.131   2.324  -3.524  0.00  0.00    +0.250 C 
ENDBRANCH  19  28
ENDBRANCH  17  19
ENDBRANCH  16  17
ENDBRANCH   1  16
TORSDOF 7
