REMARK  Name = ZINCrH000004othy.1
REMARK                            x       y       z     vdW  Elec       q    Type
REMARK                         _______ _______ _______ _____ _____    ______ ____
ROOT
ATOM      1  N   LIG    1        1.125  -3.607  -3.036  0.00  0.00    -0.610 N 
ATOM      2  C   LIG    1        0.870  -2.306  -2.793  0.00  0.00    +0.520 C 
ATOM      3  O   LIG    1        1.125  -1.471  -3.635  0.00  0.00    -0.510 OA
ATOM      4  C   LIG    1        0.817  -4.616  -2.019  0.00  0.00    +0.280 C 
ENDROOT
BRANCH   1   6
ATOM      5  C   LIG    1        2.971  -4.840  -4.061  0.00  0.00    +0.050 C 
ATOM      6  C   LIG    1        1.710  -4.012  -4.316  0.00  0.00    +0.290 C 
BRANCH   6   7
ATOM      7  C   LIG    1        0.713  -4.840  -5.085  0.00  0.00    -0.080 A 
ATOM      8  C   LIG    1        0.214  -6.006  -4.535  0.00  0.00    +0.050 A 
ATOM      9  C   LIG    1       -0.702  -6.767  -5.238  0.00  0.00    +0.030 A 
ATOM     10  C   LIG    1       -1.119  -6.362  -6.494  0.00  0.00    +0.070 A 
ATOM     11  C   LIG    1       -0.619  -5.192  -7.045  0.00  0.00    +0.070 A 
ATOM     12  F   LIG    1       -1.025  -4.794  -8.270  0.00  0.00    -0.130 F 
ATOM     13  F   LIG    1       -2.014  -7.104  -7.181  0.00  0.00    -0.130 F 
ATOM     14  C   LIG    1        0.293  -4.429  -6.336  0.00  0.00    +0.040 A 
ENDBRANCH   6   7
ENDBRANCH   1   6
BRANCH   2  15
ATOM     15  C   LIG    1        0.268  -1.889  -1.476  0.00  0.00    +0.220 C 
BRANCH  15  16
ATOM     16  N   LIG    1        0.090  -0.431  -1.459  0.00  0.00    -0.520 NA
ATOM     17  C   LIG    1       -0.707  -0.012  -0.298  0.00  0.00    +0.180 C 
ATOM     18  C   LIG    1       -0.995   1.488  -0.391  0.00  0.00    +0.040 C 
ATOM     19  C   LIG    1        0.329   2.256  -0.429  0.00  0.00    +0.030 C 
ATOM     20  C   LIG    1        1.160   1.766  -1.619  0.00  0.00    +0.050 C 
ATOM     21  C   LIG    1        1.386   0.258  -1.490  0.00  0.00    +0.180 C 
BRANCH  19  22
ATOM     22  C   LIG    1        0.052   3.730  -0.580  0.00  0.00    -0.030 A 
ATOM     23  C   LIG    1       -0.630   4.214  -1.686  0.00  0.00    -0.030 A 
ATOM     24  C   LIG    1       -0.869   5.571  -1.789  0.00  0.00    +0.260 A 
ATOM     25  N   LIG    1       -0.449   6.402  -0.856  0.00  0.00    -0.490 NA
ATOM     26  C   LIG    1        0.207   5.978   0.207  0.00  0.00    +0.250 A 
ATOM     27  C   LIG    1        0.479   4.634   0.380  0.00  0.00    -0.040 A 
ENDBRANCH  19  22
ENDBRANCH  15  16
ENDBRANCH   2  15
TORSDOF 5
