REMARK  Name = ZINCrD0000074K06.0
REMARK                            x       y       z     vdW  Elec       q    Type
REMARK                         _______ _______ _______ _____ _____    ______ ____
ROOT
ATOM      1  C   LIG    1        3.063   7.920   4.127  0.00  0.00    +0.090 C 
ATOM      2  C   LIG    1        2.354   7.010   3.158  0.00  0.00    -0.110 A 
ATOM      3  C   LIG    1        2.954   6.673   1.961  0.00  0.00    +0.030 A 
ATOM      4  C   LIG    1        2.303   5.838   1.071  0.00  0.00    +0.030 A 
ATOM      5  C   LIG    1        1.051   5.338   1.376  0.00  0.00    -0.100 A 
ATOM      6  C   LIG    1        0.443   5.675   2.569  0.00  0.00    +0.040 A 
ATOM      7  C   LIG    1        1.095   6.510   3.468  0.00  0.00    +0.140 A 
ENDROOT
BRANCH   7   8
ATOM      8  N   LIG    1        0.485   6.849   4.679  0.00  0.00    -0.680 N 
ATOM      9  H   LIG    1        1.029   7.044   5.458  0.00  0.00    +0.400 HD
ATOM     10  C   LIG    1       -0.859   6.904   4.764  0.00  0.00    +0.600 C 
ATOM     11  O   LIG    1       -1.544   6.566   3.816  0.00  0.00    -0.510 OA
BRANCH  10  12
ATOM     12  C   LIG    1       -1.476   7.356   5.958  0.00  0.00    -0.160 A 
ATOM     13  C   LIG    1       -2.830   7.340   6.250  0.00  0.00    +0.350 A 
ATOM     14  N   LIG    1       -2.998   7.844   7.462  0.00  0.00    -0.490 NA
ATOM     15  C   LIG    1       -1.819   8.196   7.972  0.00  0.00    +0.250 A 
ATOM     16  C   LIG    1       -1.465   8.772   9.205  0.00  0.00    +0.080 A 
ATOM     17  C   LIG    1       -0.153   9.031   9.471  0.00  0.00    +0.060 A 
ATOM     18  C   LIG    1        0.821   8.721   8.512  0.00  0.00    +0.040 A 
ATOM     19  C   LIG    1        0.461   8.167   7.332  0.00  0.00    +0.200 A 
ATOM     20  N   LIG    1       -0.845   7.905   7.059  0.00  0.00    -0.340 N 
ENDBRANCH  10  12
ENDBRANCH   7   8
BRANCH   5  21
ATOM     21  C   LIG    1        0.346   4.428   0.403  0.00  0.00    +0.330 C 
BRANCH  21  22
ATOM     22  C   LIG    1        0.807   3.010   0.617  0.00  0.00    +0.100 A 
ATOM     23  C   LIG    1       -0.125   2.018   0.859  0.00  0.00    -0.020 A 
ATOM     24  C   LIG    1        0.309   0.715   1.049  0.00  0.00    +0.070 A 
ATOM     25  C   LIG    1        1.670   0.459   0.999  0.00  0.00    -0.030 A 
ATOM     26  C   LIG    1        2.543   1.502   0.752  0.00  0.00    +0.260 A 
ATOM     27  N   LIG    1        2.094   2.728   0.571  0.00  0.00    -0.470 NA
ENDBRANCH  21  22
BRANCH  21  28
ATOM     28  O   LIG    1        0.652   4.832  -0.934  0.00  0.00    -0.540 OA
ATOM     29  H   LIG    1        1.595   4.803  -1.147  0.00  0.00    +0.380 HD
ENDBRANCH  21  28
ENDBRANCH   5  21
TORSDOF 5
