REMARK  Name = ZINCpe000014QMmt.0
REMARK                            x       y       z     vdW  Elec       q    Type
REMARK                         _______ _______ _______ _____ _____    ______ ____
ROOT
ATOM      1  C   LIG    1       -0.733   1.888   1.268  0.00  0.00    +0.270 C 
ATOM      2  C   LIG    1        0.007   1.381   2.508  0.00  0.00    +0.080 C 
ENDROOT
BRANCH   1   3
ATOM      3  C   LIG    1       -0.017   1.395   0.010  0.00  0.00    +0.150 C 
ATOM      4  F   LIG    1        0.002  -0.004   0.002  0.00  0.00    -0.140 F 
BRANCH   3   5
ATOM      5  C   LIG    1        1.397   1.916  -0.001  0.00  0.00    +0.460 C 
ATOM      6  O   LIG    1        1.764   2.684   0.857  0.00  0.00    -0.450 OA
BRANCH   5   7
ATOM      7  O   LIG    1        2.248   1.528  -0.964  0.00  0.00    -0.340 OA
BRANCH   7   9
ATOM      8  C   LIG    1        4.412   1.519  -2.080  0.00  0.00    +0.070 C 
ATOM      9  C   LIG    1        3.594   2.071  -0.911  0.00  0.00    +0.220 C 
ENDBRANCH   7   9
ENDBRANCH   5   7
ENDBRANCH   3   5
BRANCH   3  10
ATOM     10  C   LIG    1       -0.746   1.894  -1.211  0.00  0.00    +0.450 C 
ATOM     11  O   LIG    1       -1.280   1.109  -1.959  0.00  0.00    -0.450 OA
BRANCH  10  12
ATOM     12  O   LIG    1       -0.802   3.210  -1.468  0.00  0.00    -0.340 OA
BRANCH  12  13
ATOM     13  C   LIG    1       -1.521   3.619  -2.661  0.00  0.00    +0.220 C 
ATOM     14  C   LIG    1       -1.477   5.143  -2.786  0.00  0.00    +0.080 C 
ENDBRANCH  12  13
ENDBRANCH  10  12
ENDBRANCH   3  10
ENDBRANCH   1   3
BRANCH   1  15
ATOM     15  N   LIG    1       -2.107   1.381   1.279  0.00  0.00    -0.700 N 
ATOM     16  H   LIG    1       -2.329   0.570   0.795  0.00  0.00    +0.420 HD
BRANCH  15  17
ATOM     17  C   LIG    1       -3.091   2.059   1.980  0.00  0.00    +0.460 A 
ATOM     18  C   LIG    1       -2.782   3.227   2.686  0.00  0.00    -0.060 A 
ATOM     19  C   LIG    1       -3.807   3.873   3.369  0.00  0.00    +0.170 A 
ATOM     20  N   LIG    1       -5.034   3.353   3.334  0.00  0.00    -0.520 NA
ATOM     21  C   LIG    1       -5.283   2.249   2.662  0.00  0.00    +0.410 A 
ATOM     22 CL   LIG    1       -6.899   1.617   2.649  0.00  0.00    +0.040 Cl
ATOM     23  N   LIG    1       -4.340   1.609   1.996  0.00  0.00    -0.550 NA
BRANCH  19  24
ATOM     24  C   LIG    1       -3.537   5.118   4.130  0.00  0.00    +0.580 C 
ATOM     25  O   LIG    1       -2.415   5.583   4.156  0.00  0.00    -0.520 OA
ATOM     26  N   LIG    1       -4.537   5.733   4.793  0.00  0.00    -0.830 N 
ATOM     27  H   LIG    1       -4.360   6.546   5.291  0.00  0.00    +0.410 HD
ATOM     28  H   LIG    1       -5.432   5.361   4.773  0.00  0.00    +0.420 HD
ENDBRANCH  19  24
ENDBRANCH  15  17
ENDBRANCH   1  15
TORSDOF 10
