REMARK  Name = ZINCqH0000036wYE.0
REMARK                            x       y       z     vdW  Elec       q    Type
REMARK                         _______ _______ _______ _____ _____    ______ ____
ROOT
ATOM      1  N   LIG    1       -0.158   2.626  -1.817  0.00  0.00    -0.550 N 
ATOM      2  C   LIG    1       -0.755   1.371  -1.345  0.00  0.00    +0.310 C 
ATOM      3  C   LIG    1       -0.078   1.077   0.011  0.00  0.00    +0.010 C 
ATOM      4  C   LIG    1        1.269   1.821  -0.140  0.00  0.00    +0.100 C 
ATOM      5  C   LIG    1        0.983   2.900  -1.161  0.00  0.00    +0.520 C 
ATOM      6  O   LIG    1        1.683   3.871  -1.359  0.00  0.00    -0.500 OA
ENDROOT
BRANCH   3   7
ATOM      7  C   LIG    1       -0.883   1.645   1.151  0.00  0.00    +0.530 C 
ATOM      8  N   LIG    1       -0.605   1.282   2.419  0.00  0.00    -0.550 N 
ATOM      9  C   LIG    1        0.473   0.479   2.805  0.00  0.00    +0.140 A 
ATOM     10  C   LIG    1        1.472  -0.098   2.019  0.00  0.00    -0.030 A 
ATOM     11  C   LIG    1        2.462  -0.860   2.603  0.00  0.00    +0.050 A 
ATOM     12  C   LIG    1        2.475  -1.054   3.972  0.00  0.00    -0.010 A 
ATOM     13  C   LIG    1        1.492  -0.481   4.757  0.00  0.00    +0.060 A 
ATOM     14  C   LIG    1        0.499   0.284   4.177  0.00  0.00    -0.130 A 
ATOM     15  C   LIG    1       -0.676   1.013   4.789  0.00  0.00    +0.100 C 
ATOM     16  C   LIG    1       -1.391   1.667   3.595  0.00  0.00    +0.220 C 
ATOM     17  C   LIG    1       -2.820   1.134   3.475  0.00  0.00    +0.050 C 
ATOM     18  O   LIG    1       -1.782   2.429   0.928  0.00  0.00    -0.500 OA
ENDBRANCH   3   7
BRANCH   1  22
ATOM     19  C   LIG    1       -1.789   5.033  -4.807  0.00  0.00    -0.110 A 
ATOM     20  C   LIG    1       -0.545   5.339  -4.270  0.00  0.00    +0.060 A 
ATOM     21  C   LIG    1       -0.005   4.542  -3.281  0.00  0.00    +0.020 A 
ATOM     22  C   LIG    1       -0.706   3.435  -2.822  0.00  0.00    +0.170 A 
ATOM     23  C   LIG    1       -1.947   3.126  -3.361  0.00  0.00    +0.000 A 
ATOM     24  C   LIG    1       -2.490   3.925  -4.348  0.00  0.00    +0.030 A 
BRANCH  19  26
ATOM     25  C   LIG    1       -4.067   5.247  -6.419  0.00  0.00    +0.130 C 
ATOM     26  S   LIG    1       -2.479   6.051  -6.070  0.00  0.00    -0.120 S 
ENDBRANCH  19  26
ENDBRANCH   1  22
TORSDOF 3
