REMARK  Name = ZINCrH000004uFYa.0
REMARK                            x       y       z     vdW  Elec       q    Type
REMARK                         _______ _______ _______ _____ _____    ______ ____
ROOT
ATOM      1  O   LIG    1        1.302  -4.792   0.675  0.00  0.00    -0.580 OA
ATOM      2  C   LIG    1        1.549  -4.004   1.568  0.00  0.00    +0.720 C 
ATOM      3  N   LIG    1        1.887  -4.457   2.792  0.00  0.00    -0.620 N 
ATOM      4  C   LIG    1        2.061  -5.889   3.041  0.00  0.00    +0.290 C 
ATOM      5  C   LIG    1        1.102  -6.308   4.162  0.00  0.00    +0.230 C 
ATOM      6  O   LIG    1       -0.075  -5.503   4.059  0.00  0.00    -0.310 OA
ATOM      7  C   LIG    1       -0.149  -4.336   4.750  0.00  0.00    +0.160 A 
ATOM      8  C   LIG    1       -1.292  -4.130   5.524  0.00  0.00    -0.010 A 
ATOM      9  C   LIG    1       -1.483  -2.935   6.186  0.00  0.00    +0.080 A 
ATOM     10  C   LIG    1       -0.538  -1.932   6.088  0.00  0.00    -0.030 A 
ATOM     11  C   LIG    1        0.606  -2.138   5.338  0.00  0.00    +0.130 A 
ATOM     12  F   LIG    1        1.533  -1.159   5.245  0.00  0.00    -0.130 F 
ATOM     13  C   LIG    1        0.808  -3.344   4.680  0.00  0.00    -0.200 A 
ATOM     14  C   LIG    1        2.084  -3.530   3.906  0.00  0.00    +0.340 C 
ATOM     15  N   LIG    1        1.485  -2.679   1.334  0.00  0.00    -0.730 N 
ATOM     16  H   LIG    1        1.609  -2.051   2.062  0.00  0.00    +0.390 HD
ENDROOT
BRANCH  15  17
ATOM     17  C   LIG    1        1.227  -2.186  -0.022  0.00  0.00    +0.350 C 
BRANCH  17  18
ATOM     18  C   LIG    1        1.205  -0.679  -0.013  0.00  0.00    -0.150 A 
ATOM     19  C   LIG    1       -0.001  -0.006   0.001  0.00  0.00    +0.070 A 
ATOM     20  C   LIG    1       -0.022   1.377   0.009  0.00  0.00    -0.030 A 
ATOM     21  C   LIG    1        1.163   2.088   0.004  0.00  0.00    +0.060 A 
ATOM     22  C   LIG    1        2.372   1.419  -0.009  0.00  0.00    -0.080 A 
ATOM     23  C   LIG    1        2.396   0.033  -0.018  0.00  0.00    +0.150 A 
BRANCH  23  24
ATOM     24  O   LIG    1        3.583  -0.628  -0.032  0.00  0.00    -0.300 OA
BRANCH  24  25
ATOM     25  C   LIG    1        4.769   0.170  -0.036  0.00  0.00    +0.220 C 
BRANCH  25  26
ATOM     26  C   LIG    1        5.997  -0.742  -0.052  0.00  0.00    -0.040 C 
ATOM     27  C   LIG    1        6.934  -0.687   1.157  0.00  0.00    +0.030 C 
ATOM     28  C   LIG    1        7.369  -0.077  -0.177  0.00  0.00    +0.030 C 
ENDBRANCH  25  26
ENDBRANCH  24  25
ENDBRANCH  23  24
ENDBRANCH  17  18
ENDBRANCH  15  17
TORSDOF 5
