REMARK  Name = ZINCnE000005upOV.1
REMARK                            x       y       z     vdW  Elec       q    Type
REMARK                         _______ _______ _______ _____ _____    ______ ____
ROOT
ATOM      1  O   LIG    1       -3.099   2.879  -1.740  0.00  0.00    -0.550 OA
ATOM      2  C   LIG    1       -3.125   3.832  -0.990  0.00  0.00    +0.490 C 
ATOM      3  N   LIG    1       -3.843   4.904  -1.341  0.00  0.00    -0.720 N 
ATOM      4  H   LIG    1       -4.341   4.876  -2.173  0.00  0.00    +0.400 HD
ATOM      5  C   LIG    1       -3.911   6.114  -0.527  0.00  0.00    +0.230 C 
ATOM      6  C   LIG    1       -3.458   5.811   0.902  0.00  0.00    +0.230 C 
ATOM      7  N   LIG    1       -2.167   5.107   0.847  0.00  0.00    -0.490 NA
ATOM      8  C   LIG    1       -2.349   3.758   0.295  0.00  0.00    +0.240 C 
ENDROOT
BRANCH   8   9
ATOM      9  C   LIG    1       -1.000   3.140   0.030  0.00  0.00    -0.040 A 
ATOM     10  C   LIG    1       -0.506   3.086  -1.260  0.00  0.00    +0.040 A 
ATOM     11  C   LIG    1        0.731   2.519  -1.503  0.00  0.00    +0.020 A 
ATOM     12  C   LIG    1        1.474   2.005  -0.457  0.00  0.00    +0.020 A 
ATOM     13  C   LIG    1        0.980   2.058   0.833  0.00  0.00    +0.030 A 
ATOM     14  C   LIG    1       -0.259   2.621   1.076  0.00  0.00    -0.060 A 
ATOM     15 BR   LIG    1       -0.938   2.688   2.840  0.00  0.00    -0.030 Br
ENDBRANCH   8   9
BRANCH   7  16
ATOM     16  C   LIG    1       -1.183   5.868   0.066  0.00  0.00    +0.210 C 
BRANCH  16  17
ATOM     17  C   LIG    1       -1.089   7.271   0.607  0.00  0.00    -0.040 A 
ATOM     18  C   LIG    1       -1.620   8.326  -0.112  0.00  0.00    -0.170 A 
ATOM     19  C   LIG    1       -1.540   9.614   0.384  0.00  0.00    +0.020 A 
ATOM     20  C   LIG    1       -0.918   9.852   1.595  0.00  0.00    -0.160 A 
ATOM     21  C   LIG    1       -0.379   8.797   2.316  0.00  0.00    +0.270 A 
ATOM     22  O   LIG    1        0.232   9.028   3.508  0.00  0.00    -0.710 OA
ATOM     23  C   LIG    1       -0.466   7.504   1.819  0.00  0.00    -0.150 A 
ATOM     24 CL   LIG    1        0.207   6.180   2.718  0.00  0.00    -0.090 Cl
ENDBRANCH  16  17
ENDBRANCH   7  16
TORSDOF 3
