REMARK  Name = ZINCvU0000000GOC.0
REMARK                            x       y       z     vdW  Elec       q    Type
REMARK                         _______ _______ _______ _____ _____    ______ ____
ROOT
ATOM      1  C   LIG    1        5.689  -1.988  -1.209  0.00  0.00    -0.020 C 
ATOM      2  C   LIG    1        5.875  -0.826  -0.629  0.00  0.00    -0.050 C 
ATOM      3  C   LIG    1        4.861  -0.178   0.273  0.00  0.00    +0.310 C 
ATOM      4  N   LIG    1        3.589  -0.907   0.169  0.00  0.00    -0.620 N 
ATOM      5  C   LIG    1        3.650  -2.379   0.171  0.00  0.00    +0.310 C 
ATOM      6  C   LIG    1        2.413  -0.255   0.081  0.00  0.00    +0.710 C 
ATOM      7  N   LIG    1        2.393   1.090  -0.014  0.00  0.00    -0.680 N 
ATOM      8  H   LIG    1        3.225   1.583  -0.086  0.00  0.00    +0.410 HD
ATOM      9  O   LIG    1        1.369  -0.879   0.088  0.00  0.00    -0.570 OA
ATOM     10  C   LIG    1        4.445  -2.815  -1.069  0.00  0.00    +0.070 C 
ENDROOT
BRANCH   7  11
ATOM     11  C   LIG    1        1.175   1.772  -0.009  0.00  0.00    +0.170 A 
ATOM     12  C   LIG    1        0.063   1.214  -0.601  0.00  0.00    +0.020 A 
ATOM     13  C   LIG    1       -1.155   1.888  -0.606  0.00  0.00    +0.040 A 
ATOM     14  C   LIG    1       -1.284   3.110  -0.019  0.00  0.00    +0.000 A 
ATOM     15  C   LIG    1       -0.174   3.714   0.595  0.00  0.00    -0.040 A 
ATOM     16  C   LIG    1       -0.277   4.977   1.204  0.00  0.00    +0.030 A 
ATOM     17  C   LIG    1        0.819   5.533   1.790  0.00  0.00    +0.000 A 
ATOM     18  C   LIG    1        2.044   4.870   1.795  0.00  0.00    +0.000 A 
ATOM     19  C   LIG    1        2.180   3.645   1.216  0.00  0.00    +0.010 A 
ATOM     20  C   LIG    1        1.072   3.040   0.602  0.00  0.00    -0.060 A 
ENDBRANCH   7  11
BRANCH   1  24
ATOM     21  C   LIG    1        8.821  -3.515  -3.650  0.00  0.00    +0.210 A 
ATOM     22  C   LIG    1        8.788  -3.821  -2.296  0.00  0.00    -0.140 A 
ATOM     23  C   LIG    1        7.772  -3.327  -1.496  0.00  0.00    +0.220 A 
ATOM     24  C   LIG    1        6.776  -2.518  -2.056  0.00  0.00    -0.170 A 
ATOM     25  C   LIG    1        6.812  -2.218  -3.423  0.00  0.00    +0.220 A 
ATOM     26  C   LIG    1        7.837  -2.713  -4.210  0.00  0.00    -0.190 A 
BRANCH  21  28
ATOM     27  C   LIG    1        9.795  -3.650  -5.814  0.00  0.00    +0.250 C 
ATOM     28  O   LIG    1        9.821  -4.003  -4.429  0.00  0.00    -0.310 OA
ENDBRANCH  21  28
BRANCH  25  29
ATOM     29  O   LIG    1        5.846  -1.438  -3.974  0.00  0.00    -0.300 OA
ATOM     30  C   LIG    1        5.947  -1.173  -5.375  0.00  0.00    +0.250 C 
ENDBRANCH  25  29
BRANCH  23  31
ATOM     31  O   LIG    1        7.742  -3.628  -0.172  0.00  0.00    -0.300 OA
ATOM     32  C   LIG    1        8.790  -4.459   0.329  0.00  0.00    +0.240 C 
ENDBRANCH  23  31
ENDBRANCH   1  24
TORSDOF 5
