REMARK  Name = ZINCqH0000001z05.0
REMARK                            x       y       z     vdW  Elec       q    Type
REMARK                         _______ _______ _______ _____ _____    ______ ____
ROOT
ATOM      1  C   LIG    1       -0.417   3.820   2.205  0.00  0.00    +0.570 C 
ATOM      2  N   LIG    1       -0.877   3.043   1.204  0.00  0.00    -0.600 N 
ATOM      3  C   LIG    1       -0.757   1.581   1.277  0.00  0.00    +0.270 C 
ATOM      4  C   LIG    1       -0.060   1.080   0.007  0.00  0.00    +0.030 C 
ATOM      5  C   LIG    1       -0.818   1.589  -1.221  0.00  0.00    +0.030 C 
ATOM      6  C   LIG    1       -0.803   3.119  -1.234  0.00  0.00    +0.250 C 
ATOM      7  C   LIG    1       -1.508   3.643   0.021  0.00  0.00    +0.270 C 
ATOM      8  O   LIG    1       -0.426   5.030   2.089  0.00  0.00    -0.500 OA
ENDROOT
BRANCH   1  14
ATOM      9  C   LIG    1        1.386   3.513   3.913  0.00  0.00    +0.160 A 
ATOM     10  N   LIG    1        1.841   2.958   5.027  0.00  0.00    -0.490 NA
ATOM     11  C   LIG    1        1.121   2.098   5.719  0.00  0.00    +0.310 A 
ATOM     12  C   LIG    1       -0.152   1.738   5.313  0.00  0.00    -0.050 A 
ATOM     13  C   LIG    1       -0.682   2.290   4.160  0.00  0.00    +0.110 A 
ATOM     14  C   LIG    1        0.099   3.202   3.440  0.00  0.00    -0.170 A 
BRANCH   9  15
ATOM     15  S   LIG    1        2.395   4.652   3.025  0.00  0.00    -0.020 S 
BRANCH  15  17
ATOM     16  C   LIG    1        4.963   5.496   3.419  0.00  0.00    +0.070 C 
ATOM     17  C   LIG    1        3.870   4.649   4.074  0.00  0.00    +0.020 C 
ATOM     18  C   LIG    1        3.523   5.234   5.444  0.00  0.00    +0.050 C 
ENDBRANCH  15  17
ENDBRANCH   9  15
ENDBRANCH   1  14
BRANCH   6  19
ATOM     19  N   LIG    1       -1.501   3.605  -2.426  0.00  0.00    -0.710 N 
ATOM     20  H   LIG    1       -2.174   3.053  -2.853  0.00  0.00    +0.410 HD
ATOM     21  C   LIG    1       -1.208   4.820  -2.930  0.00  0.00    +0.650 C 
ATOM     22  O   LIG    1       -0.365   5.513  -2.395  0.00  0.00    -0.560 OA
BRANCH  21  23
ATOM     23  O   LIG    1       -1.849   5.267  -4.026  0.00  0.00    -0.360 OA
BRANCH  23  24
ATOM     24  C   LIG    1       -1.483   6.585  -4.514  0.00  0.00    +0.140 C 
ATOM     25  C   LIG    1       -1.756   7.625  -3.425  0.00  0.00    +0.040 C 
ATOM     26  C   LIG    1       -2.311   6.918  -5.756  0.00  0.00    +0.080 C 
ATOM     27  C   LIG    1        0.004   6.600  -4.873  0.00  0.00    +0.040 C 
ENDBRANCH  23  24
ENDBRANCH  21  23
ENDBRANCH   6  19
TORSDOF 6
