REMARK  Name = ZINCvU0000000CJy.0
REMARK                            x       y       z     vdW  Elec       q    Type
REMARK                         _______ _______ _______ _____ _____    ______ ____
ROOT
ATOM      1  O   LIG    1        4.762   1.252  -0.137  0.00  0.00    -0.490 OA
ATOM      2  C   LIG    1        4.773   0.039  -0.144  0.00  0.00    +0.520 C 
ATOM      3  N   LIG    1        3.617  -0.645  -0.035  0.00  0.00    -0.670 N 
ATOM      4  H   LIG    1        3.631  -1.613   0.037  0.00  0.00    +0.420 HD
ENDROOT
BRANCH   3   5
ATOM      5  C   LIG    1        2.400   0.037  -0.026  0.00  0.00    +0.180 A 
ATOM      6  C   LIG    1        2.251   1.201  -0.775  0.00  0.00    +0.020 A 
ATOM      7  C   LIG    1        1.052   1.877  -0.769  0.00  0.00    +0.110 A 
ATOM      8  C   LIG    1       -0.018   1.393  -0.009  0.00  0.00    +0.030 A 
ATOM      9  C   LIG    1        0.136   0.223   0.743  0.00  0.00    +0.070 A 
ATOM     10  C   LIG    1        1.338  -0.447   0.732  0.00  0.00    -0.020 A 
BRANCH   8  11
ATOM     11  N   LIG    1       -1.207   2.064   0.004  0.00  0.00    -0.210 NA
ATOM     12  N   LIG    1       -2.192   1.616   0.706  0.00  0.00    -0.220 NA
BRANCH  12  13
ATOM     13  C   LIG    1       -3.383   2.288   0.719  0.00  0.00    +0.040 A 
ATOM     14  C   LIG    1       -3.534   3.463  -0.022  0.00  0.00    +0.040 A 
ATOM     15  C   LIG    1       -4.740   4.132  -0.009  0.00  0.00    +0.000 A 
ATOM     16  C   LIG    1       -5.795   3.649   0.746  0.00  0.00    +0.040 A 
ATOM     17  C   LIG    1       -5.651   2.489   1.486  0.00  0.00    +0.000 A 
ATOM     18  C   LIG    1       -4.452   1.806   1.478  0.00  0.00    +0.080 A 
ENDBRANCH  12  13
ENDBRANCH   8  11
ENDBRANCH   3   5
BRANCH   2  19
ATOM     19  C   LIG    1        6.078  -0.703  -0.273  0.00  0.00    +0.270 C 
BRANCH  19  20
ATOM     20  O   LIG    1        7.169   0.251  -0.374  0.00  0.00    -0.330 OA
BRANCH  20  21
ATOM     21  C   LIG    1        8.412  -0.252  -0.497  0.00  0.00    +0.510 C 
ATOM     22  O   LIG    1        8.581  -1.455  -0.518  0.00  0.00    -0.490 OA
BRANCH  21  23
ATOM     23  C   LIG    1        9.570   0.658  -0.605  0.00  0.00    -0.100 A 
ATOM     24  C   LIG    1        9.379   2.041  -0.586  0.00  0.00    +0.100 A 
ATOM     25  C   LIG    1       10.466   2.886  -0.682  0.00  0.00    +0.070 A 
ATOM     26  C   LIG    1       11.742   2.365  -0.808  0.00  0.00    -0.150 A 
ATOM     27  C   LIG    1       11.938   0.996  -0.832  0.00  0.00    +0.070 A 
ATOM     28  C   LIG    1       10.861   0.140  -0.732  0.00  0.00    +0.100 A 
BRANCH  26  29
ATOM     29  C   LIG    1       12.923   3.294  -0.919  0.00  0.00    +0.510 C 
ATOM     30  F   LIG    1       14.053   2.680  -0.367  0.00  0.00    -0.170 F 
ATOM     31  F   LIG    1       12.652   4.479  -0.225  0.00  0.00    -0.170 F 
ATOM     32  F   LIG    1       13.162   3.587  -2.266  0.00  0.00    -0.170 F 
ENDBRANCH  26  29
ENDBRANCH  21  23
ENDBRANCH  20  21
ENDBRANCH  19  20
ENDBRANCH   2  19
TORSDOF 8
