REMARK  Name = ZINCvU00000006gN.0
REMARK                            x       y       z     vdW  Elec       q    Type
REMARK                         _______ _______ _______ _____ _____    ______ ____
ROOT
ATOM      1  N   LIG    1        0.399  -1.613   3.480  0.00  0.00    -0.510 N 
ATOM      2  C   LIG    1        0.223  -2.943   3.353  0.00  0.00    +0.560 A 
ATOM      3  C   LIG    1       -0.505  -3.438   2.233  0.00  0.00    -0.230 A 
ATOM      4  C   LIG    1       -1.002  -2.518   1.316  0.00  0.00    +0.090 A 
ATOM      5  S   LIG    1       -1.858  -3.356   0.029  0.00  0.00    +0.230 S 
ATOM      6  C   LIG    1       -1.536  -4.927   0.738  0.00  0.00    -0.030 A 
ATOM      7  N   LIG    1       -0.790  -1.200   1.512  0.00  0.00    -0.510 NA
ATOM      8  C   LIG    1       -0.833  -4.812   1.866  0.00  0.00    +0.040 A 
ATOM      9  O   LIG    1        0.678  -3.710   4.184  0.00  0.00    -0.500 OA
ATOM     10  C   LIG    1       -0.114  -0.760   2.546  0.00  0.00    +0.370 A 
ENDROOT
BRANCH   8  11
ATOM     11  C   LIG    1       -0.420  -5.977   2.674  0.00  0.00    +0.040 A 
ATOM     12  C   LIG    1       -1.232  -6.984   3.096  0.00  0.00    -0.040 A 
ATOM     13  C   LIG    1       -0.424  -7.877   3.828  0.00  0.00    -0.070 A 
ATOM     14  C   LIG    1        0.825  -7.373   3.825  0.00  0.00    +0.170 A 
ATOM     15  O   LIG    1        0.824  -6.224   3.127  0.00  0.00    -0.150 OA
ENDBRANCH   8  11
BRANCH   1  16
ATOM     16  C   LIG    1        1.143  -1.082   4.624  0.00  0.00    +0.340 C 
BRANCH  16  18
ATOM     17  C   LIG    1        0.405  -1.347   6.936  0.00  0.00    +0.070 C 
ATOM     18  C   LIG    1        0.191  -0.810   5.761  0.00  0.00    -0.070 C 
ENDBRANCH  16  18
ENDBRANCH   1  16
BRANCH  10  19
ATOM     19  S   LIG    1        0.133   0.974   2.738  0.00  0.00    +0.090 S 
BRANCH  19  20
ATOM     20  C   LIG    1       -0.730   1.579   1.266  0.00  0.00    +0.010 C 
ATOM     21  C   LIG    1        0.001   1.093   0.012  0.00  0.00    +0.100 C 
BRANCH  20  22
ATOM     22  C   LIG    1       -0.754   3.085   1.281  0.00  0.00    +0.540 C 
ATOM     23  N   LIG    1       -1.721   3.751   0.618  0.00  0.00    -0.570 N 
ATOM     24  C   LIG    1       -2.687   3.014  -0.200  0.00  0.00    +0.300 C 
ATOM     25  O   LIG    1        0.096   3.700   1.891  0.00  0.00    -0.510 OA
BRANCH  23  26
ATOM     26  C   LIG    1       -1.801   5.144   0.712  0.00  0.00    +0.130 A 
ATOM     27  C   LIG    1       -2.902   5.739   1.315  0.00  0.00    +0.010 A 
ATOM     28  C   LIG    1       -2.976   7.115   1.411  0.00  0.00    +0.020 A 
ATOM     29  C   LIG    1       -1.961   7.900   0.897  0.00  0.00    +0.010 A 
ATOM     30  C   LIG    1       -0.866   7.312   0.290  0.00  0.00    +0.020 A 
ATOM     31  C   LIG    1       -0.784   5.936   0.196  0.00  0.00    +0.020 A 
ENDBRANCH  23  26
ENDBRANCH  20  22
ENDBRANCH  19  20
ENDBRANCH  10  19
TORSDOF 7
