REMARK  Name = ZINCkj000005f4Y3.1
REMARK                            x       y       z     vdW  Elec       q    Type
REMARK                         _______ _______ _______ _____ _____    ______ ____
ROOT
ATOM      1  C   LIG    1       -4.786   0.263   3.627  0.00  0.00    +0.510 C 
ATOM      2  N   LIG    1       -5.621   0.401   4.676  0.00  0.00    -0.710 N 
ATOM      3  H   LIG    1       -5.375   0.973   5.420  0.00  0.00    +0.410 HD
ATOM      4  O   LIG    1       -5.132  -0.377   2.656  0.00  0.00    -0.520 OA
ENDROOT
BRANCH   2   5
ATOM      5  C   LIG    1       -6.901  -0.312   4.692  0.00  0.00    +0.230 C 
ATOM      6  C   LIG    1       -7.951   0.285   3.741  0.00  0.00    +0.080 C 
ATOM      7  C   LIG    1       -8.379   1.190   4.912  0.00  0.00    +0.030 C 
ATOM      8  C   LIG    1       -7.823   0.105   5.850  0.00  0.00    +0.050 C 
BRANCH   5   9
ATOM      9  C   LIG    1       -6.741  -1.804   4.555  0.00  0.00    +0.180 A 
ATOM     10  N   LIG    1       -7.255  -2.554   3.619  0.00  0.00    -0.260 NA
ATOM     11  N   LIG    1       -6.912  -3.779   3.808  0.00  0.00    -0.290 NA
ATOM     12  C   LIG    1       -6.171  -3.867   4.879  0.00  0.00    +0.380 A 
ATOM     13  N   LIG    1       -6.041  -2.617   5.383  0.00  0.00    -0.580 N 
ATOM     14  H   LIG    1       -5.548  -2.356   6.177  0.00  0.00    +0.430 HD
ENDBRANCH   5   9
ENDBRANCH   2   5
BRANCH   1  15
ATOM     15  C   LIG    1       -3.422   0.903   3.660  0.00  0.00    +0.090 C 
BRANCH  15  16
ATOM     16  C   LIG    1       -2.682   0.596   2.356  0.00  0.00    +0.010 C 
BRANCH  16  17
ATOM     17  C   LIG    1       -1.254   1.139   2.440  0.00  0.00    +0.010 C 
BRANCH  17  19
ATOM     18  C   LIG    1        0.901   1.009   3.696  0.00  0.00    +0.030 C 
ATOM     19  C   LIG    1       -0.483   0.381   3.522  0.00  0.00    -0.020 C 
ATOM     20  C   LIG    1       -0.330  -1.084   3.109  0.00  0.00    +0.010 C 
ENDBRANCH  17  19
ENDBRANCH  16  17
BRANCH  16  21
ATOM     21  C   LIG    1       -3.413   1.258   1.187  0.00  0.00    +0.270 C 
BRANCH  21  22
ATOM     22  N   LIG    1       -2.793   0.840  -0.078  0.00  0.00    -0.640 N 
ATOM     23  H   LIG    1       -2.905  -0.156  -0.194  0.00  0.00    +0.440 HD
ATOM     24  H   LIG    1       -1.810   1.069  -0.062  0.00  0.00    +0.430 HD
ATOM     25  H   LIG    1       -3.238   1.321  -0.846  0.00  0.00    +0.440 HD
ENDBRANCH  21  22
ENDBRANCH  16  21
ENDBRANCH  15  16
ENDBRANCH   1  15
TORSDOF 8
