REMARK  Name = ZINCkj000005f4Y3.0
REMARK                            x       y       z     vdW  Elec       q    Type
REMARK                         _______ _______ _______ _____ _____    ______ ____
ROOT
ATOM      1  C   LIG    1       -0.171   6.377  -0.735  0.00  0.00    +0.490 C 
ATOM      2  N   LIG    1       -1.464   6.162  -0.424  0.00  0.00    -0.700 N 
ATOM      3  H   LIG    1       -2.164   6.463  -1.024  0.00  0.00    +0.410 HD
ATOM      4  O   LIG    1        0.704   6.000   0.015  0.00  0.00    -0.480 OA
ENDROOT
BRANCH   2   5
ATOM      5  C   LIG    1       -1.813   5.473   0.821  0.00  0.00    +0.240 C 
ATOM      6  C   LIG    1       -1.786   6.386   2.058  0.00  0.00    +0.040 C 
ATOM      7  C   LIG    1       -3.263   6.701   1.759  0.00  0.00    +0.020 C 
ATOM      8  C   LIG    1       -3.329   5.339   1.047  0.00  0.00    +0.070 C 
BRANCH   5   9
ATOM      9  C   LIG    1       -1.059   4.182   1.006  0.00  0.00    +0.210 A 
ATOM     10  N   LIG    1        0.236   4.036   0.900  0.00  0.00    -0.250 NA
ATOM     11  N   LIG    1        0.514   2.682   1.147  0.00  0.00    -0.500 N 
ATOM     12  H   LIG    1        1.385   2.257   1.142  0.00  0.00    +0.440 HD
ATOM     13  C   LIG    1       -0.669   2.092   1.393  0.00  0.00    +0.480 A 
ATOM     14  N   LIG    1       -1.604   3.002   1.300  0.00  0.00    -0.530 NA
ENDBRANCH   5   9
ENDBRANCH   2   5
BRANCH   1  15
ATOM     15  C   LIG    1        0.188   7.086  -2.016  0.00  0.00    +0.050 C 
BRANCH  15  16
ATOM     16  C   LIG    1        1.710   7.200  -2.126  0.00  0.00    +0.030 C 
BRANCH  16  17
ATOM     17  C   LIG    1        2.071   8.027  -3.362  0.00  0.00    +0.020 C 
BRANCH  17  19
ATOM     18  C   LIG    1        3.960   8.972  -4.697  0.00  0.00    +0.010 C 
ATOM     19  C   LIG    1        3.583   8.255  -3.398  0.00  0.00    -0.030 C 
ATOM     20  C   LIG    1        3.999   9.114  -2.203  0.00  0.00    +0.020 C 
ENDBRANCH  17  19
ENDBRANCH  16  17
BRANCH  16  21
ATOM     21  C   LIG    1        2.318   5.802  -2.253  0.00  0.00    +0.280 C 
BRANCH  21  22
ATOM     22  N   LIG    1        1.800   5.150  -3.464  0.00  0.00    -0.640 N 
ATOM     23  H   LIG    1        2.056   5.695  -4.274  0.00  0.00    +0.430 HD
ATOM     24  H   LIG    1        0.795   5.084  -3.406  0.00  0.00    +0.430 HD
ATOM     25  H   LIG    1        2.194   4.225  -3.542  0.00  0.00    +0.440 HD
ENDBRANCH  21  22
ENDBRANCH  16  21
ENDBRANCH  15  16
ENDBRANCH   1  15
TORSDOF 8
