REMARK  Name = ZINCpk00000xI6lq.0
REMARK                            x       y       z     vdW  Elec       q    Type
REMARK                         _______ _______ _______ _____ _____    ______ ____
ROOT
ATOM      1  N   LIG    1        1.746   1.954  -7.369  0.00  0.00    -0.550 N 
ATOM      2  C   LIG    1        1.476   2.554  -6.194  0.00  0.00    +0.510 C 
ATOM      3  C   LIG    1        2.200   1.769  -5.120  0.00  0.00    +0.250 C 
ATOM      4  C   LIG    1        2.900   0.664  -5.878  0.00  0.00    -0.170 A 
ATOM      5  C   LIG    1        3.714  -0.372  -5.481  0.00  0.00    +0.090 A 
ATOM      6  C   LIG    1        4.222  -1.250  -6.423  0.00  0.00    -0.010 A 
ATOM      7  C   LIG    1        3.910  -1.081  -7.760  0.00  0.00    +0.050 A 
ATOM      8  C   LIG    1        3.094  -0.043  -8.160  0.00  0.00    -0.010 A 
ATOM      9  O   LIG    1        0.784   3.536  -6.025  0.00  0.00    -0.470 OA
ATOM     10  C   LIG    1        2.579   0.844  -7.218  0.00  0.00    +0.150 A 
ENDROOT
BRANCH   3  11
ATOM     11  C   LIG    1        1.217   1.192  -4.135  0.00  0.00    -0.300 A 
ATOM     12  C   LIG    1        1.430   1.011  -2.802  0.00  0.00    +0.410 A 
ATOM     13  N   LIG    1        0.307   0.468  -2.279  0.00  0.00    -0.400 N 
ATOM     14  N   LIG    1       -0.624   0.321  -3.316  0.00  0.00    -0.300 NA
ATOM     15  C   LIG    1       -0.079   0.754  -4.424  0.00  0.00    +0.130 A 
ATOM     16  C   LIG    1       -0.735   0.777  -5.780  0.00  0.00    +0.150 C 
BRANCH  12  17
ATOM     17  N   LIG    1        2.594   1.324  -2.105  0.00  0.00    -0.840 N 
ATOM     18  H   LIG    1        3.349   1.713  -2.572  0.00  0.00    +0.430 HD
ATOM     19  H   LIG    1        2.649   1.153  -1.152  0.00  0.00    +0.400 HD
ENDBRANCH  12  17
BRANCH  13  20
ATOM     20  C   LIG    1        0.098   0.104  -0.876  0.00  0.00    +0.350 C 
BRANCH  20  21
ATOM     21  C   LIG    1        0.533  -1.346  -0.654  0.00  0.00    +0.190 C 
BRANCH  21  22
ATOM     22  C   LIG    1        0.323  -1.711   0.756  0.00  0.00    +0.200 C 
ATOM     23  N   LIG    1        0.161  -1.994   1.844  0.00  0.00    -0.420 NA
ENDBRANCH  21  22
ENDBRANCH  20  21
ENDBRANCH  13  20
ENDBRANCH   3  11
BRANCH   3  24
ATOM     24  O   LIG    1        3.152   2.598  -4.450  0.00  0.00    -0.530 OA
ATOM     25  H   LIG    1        3.809   2.995  -5.037  0.00  0.00    +0.390 HD
ENDBRANCH   3  24
BRANCH   1  26
ATOM     26  C   LIG    1        1.226   2.415  -8.659  0.00  0.00    +0.320 C 
BRANCH  26  28
ATOM     27  C   LIG    1       -1.154   2.461  -9.198  0.00  0.00    +0.040 C 
ATOM     28  C   LIG    1       -0.091   1.740  -8.939  0.00  0.00    -0.080 C 
ENDBRANCH  26  28
ENDBRANCH   1  26
TORSDOF 8
