REMARK  Name = ZINCrH000004mg7f.0
REMARK                            x       y       z     vdW  Elec       q    Type
REMARK                         _______ _______ _______ _____ _____    ______ ____
ROOT
ATOM      1  C   LIG    1        1.286   1.707   0.018  0.00  0.00    +0.260 C 
ENDROOT
BRANCH   1   3
ATOM      2  C   LIG    1       -1.017   2.030  -0.706  0.00  0.00    +0.570 C 
ATOM      3  N   LIG    1        0.017   1.191  -0.500  0.00  0.00    -0.710 N 
ATOM      4  H   LIG    1       -0.078   0.246  -0.698  0.00  0.00    +0.410 HD
ATOM      5  O   LIG    1       -0.899   3.214  -0.458  0.00  0.00    -0.520 OA
BRANCH   2  10
ATOM      6  C   LIG    1       -3.635  -0.331  -2.017  0.00  0.00    +0.160 A 
ATOM      7  C   LIG    1       -4.698   0.535  -2.229  0.00  0.00    -0.130 A 
ATOM      8  C   LIG    1       -4.565   1.886  -1.945  0.00  0.00    +0.160 A 
ATOM      9  C   LIG    1       -3.369   2.377  -1.449  0.00  0.00    +0.020 A 
ATOM     10  C   LIG    1       -2.297   1.510  -1.235  0.00  0.00    -0.060 A 
ATOM     11  C   LIG    1       -2.433   0.153  -1.526  0.00  0.00    -0.020 A 
BRANCH   6  13
ATOM     12  C   LIG    1       -5.035  -2.083  -2.806  0.00  0.00    +0.250 C 
ATOM     13  O   LIG    1       -3.771  -1.653  -2.297  0.00  0.00    -0.310 OA
ENDBRANCH   6  13
BRANCH   8  14
ATOM     14  O   LIG    1       -5.610   2.730  -2.155  0.00  0.00    -0.310 OA
ATOM     15  C   LIG    1       -6.814   2.156  -2.667  0.00  0.00    +0.250 C 
ENDBRANCH   8  14
ENDBRANCH   2  10
ENDBRANCH   1   3
BRANCH   1  16
ATOM     16  C   LIG    1        2.410   0.796  -0.406  0.00  0.00    +0.520 C 
ATOM     17  N   LIG    1        3.685   1.231  -0.357  0.00  0.00    -0.670 N 
ATOM     18  H   LIG    1        3.874   2.152  -0.118  0.00  0.00    +0.420 HD
ATOM     19  O   LIG    1        2.166  -0.327  -0.792  0.00  0.00    -0.510 OA
BRANCH  17  20
ATOM     20  C   LIG    1        4.735   0.353  -0.650  0.00  0.00    +0.150 A 
ATOM     21  C   LIG    1        5.935   0.450   0.041  0.00  0.00    +0.010 A 
ATOM     22  C   LIG    1        6.968  -0.421  -0.247  0.00  0.00    +0.050 A 
ATOM     23  C   LIG    1        6.811  -1.382  -1.230  0.00  0.00    -0.050 A 
ATOM     24  C   LIG    1        5.618  -1.477  -1.923  0.00  0.00    +0.050 A 
ATOM     25 CL   LIG    1        8.114  -2.470  -1.594  0.00  0.00    -0.070 Cl
ATOM     26  C   LIG    1        4.580  -0.612  -1.636  0.00  0.00    +0.040 A 
ENDBRANCH  17  20
ENDBRANCH   1  16
BRANCH   1  27
ATOM     27  C   LIG    1        1.228   1.766   1.546  0.00  0.00    -0.020 C 
ATOM     28  C   LIG    1        0.884   0.381   2.097  0.00  0.00    +0.030 C 
ATOM     29  C   LIG    1        0.154   2.767   1.977  0.00  0.00    +0.050 C 
ENDBRANCH   1  27
TORSDOF 7
