REMARK  Name = ZINCrD0000073lH5.0
REMARK                            x       y       z     vdW  Elec       q    Type
REMARK                         _______ _______ _______ _____ _____    ______ ____
ROOT
ATOM      1  C   LIG    1        0.369  -4.321   0.495  0.00  0.00    +0.170 C 
ENDROOT
BRANCH   1   2
ATOM      2  C   LIG    1        0.289  -2.816   0.529  0.00  0.00    +0.520 C 
ATOM      3  N   LIG    1        1.264  -2.076  -0.033  0.00  0.00    -0.560 N 
ATOM      4  C   LIG    1        2.418  -2.712  -0.686  0.00  0.00    +0.340 C 
ATOM      5  C   LIG    1        3.671  -1.963  -0.308  0.00  0.00    +0.510 C 
ATOM      6  N   LIG    1        3.627  -0.649  -0.021  0.00  0.00    -0.660 N 
ATOM      7  H   LIG    1        4.448  -0.176   0.187  0.00  0.00    +0.420 HD
ATOM      8  C   LIG    1        2.411   0.042  -0.017  0.00  0.00    +0.130 A 
ATOM      9  C   LIG    1        2.382   1.427  -0.011  0.00  0.00    +0.000 A 
ATOM     10  C   LIG    1        1.169   2.091   0.002  0.00  0.00    +0.030 A 
ATOM     11  C   LIG    1       -0.017   1.380   0.010  0.00  0.00    +0.010 A 
ATOM     12  C   LIG    1        0.002  -0.004   0.002  0.00  0.00    +0.060 A 
ATOM     13  O   LIG    1        4.730  -2.552  -0.264  0.00  0.00    -0.510 OA
ATOM     14  C   LIG    1        1.212  -0.673  -0.013  0.00  0.00    +0.110 A 
ATOM     15  O   LIG    1       -0.654  -2.272   1.063  0.00  0.00    -0.480 OA
ENDBRANCH   1   2
BRANCH   1  18
ATOM     16  C   LIG    1       -2.220  -5.143   2.920  0.00  0.00    +0.130 A 
ATOM     17  N   LIG    1       -1.159  -4.580   2.418  0.00  0.00    -0.450 NA
ATOM     18  C   LIG    1       -0.836  -4.904   1.187  0.00  0.00    +0.080 A 
ATOM     19  C   LIG    1       -1.645  -5.780   0.584  0.00  0.00    -0.070 A 
ATOM     20  S   LIG    1       -2.921  -6.222   1.716  0.00  0.00    +0.090 S 
BRANCH  16  24
ATOM     21  C   LIG    1       -3.746  -4.487   6.830  0.00  0.00    +0.150 A 
ATOM     22  C   LIG    1       -4.394  -5.366   5.973  0.00  0.00    -0.010 A 
ATOM     23  C   LIG    1       -3.902  -5.582   4.703  0.00  0.00    +0.080 A 
ATOM     24  C   LIG    1       -2.751  -4.915   4.280  0.00  0.00    -0.070 A 
ATOM     25  C   LIG    1       -2.099  -4.036   5.147  0.00  0.00    +0.120 A 
ATOM     26  C   LIG    1       -2.601  -3.821   6.413  0.00  0.00    -0.070 A 
BRANCH  21  28
ATOM     27  C   LIG    1       -3.518  -3.360   8.911  0.00  0.00    +0.240 C 
ATOM     28  O   LIG    1       -4.234  -4.277   8.081  0.00  0.00    -0.310 OA
ENDBRANCH  21  28
ENDBRANCH  16  24
ENDBRANCH   1  18
TORSDOF 4
