REMARK  Name = ZINCpk00000xI3GC.0
REMARK                            x       y       z     vdW  Elec       q    Type
REMARK                         _______ _______ _______ _____ _____    ______ ____
ROOT
ATOM      1  C   LIG    1       -1.712   0.983  -2.154  0.00  0.00    +0.390 C 
ATOM      2  C   LIG    1       -2.158   1.782  -3.397  0.00  0.00    +0.100 C 
ATOM      3  C   LIG    1       -1.857   3.250  -2.995  0.00  0.00    +0.170 C 
ATOM      4  C   LIG    1       -0.568   3.084  -2.153  0.00  0.00    +0.270 C 
ATOM      5  N   LIG    1       -0.759   1.823  -1.414  0.00  0.00    -1.000 NA
ENDROOT
BRANCH   1  10
ATOM      6  C   LIG    1       -5.472  -1.320   0.218  0.00  0.00    +0.210 C 
ATOM      7  C   LIG    1       -4.499  -0.282  -0.279  0.00  0.00    +0.170 A 
ATOM      8  N   LIG    1       -4.487   0.976   0.043  0.00  0.00    -0.380 NA
ATOM      9  O   LIG    1       -3.576   1.545  -0.521  0.00  0.00    +0.080 OA
ATOM     10  C   LIG    1       -2.906   0.678  -1.288  0.00  0.00    +0.140 A 
ATOM     11  N   LIG    1       -3.485  -0.489  -1.137  0.00  0.00    -0.450 NA
ENDBRANCH   1  10
BRANCH   5  12
ATOM     12  S   LIG    1       -0.017   1.417   0.010  0.00  0.00    +2.620 S 
ATOM     13  O   LIG    1        1.190   2.166   0.002  0.00  0.00    -0.930 OA
ATOM     14  O   LIG    1        0.002  -0.004   0.002  0.00  0.00    -0.930 OA
BRANCH  12  15
ATOM     15  C   LIG    1       -1.139   2.031   1.296  0.00  0.00    -0.370 C 
BRANCH  15  16
ATOM     16  C   LIG    1       -0.558   1.712   2.675  0.00  0.00    +0.010 C 
ATOM     17  C   LIG    1        0.746   2.489   2.870  0.00  0.00    +0.040 C 
BRANCH  16  18
ATOM     18  C   LIG    1       -1.561   2.118   3.757  0.00  0.00    +0.190 C 
BRANCH  18  19
ATOM     19  O   LIG    1       -1.069   1.715   5.037  0.00  0.00    -0.380 OA
BRANCH  19  20
ATOM     20  C   LIG    1       -1.935   2.048   6.123  0.00  0.00    +0.140 C 
ATOM     21  C   LIG    1       -1.550   3.425   6.703  0.00  0.00    +0.000 C 
ATOM     22  C   LIG    1       -1.766   3.268   8.229  0.00  0.00    +0.020 C 
ATOM     23  C   LIG    1       -1.286   1.820   8.496  0.00  0.00    +0.020 C 
ATOM     24  C   LIG    1       -1.768   1.028   7.263  0.00  0.00    +0.030 C 
ENDBRANCH  19  20
ENDBRANCH  18  19
ENDBRANCH  16  18
ENDBRANCH  15  16
ENDBRANCH  12  15
ENDBRANCH   5  12
BRANCH   3  25
ATOM     25  O   LIG    1       -1.616   4.058  -4.149  0.00  0.00    -0.550 OA
ATOM     26  H   LIG    1       -1.329   4.958  -3.945  0.00  0.00    +0.390 HD
ENDBRANCH   3  25
TORSDOF 8
