REMARK  Name = ZINCnE000001Ft2j.0
REMARK                            x       y       z     vdW  Elec       q    Type
REMARK                         _______ _______ _______ _____ _____    ______ ____
ROOT
ATOM      1  N   LIG    1       -0.011   0.966   0.007  0.00  0.00    -0.660 N 
ATOM      2  H   LIG    1        0.007   0.085   0.413  0.00  0.00    +0.420 HD
ATOM      3  C   LIG    1        1.107   1.475  -0.548  0.00  0.00    +0.570 C 
ATOM      4  O   LIG    1        1.060   2.531  -1.147  0.00  0.00    -0.500 OA
ENDROOT
BRANCH   1  11
ATOM      5  C   LIG    1       -2.429   1.054   0.075  0.00  0.00    +0.100 A 
ATOM      6  C   LIG    1       -3.602   1.791   0.060  0.00  0.00    -0.040 A 
ATOM      7  C   LIG    1       -3.552   3.170  -0.036  0.00  0.00    +0.050 A 
ATOM      8  C   LIG    1       -2.333   3.817  -0.118  0.00  0.00    -0.050 A 
ATOM      9  C   LIG    1       -1.157   3.089  -0.099  0.00  0.00    +0.080 A 
ATOM     10 CL   LIG    1       -2.278   5.548  -0.239  0.00  0.00    -0.060 Cl
ATOM     11  C   LIG    1       -1.200   1.706  -0.007  0.00  0.00    +0.140 A 
BRANCH   5  12
ATOM     12  O   LIG    1       -2.477  -0.301   0.171  0.00  0.00    -0.310 OA
BRANCH  12  13
ATOM     13  C   LIG    1       -3.772  -0.901   0.252  0.00  0.00    +0.180 C 
BRANCH  13  15
ATOM     14  C   LIG    1       -5.011  -3.062   0.440  0.00  0.00    +0.040 C 
ATOM     15  C   LIG    1       -3.625  -2.420   0.353  0.00  0.00    +0.020 C 
ENDBRANCH  13  15
ENDBRANCH  12  13
ENDBRANCH   5  12
ENDBRANCH   1  11
BRANCH   3  16
ATOM     16  C   LIG    1        2.391   0.747  -0.427  0.00  0.00    -0.110 A 
ATOM     17  C   LIG    1        2.466  -0.466   0.262  0.00  0.00    -0.030 A 
ATOM     18  C   LIG    1        3.685  -1.120   0.348  0.00  0.00    +0.240 A 
ATOM     19  N   LIG    1        4.767  -0.612  -0.198  0.00  0.00    -0.420 NA
ATOM     20  CA  LIG    1        4.747   0.540  -0.858  0.00  0.00    +0.080 A 
ATOM     21  C   LIG    1        3.562   1.259  -0.996  0.00  0.00    +0.080 A 
BRANCH  20  22
ATOM     22  C   LIG    1        5.995   1.065  -1.453  0.00  0.00    +0.530 C 
ATOM     23  OXT LIG    1        7.039   0.439  -1.335  0.00  0.00    -0.660 OA
ATOM     24  O   LIG    1        5.983   2.125  -2.062  0.00  0.00    -0.670 OA
ENDBRANCH  20  22
ENDBRANCH   3  16
TORSDOF 6
