REMARK  Name = ZINCvU0000000EKo.0
REMARK                            x       y       z     vdW  Elec       q    Type
REMARK                         _______ _______ _______ _____ _____    ______ ____
ROOT
ATOM      1  C   LIG    1       -1.046   6.229   0.577  0.00  0.00    -0.150 A 
ATOM      2  C   LIG    1        0.219   5.755   0.450  0.00  0.00    +0.130 A 
ATOM      3  N   LIG    1        0.634   5.894  -0.855  0.00  0.00    -0.580 N 
ATOM      4  H   LIG    1        1.501   5.624  -1.196  0.00  0.00    +0.420 HD
ATOM      5  C   LIG    1       -0.367   6.473  -1.604  0.00  0.00    +0.100 A 
ATOM      6  C   LIG    1       -0.470   6.829  -2.944  0.00  0.00    -0.010 A 
ATOM      7  C   LIG    1       -1.630   7.407  -3.412  0.00  0.00    +0.040 A 
ATOM      8  C   LIG    1       -2.700   7.639  -2.559  0.00  0.00    -0.020 A 
ATOM      9  C   LIG    1       -2.622   7.297  -1.238  0.00  0.00    +0.070 A 
ATOM     10  C   LIG    1       -1.455   6.710  -0.742  0.00  0.00    -0.090 A 
ENDROOT
BRANCH   2  11
ATOM     11  C   LIG    1        1.025   5.173   1.544  0.00  0.00    -0.040 A 
ATOM     12  C   LIG    1        2.363   5.539   1.700  0.00  0.00    +0.040 A 
ATOM     13  C   LIG    1        3.110   4.992   2.722  0.00  0.00    +0.040 A 
ATOM     14  C   LIG    1        2.536   4.082   3.593  0.00  0.00    -0.020 A 
ATOM     15  C   LIG    1        1.210   3.711   3.440  0.00  0.00    +0.040 A 
ATOM     16 CL   LIG    1        3.483   3.397   4.877  0.00  0.00    -0.060 Cl
ATOM     17  C   LIG    1        0.452   4.255   2.425  0.00  0.00    +0.050 A 
ENDBRANCH   2  11
BRANCH   1  18
ATOM     18  C   LIG    1       -1.871   6.256   1.838  0.00  0.00    +0.130 C 
BRANCH  18  22
ATOM     19  C   LIG    1       -5.700   7.966   0.997  0.00  0.00    +0.110 A 
ATOM     20  C   LIG    1       -4.596   8.784   1.175  0.00  0.00    -0.030 A 
ATOM     21  C   LIG    1       -3.360   8.229   1.447  0.00  0.00    +0.020 A 
ATOM     22  C   LIG    1       -3.221   6.857   1.541  0.00  0.00    -0.070 A 
ATOM     23  C   LIG    1       -4.317   6.034   1.359  0.00  0.00    -0.020 A 
ATOM     24  C   LIG    1       -5.560   6.584   1.092  0.00  0.00    +0.110 A 
BRANCH  19  26
ATOM     25  C   LIG    1       -6.985   9.935   0.646  0.00  0.00    +0.240 C 
ATOM     26  O   LIG    1       -6.917   8.511   0.730  0.00  0.00    -0.300 OA
ENDBRANCH  19  26
BRANCH  24  27
ATOM     27  O   LIG    1       -6.640   5.776   0.918  0.00  0.00    -0.300 OA
ATOM     28  C   LIG    1       -6.422   4.368   1.030  0.00  0.00    +0.240 C 
ENDBRANCH  24  27
ENDBRANCH  18  22
BRANCH  18  29
ATOM     29  C   LIG    1       -1.158   7.102   2.895  0.00  0.00    +0.260 C 
BRANCH  29  30
ATOM     30  N   LIG    1       -1.898   7.031   4.157  0.00  0.00    -0.020 N 
ATOM     31  O   LIG    1       -3.111   7.147   4.159  0.00  0.00    -0.140 OA
ATOM     32  O   LIG    1       -1.302   6.858   5.205  0.00  0.00    -0.170 OA
ENDBRANCH  29  30
ENDBRANCH  18  29
ENDBRANCH   1  18
TORSDOF 7
