REMARK  Name = ZINCpe000000Yz2O.0
REMARK                            x       y       z     vdW  Elec       q    Type
REMARK                         _______ _______ _______ _____ _____    ______ ____
ROOT
ATOM      1  C   LIG    1        1.135   1.721   0.017  0.00  0.00    +0.080 A 
ATOM      2  C   LIG    1        0.106   0.792   0.073  0.00  0.00    -0.020 A 
ATOM      3  C   LIG    1       -1.202   1.218   0.217  0.00  0.00    +0.010 A 
ATOM      4  C   LIG    1       -1.487   2.567   0.319  0.00  0.00    +0.010 A 
ATOM      5  C   LIG    1       -0.467   3.499   0.264  0.00  0.00    +0.050 A 
ATOM      6  C   LIG    1        0.846   3.082   0.113  0.00  0.00    +0.140 A 
ENDROOT
BRANCH   1  10
ATOM      7  C   LIG    1        4.656  -0.147  -1.334  0.00  0.00    -0.010 C 
ATOM      8  C   LIG    1        4.490   1.366  -1.502  0.00  0.00    +0.060 C 
ATOM      9  C   LIG    1        3.004   1.723  -1.430  0.00  0.00    +0.180 C 
ATOM     10  N   LIG    1        2.458   1.293  -0.136  0.00  0.00    -0.490 N 
ATOM     11  C   LIG    1        2.563  -0.162   0.028  0.00  0.00    +0.200 C 
ATOM     12  C   LIG    1        4.036  -0.575  -0.001  0.00  0.00    +0.050 C 
BRANCH   7  16
ATOM     13  N   LIG    1        6.508  -1.781  -1.209  0.00  0.00    -0.860 N 
ATOM     14  H   LIG    1        7.452  -2.007  -1.216  0.00  0.00    +0.400 HD
ATOM     15  H   LIG    1        5.843  -2.480  -1.106  0.00  0.00    +0.400 HD
ATOM     16  C   LIG    1        6.121  -0.497  -1.344  0.00  0.00    +0.520 C 
ATOM     17  O   LIG    1        6.953   0.376  -1.472  0.00  0.00    -0.540 OA
ENDBRANCH   7  16
ENDBRANCH   1  10
BRANCH   6  18
ATOM     18  N   LIG    1        1.881   4.026   0.058  0.00  0.00    -0.660 N 
ATOM     19  H   LIG    1        2.780   3.775   0.321  0.00  0.00    +0.420 HD
ATOM     20  C   LIG    1        1.627   5.281  -0.362  0.00  0.00    +0.510 C 
ATOM     21  O   LIG    1        0.491   5.614  -0.626  0.00  0.00    -0.520 OA
BRANCH  20  22
ATOM     22  C   LIG    1        2.754   6.271  -0.503  0.00  0.00    +0.300 C 
BRANCH  22  23
ATOM     23  N   LIG    1        2.222   7.553  -0.971  0.00  0.00    -0.720 N 
ATOM     24  H   LIG    1        1.272   7.652  -1.137  0.00  0.00    +0.410 HD
ATOM     25  C   LIG    1        3.053   8.595  -1.171  0.00  0.00    +0.550 C 
ATOM     26  O   LIG    1        4.242   8.471  -0.963  0.00  0.00    -0.540 OA
BRANCH  25  27
ATOM     27  C   LIG    1        2.506   9.915  -1.651  0.00  0.00    -0.070 C 
ATOM     28  C   LIG    1        2.874  10.357  -3.069  0.00  0.00    +0.060 C 
ATOM     29  C   LIG    1        3.501  11.058  -1.861  0.00  0.00    +0.070 C 
ENDBRANCH  25  27
ENDBRANCH  22  23
ENDBRANCH  20  22
ENDBRANCH   6  18
TORSDOF 6
