REMARK  Name = ZINCpk00000eaUrv.0
REMARK                            x       y       z     vdW  Elec       q    Type
REMARK                         _______ _______ _______ _____ _____    ______ ____
ROOT
ATOM      1  C   LIG    1       -2.480   7.077   4.259  0.00  0.00    +0.090 C 
ATOM      2  C   LIG    1       -2.335   5.598   4.008  0.00  0.00    -0.130 A 
ATOM      3  C   LIG    1       -1.701   5.152   2.871  0.00  0.00    +0.100 A 
ATOM      4  C   LIG    1       -1.567   3.780   2.639  0.00  0.00    -0.150 A 
ATOM      5  C   LIG    1       -2.083   2.866   3.561  0.00  0.00    +0.060 A 
ATOM      6  C   LIG    1       -2.711   3.318   4.700  0.00  0.00    +0.020 A 
ATOM      7  C   LIG    1       -2.842   4.685   4.927  0.00  0.00    +0.190 A 
ENDROOT
BRANCH   7   8
ATOM      8  N   LIG    1       -3.483   5.140   6.079  0.00  0.00    -0.680 N 
ATOM      9  H   LIG    1       -3.897   6.017   6.090  0.00  0.00    +0.410 HD
ATOM     10  C   LIG    1       -3.529   4.360   7.178  0.00  0.00    +0.710 C 
ATOM     11  N   LIG    1       -4.244   4.750   8.252  0.00  0.00    -0.730 N 
ATOM     12  H   LIG    1       -4.725   5.592   8.234  0.00  0.00    +0.400 HD
ATOM     13  O   LIG    1       -2.925   3.305   7.200  0.00  0.00    -0.560 OA
BRANCH  11  14
ATOM     14  C   LIG    1       -4.293   3.903   9.446  0.00  0.00    +0.280 C 
ATOM     15  C   LIG    1       -5.418   2.848   9.330  0.00  0.00    +0.080 C 
ATOM     16  C   LIG    1       -5.971   2.740  10.734  0.00  0.00    +0.510 C 
ATOM     17  N   LIG    1       -5.575   3.794  11.469  0.00  0.00    -0.480 N 
ATOM     18  O   LIG    1       -6.670   1.835  11.137  0.00  0.00    -0.520 OA
ATOM     19  C   LIG    1       -4.746   4.713  10.680  0.00  0.00    +0.310 C 
BRANCH  17  20
ATOM     20  O   LIG    1       -5.915   3.992  12.829  0.00  0.00    -0.310 OA
ATOM     21  H   LIG    1       -6.469   3.293  13.202  0.00  0.00    +0.400 HD
ENDBRANCH  17  20
ENDBRANCH  11  14
ENDBRANCH   7   8
BRANCH   4  22
ATOM     22  C   LIG    1       -0.888   3.299   1.421  0.00  0.00    +0.560 C 
ATOM     23  N   LIG    1       -0.761   1.976   1.198  0.00  0.00    -0.730 N 
ATOM     24  H   LIG    1       -1.115   1.340   1.840  0.00  0.00    +0.400 HD
ATOM     25  O   LIG    1       -0.445   4.096   0.617  0.00  0.00    -0.540 OA
BRANCH  23  26
ATOM     26  C   LIG    1       -0.086   1.498  -0.011  0.00  0.00    +0.260 C 
BRANCH  26  27
ATOM     27  C   LIG    1       -0.077  -0.032  -0.019  0.00  0.00    -0.030 C 
ATOM     28  C   LIG    1        0.734  -0.531  -1.216  0.00  0.00    +0.030 C 
ATOM     29  C   LIG    1       -1.513  -0.551  -0.124  0.00  0.00    +0.020 C 
ENDBRANCH  26  27
ENDBRANCH  23  26
ENDBRANCH   4  22
TORSDOF 6
