REMARK  Name = ZINCqH0000001tOF.0
REMARK                            x       y       z     vdW  Elec       q    Type
REMARK                         _______ _______ _______ _____ _____    ______ ____
ROOT
ATOM      1  C   LIG    1        0.082  -2.774   0.087  0.00  0.00    +0.560 C 
ATOM      2  N   LIG    1        1.233  -2.082  -0.021  0.00  0.00    -0.660 N 
ATOM      3  H   LIG    1        2.078  -2.553  -0.098  0.00  0.00    +0.420 HD
ATOM      4  O   LIG    1       -0.982  -2.186   0.101  0.00  0.00    -0.520 OA
ENDROOT
BRANCH   1   8
ATOM      5  C   LIG    1        0.171  -7.010   0.382  0.00  0.00    -0.060 A 
ATOM      6  C   LIG    1       -1.042  -6.344   0.398  0.00  0.00    +0.020 A 
ATOM      7  C   LIG    1       -1.078  -4.968   0.302  0.00  0.00    +0.080 A 
ATOM      8  C   LIG    1        0.113  -4.248   0.190  0.00  0.00    -0.130 A 
ATOM      9  C   LIG    1        1.332  -4.927   0.169  0.00  0.00    +0.040 A 
ATOM     10  C   LIG    1        1.354  -6.302   0.271  0.00  0.00    +0.030 A 
BRANCH   5  11
ATOM     11  C   LIG    1        0.202  -8.513   0.487  0.00  0.00    +0.220 C 
BRANCH  11  12
ATOM     12  O   LIG    1        0.142  -9.083  -0.822  0.00  0.00    -0.380 OA
BRANCH  12  14
ATOM     13  C   LIG    1       -0.612 -11.023  -2.050  0.00  0.00    +0.040 C 
ATOM     14  C   LIG    1        0.167 -10.512  -0.835  0.00  0.00    +0.140 C 
ATOM     15  C   LIG    1        1.615 -10.997  -0.917  0.00  0.00    +0.010 C 
ENDBRANCH  12  14
ENDBRANCH  11  12
ENDBRANCH   5  11
ENDBRANCH   1   8
BRANCH   2  16
ATOM     16  C   LIG    1        1.211  -0.681  -0.024  0.00  0.00    +0.170 A 
ATOM     17  C   LIG    1        0.155  -0.004  -0.614  0.00  0.00    +0.020 A 
ATOM     18  C   LIG    1        0.135   1.379  -0.616  0.00  0.00    +0.030 A 
ATOM     19  C   LIG    1        1.166   2.090  -0.032  0.00  0.00    +0.000 A 
ATOM     20  C   LIG    1        2.223   1.423   0.559  0.00  0.00    -0.010 A 
ATOM     21  C   LIG    1        2.252   0.037   0.566  0.00  0.00    +0.060 A 
BRANCH  21  22
ATOM     22  N   LIG    1        3.321  -0.640   1.162  0.00  0.00    -0.500 N 
ATOM     23  C   LIG    1        3.376  -0.369   2.606  0.00  0.00    +0.160 C 
ATOM     24  C   LIG    1        4.521  -1.174   3.228  0.00  0.00    +0.220 C 
ATOM     25  O   LIG    1        5.745  -0.841   2.567  0.00  0.00    -0.380 OA
ATOM     26  C   LIG    1        5.726  -1.093   1.159  0.00  0.00    +0.220 C 
ATOM     27  C   LIG    1        4.594  -0.287   0.517  0.00  0.00    +0.160 C 
ENDBRANCH  21  22
ENDBRANCH   2  16
TORSDOF 6
