REMARK  Name = ZINCpk00000KfLzL.0
REMARK                            x       y       z     vdW  Elec       q    Type
REMARK                         _______ _______ _______ _____ _____    ______ ____
ROOT
ATOM      1  C   LIG    1        3.367   2.973   3.039  0.00  0.00    +0.180 C 
ATOM      2  C   LIG    1        4.281   2.058   2.199  0.00  0.00    +0.000 C 
ATOM      3  C   LIG    1        5.383   2.988   1.648  0.00  0.00    +0.170 C 
ATOM      4  N   LIG    1        5.422   4.128   2.600  0.00  0.00    -0.510 NA
ATOM      5  C   LIG    1        3.993   4.380   2.928  0.00  0.00    +0.200 C 
ENDROOT
BRANCH   1   6
ATOM      6  N   LIG    1        2.005   2.976   2.491  0.00  0.00    -0.520 NA
ATOM      7  C   LIG    1        2.018   3.260   1.050  0.00  0.00    +0.200 C 
BRANCH   6   8
ATOM      8  C   LIG    1        1.322   1.705   2.770  0.00  0.00    +0.310 C 
BRANCH   8  13
ATOM      9  C   LIG    1       -3.075   1.672   0.282  0.00  0.00    +0.200 C 
ATOM     10  C   LIG    1       -2.021   1.817   1.350  0.00  0.00    +0.180 A 
ATOM     11  N   LIG    1       -2.215   2.212   2.579  0.00  0.00    -0.290 NA
ATOM     12  N   LIG    1       -1.095   2.223   3.211  0.00  0.00    -0.270 NA
ATOM     13  C   LIG    1       -0.138   1.831   2.416  0.00  0.00    +0.180 A 
ATOM     14  N   LIG    1       -0.698   1.558   1.213  0.00  0.00    -0.470 N 
ATOM     15  C   LIG    1       -0.013   1.086   0.008  0.00  0.00    +0.320 C 
ENDBRANCH   8  13
ENDBRANCH   6   8
ENDBRANCH   1   6
BRANCH   4  16
ATOM     16  C   LIG    1        6.037   5.310   1.982  0.00  0.00    +0.340 C 
BRANCH  16  17
ATOM     17  C   LIG    1        7.511   5.064   1.785  0.00  0.00    +0.170 A 
ATOM     18  N   LIG    1        8.071   4.536   0.735  0.00  0.00    -0.280 NA
ATOM     19  N   LIG    1        9.344   4.482   0.911  0.00  0.00    -0.290 NA
ATOM     20  C   LIG    1        9.639   4.966   2.084  0.00  0.00    +0.180 A 
ATOM     21  O   LIG    1        8.488   5.345   2.664  0.00  0.00    -0.220 OA
BRANCH  20  22
ATOM     22  C   LIG    1       11.018   5.079   2.681  0.00  0.00    +0.090 C 
ATOM     23  C   LIG    1       12.096   5.493   1.666  0.00  0.00    +0.060 C 
ATOM     24  C   LIG    1       13.023   4.478   2.359  0.00  0.00    +0.030 C 
ATOM     25  C   LIG    1       11.752   3.733   2.797  0.00  0.00    +0.050 C 
ENDBRANCH  20  22
ENDBRANCH  16  17
ENDBRANCH   4  16
TORSDOF 6
