REMARK  Name = ZINCrD00000F5LzC.0
REMARK                            x       y       z     vdW  Elec       q    Type
REMARK                         _______ _______ _______ _____ _____    ______ ____
ROOT
ATOM      1  C   LIG    1       -0.240   5.416   0.033  0.00  0.00    +0.340 C 
ENDROOT
BRANCH   1   2
ATOM      2  C   LIG    1        0.017   3.931   0.023  0.00  0.00    -0.190 A 
ATOM      3  C   LIG    1        1.214   3.373   0.009  0.00  0.00    +0.070 A 
ATOM      4  C   LIG    1        1.233   1.962   0.001  0.00  0.00    -0.170 A 
ATOM      5  C   LIG    1       -0.017   1.407   0.010  0.00  0.00    -0.170 A 
ATOM      6  C   LIG    1        0.002  -0.004   0.002  0.00  0.00    +0.060 A 
ATOM      7  C   LIG    1        1.199  -0.562  -0.012  0.00  0.00    -0.010 A 
ATOM      8  S   LIG    1        2.446   0.670  -0.018  0.00  0.00    +0.140 S 
ATOM      9  S   LIG    1       -1.231   2.699   0.035  0.00  0.00    +0.230 S 
ENDBRANCH   1   2
BRANCH   1  14
ATOM     10  N   LIG    1        0.263   6.532   2.271  0.00  0.00    -0.290 N 
ATOM     11  N   LIG    1       -0.386   6.721   3.369  0.00  0.00    -0.080 NA
ATOM     12  N   LIG    1       -1.556   6.195   3.256  0.00  0.00    -0.080 NA
ATOM     13  N   LIG    1       -1.677   5.667   2.087  0.00  0.00    -0.270 NA
ATOM     14  C   LIG    1       -0.555   5.862   1.438  0.00  0.00    +0.180 A 
BRANCH  10  15
ATOM     15  C   LIG    1        1.632   6.967   1.982  0.00  0.00    +0.250 C 
ATOM     16  C   LIG    1        2.593   6.324   2.983  0.00  0.00    +0.070 C 
BRANCH  15  18
ATOM     17  C   LIG    1        3.112   8.957   1.679  0.00  0.00    +0.050 C 
ATOM     18  C   LIG    1        1.717   8.490   2.100  0.00  0.00    +0.030 C 
ENDBRANCH  15  18
ENDBRANCH  10  15
ENDBRANCH   1  14
BRANCH   1  19
ATOM     19  N   LIG    1       -1.377   5.722  -0.845  0.00  0.00    -0.510 NA
ATOM     20  C   LIG    1       -1.717   7.150  -0.788  0.00  0.00    +0.220 C 
BRANCH  19  21
ATOM     21  C   LIG    1       -1.105   5.300  -2.225  0.00  0.00    +0.220 C 
BRANCH  21  22
ATOM     22  C   LIG    1       -2.389   5.402  -3.052  0.00  0.00    -0.330 C 
BRANCH  22  23
ATOM     23  S   LIG    1       -2.053   4.881  -4.757  0.00  0.00    +2.410 S 
ATOM     24  O   LIG    1       -1.719   3.500  -4.751  0.00  0.00    -0.930 OA
ATOM     25  O   LIG    1       -1.152   5.810  -5.345  0.00  0.00    -0.940 OA
BRANCH  23  26
ATOM     26  C   LIG    1       -3.679   5.080  -5.537  0.00  0.00    -0.350 C 
ATOM     27  C   LIG    1       -3.590   4.679  -7.011  0.00  0.00    +0.070 C 
ENDBRANCH  23  26
ENDBRANCH  22  23
ENDBRANCH  21  22
ENDBRANCH  19  21
ENDBRANCH   1  19
TORSDOF 9
