REMARK  Name = ZINCrH000004mKAN.0
REMARK                            x       y       z     vdW  Elec       q    Type
REMARK                         _______ _______ _______ _____ _____    ______ ____
ROOT
ATOM      1  S   LIG    1       -2.126  -4.600  -0.338  0.00  0.00    +0.130 S 
ENDROOT
BRANCH   1   2
ATOM      2  C   LIG    1       -3.767  -5.232  -0.445  0.00  0.00    +0.170 A 
ATOM      3  N   LIG    1       -4.876  -4.528  -0.425  0.00  0.00    -0.290 NA
ATOM      4  N   LIG    1       -5.894  -5.306  -0.523  0.00  0.00    -0.250 NA
ATOM      5  C   LIG    1       -5.498  -6.554  -0.611  0.00  0.00    +0.190 A 
ATOM      6  N   LIG    1       -4.123  -6.545  -0.570  0.00  0.00    -0.300 N 
BRANCH   5   7
ATOM      7  C   LIG    1       -6.365  -7.745  -0.737  0.00  0.00    -0.010 A 
ATOM      8  C   LIG    1       -5.842  -9.020  -0.515  0.00  0.00    +0.010 A 
ATOM      9  C   LIG    1       -6.657 -10.126  -0.630  0.00  0.00    +0.040 A 
ATOM     10  C   LIG    1       -7.990  -9.975  -0.974  0.00  0.00    -0.020 A 
ATOM     11  C   LIG    1       -8.514  -8.713  -1.200  0.00  0.00    +0.050 A 
ATOM     12 CL   LIG    1       -9.008 -11.373  -1.124  0.00  0.00    -0.060 Cl
ATOM     13  C   LIG    1       -7.710  -7.599  -1.083  0.00  0.00    +0.090 A 
ENDBRANCH   5   7
BRANCH   6  14
ATOM     14  N   LIG    1       -3.288  -7.624  -0.637  0.00  0.00    -0.590 N 
ATOM     15  H   LIG    1       -3.668  -8.338  -1.239  0.00  0.00    +0.380 HD
ATOM     16  H   LIG    1       -3.097  -7.991   0.283  0.00  0.00    +0.370 HD
ENDBRANCH   6  14
ENDBRANCH   1   2
BRANCH   1  17
ATOM     17  C   LIG    1       -2.478  -2.830  -0.206  0.00  0.00    +0.100 C 
BRANCH  17  20
ATOM     18  N   LIG    1       -1.201  -0.723   0.009  0.00  0.00    -0.650 N 
ATOM     19  H   LIG    1       -2.045  -0.254   0.100  0.00  0.00    +0.420 HD
ATOM     20  C   LIG    1       -1.184  -2.066  -0.100  0.00  0.00    +0.540 C 
ATOM     21  O   LIG    1       -0.126  -2.660  -0.113  0.00  0.00    -0.500 OA
BRANCH  18  28
ATOM     22  C   LIG    1        0.074   1.250   0.595  0.00  0.00    +0.110 A 
ATOM     23  C   LIG    1        1.265   1.958   0.574  0.00  0.00    -0.040 A 
ATOM     24  C   LIG    1        2.378   1.421  -0.046  0.00  0.00    +0.060 A 
ATOM     25  C   LIG    1        2.307   0.176  -0.646  0.00  0.00    -0.050 A 
ATOM     26  C   LIG    1        1.121  -0.536  -0.629  0.00  0.00    +0.070 A 
ATOM     27 CL   LIG    1        3.708  -0.492  -1.423  0.00  0.00    -0.060 Cl
ATOM     28  C   LIG    1        0.001  -0.003  -0.009  0.00  0.00    +0.130 A 
BRANCH  22  30
ATOM     29  C   LIG    1       -0.874   3.069   1.798  0.00  0.00    +0.250 C 
ATOM     30  O   LIG    1       -1.022   1.780   1.200  0.00  0.00    -0.320 OA
ENDBRANCH  22  30
ENDBRANCH  18  28
ENDBRANCH  17  20
ENDBRANCH   1  17
TORSDOF 7
