REMARK  Name = ZINCqH0000000iiU.0
REMARK                            x       y       z     vdW  Elec       q    Type
REMARK                         _______ _______ _______ _____ _____    ______ ____
ROOT
ATOM      1  C   LIG    1       -1.393   2.071   0.996  0.00  0.00    +0.240 C 
ATOM      2  N   LIG    1       -0.158   1.302   1.200  0.00  0.00    -0.600 N 
ATOM      3  C   LIG    1        0.804   1.764   2.210  0.00  0.00    +0.260 C 
ATOM      4  C   LIG    1        0.074   1.927   3.547  0.00  0.00    +0.010 C 
ATOM      5  C   LIG    1       -1.131   2.852   3.356  0.00  0.00    +0.030 C 
ATOM      6  C   LIG    1        0.091   0.196   0.470  0.00  0.00    +0.550 C 
ATOM      7  O   LIG    1       -0.755  -0.233  -0.291  0.00  0.00    -0.480 OA
ATOM      8  C   LIG    1       -2.100   2.228   2.350  0.00  0.00    -0.080 C 
ATOM      9  C   LIG    1       -3.320   3.137   2.186  0.00  0.00    +0.040 C 
ATOM     10  C   LIG    1       -2.550   0.856   2.857  0.00  0.00    +0.030 C 
ENDROOT
BRANCH   6  11
ATOM     11  C   LIG    1        1.391  -0.496   0.596  0.00  0.00    -0.140 A 
ATOM     12  C   LIG    1        2.581   0.226   0.496  0.00  0.00    +0.170 A 
ATOM     13  C   LIG    1        3.791  -0.424   0.621  0.00  0.00    -0.680 A 
ATOM     14  C   LIG    1        3.828  -1.792   0.833  0.00  0.00    +0.160 A 
ATOM     15  C   LIG    1        2.652  -2.515   0.927  0.00  0.00    +0.020 A 
ATOM     16  C   LIG    1        1.434  -1.876   0.810  0.00  0.00    +0.050 A 
ATOM     17 CL   LIG    1       -0.041  -2.785   0.930  0.00  0.00    -0.030 Cl
BRANCH  13  18
ATOM     18  S   LIG    1        5.295   0.486   0.502  0.00  0.00    +2.690 S 
ATOM     19  O   LIG    1        6.280  -0.275   1.186  0.00  0.00    -0.950 OA
ATOM     20  O   LIG    1        4.978   1.830   0.841  0.00  0.00    -0.950 OA
BRANCH  18  21
ATOM     21  N   LIG    1        5.736   0.498  -1.094  0.00  0.00    -1.000 NA
ATOM     22  C   LIG    1        6.593  -0.565  -1.625  0.00  0.00    +0.310 C 
ATOM     23  C   LIG    1        5.270   1.572  -1.975  0.00  0.00    +0.310 C 
ENDBRANCH  18  21
ENDBRANCH  13  18
ENDBRANCH   6  11
BRANCH   1  24
ATOM     24  C   LIG    1       -2.306   1.326   0.021  0.00  0.00    +0.070 C 
BRANCH  24  26
ATOM     25  C   LIG    1       -1.788   0.461  -2.203  0.00  0.00    +0.030 C 
ATOM     26  C   LIG    1       -1.778   1.482  -1.382  0.00  0.00    -0.060 C 
ENDBRANCH  24  26
ENDBRANCH   1  24
TORSDOF 5
