REMARK  Name = ZINCqH0000004B7G.1
REMARK                            x       y       z     vdW  Elec       q    Type
REMARK                         _______ _______ _______ _____ _____    ______ ____
ROOT
ATOM      1  C   LIG    1       -0.808   7.338   1.301  0.00  0.00    +0.280 A 
ATOM      2  N   LIG    1       -1.750   8.092   0.781  0.00  0.00    -0.290 NA
ATOM      3  N   LIG    1       -1.378   9.427   1.010  0.00  0.00    -0.460 N 
ATOM      4  H   LIG    1       -1.870  10.220   0.744  0.00  0.00    +0.450 HD
ATOM      5  C   LIG    1       -0.201   9.389   1.673  0.00  0.00    +0.250 A 
ATOM      6  N   LIG    1        0.128   8.127   1.847  0.00  0.00    -0.530 NA
ENDROOT
BRANCH   1  10
ATOM      7  C   LIG    1       -0.749   3.086   1.275  0.00  0.00    -0.060 A 
ATOM      8  C   LIG    1        0.283   3.786   1.874  0.00  0.00    +0.010 A 
ATOM      9  C   LIG    1        0.272   5.166   1.880  0.00  0.00    +0.060 A 
ATOM     10  C   LIG    1       -0.787   5.854   1.292  0.00  0.00    -0.030 A 
ATOM     11  C   LIG    1       -1.827   5.144   0.695  0.00  0.00    +0.050 A 
ATOM     12  C   LIG    1       -1.803   3.764   0.689  0.00  0.00    +0.010 A 
BRANCH   7  14
ATOM     13  C   LIG    1       -0.013   1.086   0.008  0.00  0.00    +0.030 C 
ATOM     14  C   LIG    1       -0.729   1.579   1.267  0.00  0.00    +0.050 C 
ENDBRANCH   7  14
ENDBRANCH   1  10
BRANCH   5  15
ATOM     15  S   LIG    1        0.727  10.785   2.216  0.00  0.00    +0.070 S 
BRANCH  15  16
ATOM     16  C   LIG    1        2.129   9.947   2.994  0.00  0.00    +0.110 C 
BRANCH  16  17
ATOM     17  C   LIG    1        3.084  10.973   3.547  0.00  0.00    +0.420 C 
ATOM     18  O   LIG    1        2.840  12.155   3.427  0.00  0.00    -0.430 OA
BRANCH  17  19
ATOM     19  C   LIG    1        4.310  10.543   4.232  0.00  0.00    -0.160 A 
ATOM     20  C   LIG    1        4.593   9.179   4.373  0.00  0.00    +0.100 A 
ATOM     21  C   LIG    1        5.744   8.778   5.015  0.00  0.00    +0.040 A 
ATOM     22  C   LIG    1        6.625   9.723   5.525  0.00  0.00    +0.070 A 
ATOM     23  O   LIG    1        7.808   9.584   6.189  0.00  0.00    -0.300 OA
ATOM     24  C   LIG    1        8.050  10.856   6.817  0.00  0.00    +0.440 C 
ATOM     25  O   LIG    1        7.361  11.794   5.969  0.00  0.00    -0.300 OA
ATOM     26  C   LIG    1        6.349  11.085   5.389  0.00  0.00    +0.020 A 
ATOM     27  C   LIG    1        5.201  11.495   4.742  0.00  0.00    +0.110 A 
ENDBRANCH  17  19
ENDBRANCH  16  17
ENDBRANCH  15  16
ENDBRANCH   5  15
TORSDOF 6
