REMARK  Name = ZINCqH0000004B7G.0
REMARK                            x       y       z     vdW  Elec       q    Type
REMARK                         _______ _______ _______ _____ _____    ______ ____
ROOT
ATOM      1  C   LIG    1       -6.128  -0.413   1.307  0.00  0.00    +0.350 A 
ATOM      2  N   LIG    1       -6.530  -1.553   1.833  0.00  0.00    -0.500 NA
ATOM      3  C   LIG    1       -7.847  -1.688   1.661  0.00  0.00    +0.200 A 
ATOM      4  N   LIG    1       -8.304  -0.640   1.016  0.00  0.00    -0.320 NA
ATOM      5  N   LIG    1       -7.207   0.203   0.774  0.00  0.00    -0.470 N 
ATOM      6  H   LIG    1       -7.221   1.057   0.316  0.00  0.00    +0.440 HD
ENDROOT
BRANCH   1  10
ATOM      7  C   LIG    1       -2.143   1.058   1.278  0.00  0.00    -0.060 A 
ATOM      8  C   LIG    1       -3.155   1.800   0.696  0.00  0.00    +0.010 A 
ATOM      9  C   LIG    1       -4.451   1.325   0.698  0.00  0.00    +0.030 A 
ATOM     10  C   LIG    1       -4.740   0.099   1.297  0.00  0.00    -0.050 A 
ATOM     11  C   LIG    1       -3.716  -0.642   1.887  0.00  0.00    +0.080 A 
ATOM     12  C   LIG    1       -2.424  -0.159   1.874  0.00  0.00    +0.010 A 
BRANCH   7  14
ATOM     13  C   LIG    1       -0.013   1.086   0.008  0.00  0.00    +0.030 C 
ATOM     14  C   LIG    1       -0.729   1.579   1.267  0.00  0.00    +0.070 C 
ENDBRANCH   7  14
ENDBRANCH   1  10
BRANCH   3  15
ATOM     15  S   LIG    1       -8.815  -3.055   2.208  0.00  0.00    +0.090 S 
BRANCH  15  16
ATOM     16  C   LIG    1      -10.487  -2.618   1.658  0.00  0.00    +0.080 C 
BRANCH  16  17
ATOM     17  C   LIG    1      -11.448  -3.707   2.057  0.00  0.00    +0.420 C 
ATOM     18  O   LIG    1      -11.045  -4.683   2.655  0.00  0.00    -0.430 OA
BRANCH  17  19
ATOM     19  C   LIG    1      -12.873  -3.588   1.724  0.00  0.00    -0.160 A 
ATOM     20  C   LIG    1      -13.341  -2.463   1.034  0.00  0.00    +0.090 A 
ATOM     21  C   LIG    1      -14.678  -2.354   0.722  0.00  0.00    +0.040 A 
ATOM     22  C   LIG    1      -15.566  -3.357   1.089  0.00  0.00    +0.070 A 
ATOM     23  O   LIG    1      -16.910  -3.482   0.900  0.00  0.00    -0.300 OA
ATOM     24  C   LIG    1      -17.339  -4.491   1.832  0.00  0.00    +0.440 C 
ATOM     25  O   LIG    1      -16.167  -5.308   2.016  0.00  0.00    -0.300 OA
ATOM     26  C   LIG    1      -15.107  -4.482   1.777  0.00  0.00    +0.020 A 
ATOM     27  C   LIG    1      -13.768  -4.601   2.089  0.00  0.00    +0.110 A 
ENDBRANCH  17  19
ENDBRANCH  16  17
ENDBRANCH  15  16
ENDBRANCH   3  15
TORSDOF 6
