REMARK  Name = ZINCkj000005iJkR.0
REMARK                            x       y       z     vdW  Elec       q    Type
REMARK                         _______ _______ _______ _____ _____    ______ ____
ROOT
ATOM      1  C   LIG    1        3.805   2.519  -0.103  0.00  0.00    +0.190 C 
ENDROOT
BRANCH   1   5
ATOM      2  C   LIG    1        7.429   0.255  -0.169  0.00  0.00    +0.140 A 
ATOM      3  C   LIG    1        7.105   1.080  -1.237  0.00  0.00    -0.020 A 
ATOM      4  C   LIG    1        5.933   1.810  -1.213  0.00  0.00    +0.050 A 
ATOM      5  C   LIG    1        5.083   1.720  -0.127  0.00  0.00    -0.150 A 
ATOM      6  C   LIG    1        5.406   0.904   0.941  0.00  0.00    +0.100 A 
ATOM      7  C   LIG    1        6.574   0.167   0.920  0.00  0.00    -0.080 A 
BRANCH   2   9
ATOM      8  C   LIG    1        8.850  -1.292   0.944  0.00  0.00    +0.250 C 
ATOM      9  O   LIG    1        8.581  -0.465  -0.190  0.00  0.00    -0.310 OA
ENDBRANCH   2   9
ENDBRANCH   1   5
BRANCH   1  10
ATOM     10  N   LIG    1        3.583   3.050   1.248  0.00  0.00    -0.530 NA
ATOM     11  C   LIG    1        2.275   3.711   1.346  0.00  0.00    +0.190 C 
ATOM     12  C   LIG    1        4.666   3.963   1.639  0.00  0.00    +0.210 C 
ENDBRANCH   1  10
BRANCH   1  13
ATOM     13  C   LIG    1        2.633   1.616  -0.495  0.00  0.00    +0.300 C 
BRANCH  13  14
ATOM     14  N   LIG    1        2.814   1.152  -1.873  0.00  0.00    -0.690 NA
ATOM     15  H   LIG    1        3.552   1.488  -2.405  0.00  0.00    +0.430 HD
BRANCH  14  16
ATOM     16  C   LIG    1        1.937   0.240  -2.411  0.00  0.00    +0.740 C 
BRANCH  16  17
ATOM     17  N   LIG    1        0.945  -0.212  -1.696  0.00  0.00    -0.770 NA
ATOM     18  H   LIG    1        0.826   0.096  -0.784  0.00  0.00    +0.440 HD
ATOM     19  H   LIG    1        0.327  -0.855  -2.076  0.00  0.00    +0.440 HD
ENDBRANCH  16  17
BRANCH  16  20
ATOM     20  N   LIG    1        2.110  -0.201  -3.702  0.00  0.00    -0.670 NA
ATOM     21  H   LIG    1        2.848   0.135  -4.234  0.00  0.00    +0.440 HD
BRANCH  20  22
ATOM     22  C   LIG    1        1.179  -1.177  -4.274  0.00  0.00    +0.170 C 
ATOM     23  C   LIG    1        1.775  -2.331  -5.083  0.00  0.00    +0.060 C 
ATOM     24  C   LIG    1        1.028  -1.202  -5.796  0.00  0.00    +0.070 C 
ENDBRANCH  20  22
ENDBRANCH  16  20
ENDBRANCH  14  16
ENDBRANCH  13  14
ENDBRANCH   1  13
TORSDOF 9
