REMARK  Name = ZINCqH0000008WMi.2
REMARK                            x       y       z     vdW  Elec       q    Type
REMARK                         _______ _______ _______ _____ _____    ______ ____
ROOT
ATOM      1  N   LIG    1        0.089   1.395  -0.126  0.00  0.00    -0.500 NA
ENDROOT
BRANCH   1   3
ATOM      2  C   LIG    1        0.705  -0.669  -1.291  0.00  0.00    -0.010 C 
ATOM      3  C   LIG    1        0.624   0.040   0.062  0.00  0.00    +0.200 C 
BRANCH   3   4
ATOM      4  C   LIG    1       -0.299  -0.746   0.996  0.00  0.00    -0.010 C 
ATOM      5  C   LIG    1        0.282  -1.219   2.330  0.00  0.00    +0.010 C 
ATOM      6  C   LIG    1        0.013  -2.228   1.213  0.00  0.00    -0.010 C 
ENDBRANCH   3   4
ENDBRANCH   1   3
BRANCH   1   7
ATOM      7  C   LIG    1        1.152   2.331  -0.518  0.00  0.00    +0.280 C 
BRANCH   7   8
ATOM      8  C   LIG    1        1.988   2.675   0.687  0.00  0.00    +0.390 A 
ATOM      9  N   LIG    1        1.637   2.189   1.839  0.00  0.00    -0.470 NA
ATOM     10  C   LIG    1        2.344   2.452   2.967  0.00  0.00    +0.150 A 
ATOM     11  C   LIG    1        1.970   1.926   4.205  0.00  0.00    +0.030 A 
ATOM     12  C   LIG    1        2.715   2.223   5.325  0.00  0.00    +0.060 A 
ATOM     13  C   LIG    1        3.833   3.041   5.239  0.00  0.00    -0.010 A 
ATOM     14  C   LIG    1        4.223   3.571   4.028  0.00  0.00    +0.100 A 
ATOM     15  C   LIG    1        3.484   3.283   2.884  0.00  0.00    -0.200 A 
ATOM     16  C   LIG    1        3.850   3.821   1.565  0.00  0.00    +0.550 A 
ATOM     17  O   LIG    1        4.820   4.543   1.424  0.00  0.00    -0.510 OA
ATOM     18  N   LIG    1        3.068   3.482   0.514  0.00  0.00    -0.550 N 
ATOM     19  C   LIG    1        3.387   3.990  -0.822  0.00  0.00    +0.320 C 
ENDBRANCH   7   8
ENDBRANCH   1   7
BRANCH   1  20
ATOM     20  C   LIG    1       -1.003   1.399  -1.108  0.00  0.00    +0.220 C 
BRANCH  20  21
ATOM     21  C   LIG    1       -2.228   0.766  -0.499  0.00  0.00    -0.070 A 
ATOM     22  C   LIG    1       -2.519  -0.561  -0.754  0.00  0.00    +0.010 A 
ATOM     23  C   LIG    1       -3.640  -1.143  -0.191  0.00  0.00    +0.000 A 
ATOM     24  C   LIG    1       -4.475  -0.394   0.618  0.00  0.00    +0.000 A 
ATOM     25  C   LIG    1       -4.186   0.934   0.868  0.00  0.00    +0.000 A 
ATOM     26  C   LIG    1       -3.063   1.514   0.310  0.00  0.00    +0.030 A 
ENDBRANCH  20  21
ENDBRANCH   1  20
TORSDOF 6
