REMARK  Name = ZINCnE000001SgQe.0
REMARK                            x       y       z     vdW  Elec       q    Type
REMARK                         _______ _______ _______ _____ _____    ______ ____
ROOT
ATOM      1  O   LIG    1       -5.163   1.055   0.132  0.00  0.00    -0.520 OA
ATOM      2  C   LIG    1       -4.380   0.129   0.124  0.00  0.00    +0.510 C 
ATOM      3  N   LIG    1       -3.057   0.366   0.018  0.00  0.00    -0.670 N 
ATOM      4  H   LIG    1       -2.437  -0.374  -0.069  0.00  0.00    +0.410 HD
ENDROOT
BRANCH   3   5
ATOM      5  C   LIG    1       -2.579   1.680   0.033  0.00  0.00    +0.200 A 
ATOM      6  C   LIG    1       -1.354   1.992  -0.571  0.00  0.00    -0.140 A 
ATOM      7  C   LIG    1       -0.345   1.210  -1.289  0.00  0.00    -0.060 A 
ATOM      8  C   LIG    1        0.628   2.061  -1.648  0.00  0.00    +0.220 A 
ATOM      9  N   LIG    1        0.327   3.324  -1.214  0.00  0.00    -0.600 N 
ATOM     10  H   LIG    1        0.880   4.109  -1.355  0.00  0.00    +0.420 HD
ATOM     11  C   LIG    1       -0.878   3.315  -0.548  0.00  0.00    +0.120 A 
ATOM     12  C   LIG    1       -1.632   4.303   0.078  0.00  0.00    -0.040 A 
ATOM     13  C   LIG    1       -2.838   3.985   0.663  0.00  0.00    +0.060 A 
ATOM     14  C   LIG    1       -3.312   2.681   0.646  0.00  0.00    -0.010 A 
ENDBRANCH   3   5
BRANCH   2  15
ATOM     15  C   LIG    1       -4.885  -1.286   0.233  0.00  0.00    +0.070 C 
BRANCH  15  16
ATOM     16  C   LIG    1       -6.411  -1.276   0.341  0.00  0.00    +0.100 C 
BRANCH  16  17
ATOM     17  C   LIG    1       -6.917  -2.692   0.450  0.00  0.00    -0.100 A 
ATOM     18  C   LIG    1       -7.238  -3.398  -0.696  0.00  0.00    -0.020 A 
ATOM     19  C   LIG    1       -7.696  -4.696  -0.604  0.00  0.00    +0.050 A 
ATOM     20  C   LIG    1       -7.846  -5.293   0.650  0.00  0.00    -0.130 A 
ATOM     21  C   LIG    1       -7.525  -4.572   1.803  0.00  0.00    +0.050 A 
ATOM     22  C   LIG    1       -7.062  -3.277   1.696  0.00  0.00    -0.020 A 
BRANCH  20  23
ATOM     23  C   LIG    1       -8.341  -6.679   0.757  0.00  0.00    +0.520 C 
ATOM     24  O   LIG    1       -8.621  -7.307  -0.254  0.00  0.00    -0.690 OA
ATOM     25  O   LIG    1       -8.472  -7.198   1.856  0.00  0.00    -0.690 OA
ENDBRANCH  20  23
ENDBRANCH  16  17
ENDBRANCH  15  16
ENDBRANCH   2  15
TORSDOF 5
