REMARK  Name = ZINCrH000004oSlh.0
REMARK                            x       y       z     vdW  Elec       q    Type
REMARK                         _______ _______ _______ _____ _____    ______ ____
ROOT
ATOM      1  C   LIG    1        2.040   2.820  -4.190  0.00  0.00    +0.060 C 
ATOM      2  C   LIG    1        3.455   2.526  -3.686  0.00  0.00    +0.170 C 
ATOM      3  O   LIG    1        4.255   1.982  -4.751  0.00  0.00    -0.360 OA
ATOM      4  C   LIG    1        5.162   1.030  -4.154  0.00  0.00    +0.210 C 
ATOM      5  C   LIG    1        4.289   0.314  -3.090  0.00  0.00    -0.010 C 
ATOM      6  C   LIG    1        3.404   1.468  -2.574  0.00  0.00    +0.080 C 
ATOM      7  C   LIG    1        3.985   2.030  -1.279  0.00  0.00    +0.260 C 
ATOM      8  N   LIG    1        3.777   1.041  -0.208  0.00  0.00    -0.630 N 
ATOM      9  C   LIG    1        2.428   0.476  -0.045  0.00  0.00    +0.290 C 
ATOM     10  C   LIG    1        1.945  -0.034  -1.407  0.00  0.00    +0.210 C 
ATOM     11  C   LIG    1        4.790   0.664   0.597  0.00  0.00    +0.710 C 
ATOM     12  N   LIG    1        6.038   1.118   0.367  0.00  0.00    -0.650 N 
ATOM     13  H   LIG    1        6.195   1.773  -0.332  0.00  0.00    +0.410 HD
ATOM     14  O   LIG    1        4.578  -0.085   1.531  0.00  0.00    -0.520 OA
ATOM     15  O   LIG    1        2.071   1.013  -2.374  0.00  0.00    -0.350 OA
ENDROOT
BRANCH  12  16
ATOM     16  C   LIG    1        7.101   0.647   1.129  0.00  0.00    +0.290 A 
ATOM     17  N   LIG    1        7.002  -0.223   2.080  0.00  0.00    -0.470 NA
ATOM     18  C   LIG    1        8.114  -0.570   2.716  0.00  0.00    +0.100 A 
ATOM     19  C   LIG    1        9.207   0.060   2.255  0.00  0.00    -0.240 A 
ATOM     20  C   LIG    1       10.610  -0.130   2.782  0.00  0.00    +0.130 C 
ATOM     21  C   LIG    1       10.530  -0.821   4.147  0.00  0.00    +0.010 C 
ATOM     22  C   LIG    1        9.613  -2.043   4.035  0.00  0.00    +0.030 C 
ATOM     23  C   LIG    1        8.166  -1.578   3.855  0.00  0.00    +0.130 C 
ATOM     24  S   LIG    1        8.729   1.129   0.942  0.00  0.00    +0.120 S 
BRANCH  21  25
ATOM     25  C   LIG    1       11.928  -1.269   4.578  0.00  0.00    -0.060 C 
ATOM     26  C   LIG    1       11.844  -1.969   5.936  0.00  0.00    +0.030 C 
ATOM     27  C   LIG    1       12.843  -0.047   4.690  0.00  0.00    +0.030 C 
ATOM     28  C   LIG    1       12.496  -2.237   3.539  0.00  0.00    +0.030 C 
ENDBRANCH  21  25
ENDBRANCH  12  16
TORSDOF 2
