REMARK  Name = ZINCpe00000I2zGs.0
REMARK                            x       y       z     vdW  Elec       q    Type
REMARK                         _______ _______ _______ _____ _____    ______ ____
ROOT
ATOM      1  C   LIG    1       -0.749   3.596   0.107  0.00  0.00    +0.410 A 
ATOM      2  N   LIG    1       -1.036   2.317   0.180  0.00  0.00    -0.330 NA
ATOM      3  N   LIG    1       -0.017   1.365   0.238  0.00  0.00    -0.270 N 
ATOM      4  C   LIG    1        1.298   1.761   0.229  0.00  0.00    +0.120 A 
ATOM      5  C   LIG    1        1.604   3.132   0.156  0.00  0.00    +0.200 A 
ATOM      6  N   LIG    1        2.035   0.661   0.298  0.00  0.00    -0.240 NA
ATOM      7  N   LIG    1        1.268  -0.371   0.348  0.00  0.00    -0.240 NA
ATOM      8  C   LIG    1        0.002   0.004   0.315  0.00  0.00    +0.250 A 
ATOM      9  C   LIG    1        0.589   4.035   0.096  0.00  0.00    -0.020 A 
ENDROOT
BRANCH   8  10
ATOM     10  C   LIG    1       -1.176  -0.887   0.353  0.00  0.00    +0.000 A 
ATOM     11  C   LIG    1       -2.441  -0.365   0.630  0.00  0.00    +0.060 A 
ATOM     12  C   LIG    1       -3.539  -1.201   0.659  0.00  0.00    +0.050 A 
ATOM     13  C   LIG    1       -3.388  -2.556   0.425  0.00  0.00    +0.000 A 
ATOM     14  C   LIG    1       -2.134  -3.083   0.155  0.00  0.00    +0.100 A 
ATOM     15  F   LIG    1       -1.994  -4.407  -0.072  0.00  0.00    -0.130 F 
ATOM     16  C   LIG    1       -1.028  -2.255   0.118  0.00  0.00    +0.040 A 
ENDBRANCH   8  10
BRANCH   1  17
ATOM     17  N   LIG    1       -1.779   4.529   0.044  0.00  0.00    -0.680 N 
ATOM     18  H   LIG    1       -1.574   5.475  -0.007  0.00  0.00    +0.430 HD
BRANCH  17  27
ATOM     19  O   LIG    1       -4.106   2.612   1.661  0.00  0.00    -0.520 OA
ATOM     20  C   LIG    1       -3.571   3.682   1.460  0.00  0.00    +0.510 C 
ATOM     21  N   LIG    1       -3.331   4.514   2.481  0.00  0.00    -0.720 N 
ATOM     22  H   LIG    1       -3.587   4.263   3.382  0.00  0.00    +0.400 HD
ATOM     23  C   LIG    1       -2.678   5.810   2.235  0.00  0.00    +0.250 C 
ATOM     24  C   LIG    1       -3.659   6.717   1.487  0.00  0.00    +0.220 C 
ATOM     25  O   LIG    1       -3.605   6.465   0.093  0.00  0.00    -0.380 OA
ATOM     26  C   LIG    1       -4.087   5.226  -0.399  0.00  0.00    +0.260 C 
ATOM     27  C   LIG    1       -3.174   4.081   0.054  0.00  0.00    +0.230 C 
ENDBRANCH  17  27
ENDBRANCH   1  17
TORSDOF 3
