REMARK  Name = ZINCqH00000061N8.0
REMARK                            x       y       z     vdW  Elec       q    Type
REMARK                         _______ _______ _______ _____ _____    ______ ____
ROOT
ATOM      1  N   LIG    1        1.383   2.753   2.003  0.00  0.00    -0.530 NA
ATOM      2  C   LIG    1        2.247   1.902   2.831  0.00  0.00    +0.170 C 
ATOM      3  C   LIG    1        2.422   2.540   4.211  0.00  0.00    +0.050 C 
ATOM      4  C   LIG    1        3.044   3.929   4.051  0.00  0.00    -0.040 C 
ATOM      5  C   LIG    1        2.149   4.780   3.146  0.00  0.00    +0.060 C 
ATOM      6  C   LIG    1        1.982   4.078   1.797  0.00  0.00    +0.190 C 
ENDROOT
BRANCH   4   7
ATOM      7  C   LIG    1        3.164   4.586   5.402  0.00  0.00    +0.400 C 
ATOM      8  O   LIG    1        2.252   5.261   5.831  0.00  0.00    -0.440 OA
BRANCH   7   9
ATOM      9  C   LIG    1        4.387   4.409   6.202  0.00  0.00    -0.180 A 
ATOM     10  C   LIG    1        5.387   3.532   5.770  0.00  0.00    +0.070 A 
ATOM     11  C   LIG    1        6.530   3.371   6.525  0.00  0.00    -0.010 A 
ATOM     12  C   LIG    1        6.688   4.074   7.706  0.00  0.00    -0.050 A 
ATOM     13  C   LIG    1        5.703   4.944   8.140  0.00  0.00    -0.010 A 
ATOM     14  C   LIG    1        7.941   3.892   8.524  0.00  0.00    +0.100 C 
ATOM     15  C   LIG    1        4.557   5.120   7.394  0.00  0.00    -0.020 A 
ATOM     16  C   LIG    1        3.488   6.072   7.865  0.00  0.00    +0.110 C 
ENDBRANCH   7   9
ENDBRANCH   4   7
BRANCH   1  17
ATOM     17  C   LIG    1        1.080   2.106   0.720  0.00  0.00    +0.320 C 
BRANCH  17  19
ATOM     18  C   LIG    1       -0.563   0.203   1.187  0.00  0.00    -0.210 A 
ATOM     19  C   LIG    1        0.700   0.668   0.960  0.00  0.00    +0.090 A 
ATOM     20  O   LIG    1        1.542  -0.369   0.985  0.00  0.00    -0.170 OA
ATOM     21  C   LIG    1        0.884  -1.515   1.222  0.00  0.00    +0.180 A 
ATOM     22  C   LIG    1       -0.424  -1.251   1.360  0.00  0.00    -0.010 A 
BRANCH  18  23
ATOM     23  C   LIG    1       -1.806   0.991   1.241  0.00  0.00    +0.540 C 
ATOM     24  O   LIG    1       -1.769   2.195   1.079  0.00  0.00    -0.490 OA
BRANCH  23  26
ATOM     25  C   LIG    1       -4.167   1.218   1.512  0.00  0.00    +0.270 C 
ATOM     26  O   LIG    1       -2.983   0.378   1.472  0.00  0.00    -0.350 OA
ENDBRANCH  23  26
ENDBRANCH  18  23
ENDBRANCH  17  19
ENDBRANCH   1  17
TORSDOF 6
