REMARK  Name = ZINCqH0000007eJ4.0
REMARK                            x       y       z     vdW  Elec       q    Type
REMARK                         _______ _______ _______ _____ _____    ______ ____
ROOT
ATOM      1  C   LIG    1        0.090  -2.831  -0.086  0.00  0.00    +0.570 C 
ATOM      2  N   LIG    1       -0.027  -4.160  -0.276  0.00  0.00    -0.600 N 
ATOM      3  C   LIG    1        0.442  -4.765  -1.525  0.00  0.00    +0.280 C 
ATOM      4  O   LIG    1       -0.228  -2.339   0.980  0.00  0.00    -0.510 OA
ENDROOT
BRANCH   1  11
ATOM      5  C   LIG    1       -0.066  -0.787  -1.506  0.00  0.00    +0.180 A 
ATOM      6  C   LIG    1        0.421   0.010  -2.531  0.00  0.00    -0.050 A 
ATOM      7  C   LIG    1        1.565  -0.358  -3.211  0.00  0.00    +0.100 A 
ATOM      8  C   LIG    1        2.229  -1.530  -2.882  0.00  0.00    -0.080 A 
ATOM      9  C   LIG    1        1.755  -2.337  -1.869  0.00  0.00    +0.110 A 
ATOM     10 CL   LIG    1        3.663  -1.983  -3.750  0.00  0.00    -0.060 Cl
ATOM     11  C   LIG    1        0.602  -1.972  -1.171  0.00  0.00    -0.160 A 
BRANCH   5  13
ATOM     12  C   LIG    1       -1.814   0.798  -1.232  0.00  0.00    +0.250 C 
ATOM     13  O   LIG    1       -1.187  -0.423  -0.835  0.00  0.00    -0.290 OA
ENDBRANCH   5  13
ENDBRANCH   1  11
BRANCH   2  14
ATOM     14  C   LIG    1       -0.622  -5.000   0.767  0.00  0.00    +0.290 C 
ATOM     15  C   LIG    1       -1.754  -5.834   0.165  0.00  0.00    +0.050 C 
BRANCH  14  16
ATOM     16  C   LIG    1        0.431  -5.916   1.335  0.00  0.00    -0.100 A 
ATOM     17  C   LIG    1        0.638  -5.966   2.701  0.00  0.00    +0.060 A 
ATOM     18  C   LIG    1        1.599  -6.809   3.225  0.00  0.00    +0.000 A 
ATOM     19  C   LIG    1        2.363  -7.599   2.378  0.00  0.00    +0.150 A 
ATOM     20  C   LIG    1        2.157  -7.543   1.007  0.00  0.00    +0.030 A 
ATOM     21  C   LIG    1        1.191  -6.702   0.489  0.00  0.00    +0.050 A 
BRANCH  19  22
ATOM     22  N   LIG    1        3.342  -8.452   2.907  0.00  0.00    -0.330 N 
ATOM     23  C   LIG    1        3.660  -8.610   4.207  0.00  0.00    +0.480 A 
ATOM     24  N   LIG    1        4.619  -9.496   4.285  0.00  0.00    -0.540 NA
ATOM     25  C   LIG    1        4.945  -9.918   3.063  0.00  0.00    +0.430 A 
ATOM     26  N   LIG    1        4.191  -9.308   2.187  0.00  0.00    -0.310 NA
ENDBRANCH  19  22
ENDBRANCH  14  16
ENDBRANCH   2  14
TORSDOF 5
