REMARK  Name = ZINCrD0000070Yqk.0
REMARK                            x       y       z     vdW  Elec       q    Type
REMARK                         _______ _______ _______ _____ _____    ______ ____
ROOT
ATOM      1  N   LIG    1        3.093  -1.962   4.386  0.00  0.00    -0.530 NA
ATOM      2  C   LIG    1        1.907  -2.442   3.664  0.00  0.00    +0.170 C 
ATOM      3  C   LIG    1        2.350  -3.191   2.402  0.00  0.00    +0.310 C 
ATOM      4  N   LIG    1        3.238  -2.312   1.625  0.00  0.00    -1.000 NA
ATOM      5  C   LIG    1        4.376  -1.687   2.316  0.00  0.00    +0.310 C 
ATOM      6  C   LIG    1        3.850  -0.993   3.582  0.00  0.00    +0.170 C 
ENDROOT
BRANCH   4   7
ATOM      7  S   LIG    1        2.966  -2.040   0.015  0.00  0.00    +2.710 S 
ATOM      8  O   LIG    1        4.215  -1.654  -0.543  0.00  0.00    -0.950 OA
ATOM      9  O   LIG    1        2.213  -3.148  -0.458  0.00  0.00    -0.950 OA
BRANCH   7  10
ATOM     10  C   LIG    1        1.912  -0.633  -0.106  0.00  0.00    -0.800 A 
ATOM     11  C   LIG    1        2.325   0.632  -0.195  0.00  0.00    +0.160 A 
ATOM     12  C   LIG    1        1.313   1.572  -0.281  0.00  0.00    -0.010 A 
ATOM     13  C   LIG    1        0.077   1.070  -0.261  0.00  0.00    +0.000 A 
ATOM     14  S   LIG    1        0.154  -0.682  -0.127  0.00  0.00    +0.210 S 
ENDBRANCH   7  10
ENDBRANCH   4   7
BRANCH   1  15
ATOM     15  C   LIG    1        2.721  -1.389   5.687  0.00  0.00    +0.230 C 
BRANCH  15  20
ATOM     16  C   LIG    1        5.943  -1.126   7.658  0.00  0.00    -0.160 A 
ATOM     17  C   LIG    1        6.199   0.247   7.578  0.00  0.00    -0.040 A 
ATOM     18  C   LIG    1        5.330   1.067   6.891  0.00  0.00    +0.000 A 
ATOM     19  C   LIG    1        4.207   0.536   6.280  0.00  0.00    -0.060 A 
ATOM     20  C   LIG    1        3.947  -0.822   6.355  0.00  0.00    -0.090 A 
ATOM     21  C   LIG    1        3.263   1.440   5.531  0.00  0.00    +0.080 C 
ATOM     22  C   LIG    1        7.421   0.827   8.242  0.00  0.00    +0.100 C 
ATOM     23  C   LIG    1        4.804  -1.654   7.043  0.00  0.00    -0.020 A 
ATOM     24  C   LIG    1        4.516  -3.131   7.127  0.00  0.00    +0.100 C 
BRANCH  16  26
ATOM     25  C   LIG    1        8.081  -2.569   7.697  0.00  0.00    +0.070 C 
ATOM     26  C   LIG    1        6.865  -2.009   8.390  0.00  0.00    +0.410 C 
ATOM     27  O   LIG    1        6.647  -2.286   9.550  0.00  0.00    -0.450 OA
ENDBRANCH  16  26
ENDBRANCH  15  20
ENDBRANCH   1  15
TORSDOF 5
