REMARK  Name = ZINCqH0000006MAw.0
REMARK                            x       y       z     vdW  Elec       q    Type
REMARK                         _______ _______ _______ _____ _____    ______ ____
ROOT
ATOM      1  C   LIG    1       -2.610   3.892   0.067  0.00  0.00    +0.360 C 
ENDROOT
BRANCH   1   4
ATOM      2  C   LIG    1        0.951   2.631   0.107  0.00  0.00    +0.120 A 
ATOM      3  C   LIG    1       -0.141   3.482   0.078  0.00  0.00    -0.020 A 
ATOM      4  C   LIG    1       -1.423   2.964   0.100  0.00  0.00    -0.100 A 
ATOM      5  C   LIG    1       -1.618   1.597   0.145  0.00  0.00    +0.030 A 
ATOM      6  C   LIG    1       -0.532   0.741   0.180  0.00  0.00    -0.010 A 
ATOM      7  C   LIG    1        0.754   1.254   0.159  0.00  0.00    +0.090 A 
BRANCH   2   9
ATOM      8  C   LIG    1        2.338   4.561   0.033  0.00  0.00    +0.250 C 
ATOM      9  O   LIG    1        2.212   3.139   0.087  0.00  0.00    -0.300 OA
ENDBRANCH   2   9
BRANCH   7  10
ATOM     10  O   LIG    1        1.823   0.413   0.189  0.00  0.00    -0.310 OA
BRANCH  10  11
ATOM     11  C   LIG    1        1.546  -0.987   0.242  0.00  0.00    +0.600 C 
ATOM     12  F   LIG    1        0.807  -1.359  -0.886  0.00  0.00    -0.200 F 
ATOM     13  F   LIG    1        0.811  -1.274   1.397  0.00  0.00    -0.200 F 
ENDBRANCH  10  11
ENDBRANCH   7  10
ENDBRANCH   1   4
BRANCH   1  14
ATOM     14  N   LIG    1       -2.941   4.212  -1.324  0.00  0.00    -0.560 N 
BRANCH  14  15
ATOM     15  C   LIG    1       -3.747   3.353  -2.062  0.00  0.00    +0.450 A 
ATOM     16  C   LIG    1       -4.401   2.304  -1.424  0.00  0.00    -0.090 A 
ATOM     17  C   LIG    1       -5.200   1.456  -2.171  0.00  0.00    +0.190 A 
ATOM     18  C   LIG    1       -5.317   1.687  -3.535  0.00  0.00    -0.160 A 
ATOM     19  C   LIG    1       -4.639   2.748  -4.103  0.00  0.00    +0.420 A 
ATOM     20  N   LIG    1       -3.888   3.543  -3.365  0.00  0.00    -0.520 NA
BRANCH  18  21
ATOM     21  N   LIG    1       -6.161   0.805  -4.372  0.00  0.00    +0.040 N 
ATOM     22  O   LIG    1       -6.259   1.013  -5.569  0.00  0.00    -0.170 OA
ATOM     23  O   LIG    1       -6.756  -0.129  -3.866  0.00  0.00    -0.170 OA
ENDBRANCH  18  21
ENDBRANCH  14  15
BRANCH  14  24
ATOM     24  C   LIG    1       -2.424   5.438  -1.937  0.00  0.00    +0.230 C 
ATOM     25  C   LIG    1       -1.427   6.268  -1.124  0.00  0.00    +0.020 C 
ATOM     26  C   LIG    1       -2.858   6.772  -1.325  0.00  0.00    +0.020 C 
ENDBRANCH  14  24
ENDBRANCH   1  14
TORSDOF 8
