REMARK  Name = ZINCkj000005jKIX.0
REMARK                            x       y       z     vdW  Elec       q    Type
REMARK                         _______ _______ _______ _____ _____    ______ ____
ROOT
ATOM      1  N   LIG    1       -1.322  -1.451   1.577  0.00  0.00    -0.500 N 
ATOM      2  H   LIG    1       -1.469  -0.604   2.104  0.00  0.00    +0.430 HD
ATOM      3  H   LIG    1       -0.539  -1.957   1.964  0.00  0.00    +0.430 HD
ENDROOT
BRANCH   1   5
ATOM      4  C   LIG    1       -2.263  -3.625   0.955  0.00  0.00    +0.120 C 
ATOM      5  C   LIG    1       -2.528  -2.287   1.648  0.00  0.00    +0.170 C 
BRANCH   5   6
ATOM      6  C   LIG    1       -2.885  -2.531   3.092  0.00  0.00    +0.510 C 
ATOM      7  N   LIG    1       -4.168  -2.757   3.440  0.00  0.00    -0.600 N 
ATOM      8  C   LIG    1       -5.297  -2.895   2.508  0.00  0.00    +0.240 C 
ATOM      9  C   LIG    1       -6.566  -3.118   3.357  0.00  0.00    +0.050 C 
ATOM     10  C   LIG    1       -6.171  -2.520   4.733  0.00  0.00    +0.040 C 
ATOM     11  C   LIG    1       -4.671  -2.900   4.818  0.00  0.00    +0.270 C 
ATOM     12  O   LIG    1       -2.019  -2.525   3.940  0.00  0.00    -0.520 OA
ENDBRANCH   5   6
ENDBRANCH   1   5
BRANCH   1  13
ATOM     13  C   LIG    1       -1.043  -1.114   0.175  0.00  0.00    +0.370 C 
BRANCH  13  14
ATOM     14  C   LIG    1        0.194  -0.257   0.101  0.00  0.00    -0.320 A 
ATOM     15  C   LIG    1        1.473  -0.697   0.160  0.00  0.00    +0.170 A 
ATOM     16  N   LIG    1        2.283   0.378   0.060  0.00  0.00    -0.350 N 
ATOM     17  N   LIG    1        1.476   1.516  -0.063  0.00  0.00    -0.270 NA
ATOM     18  C   LIG    1        3.747   0.358   0.079  0.00  0.00    +0.380 C 
ATOM     19  C   LIG    1        0.224   1.135  -0.039  0.00  0.00    +0.270 A 
BRANCH  15  20
ATOM     20  C   LIG    1        1.913  -2.130   0.310  0.00  0.00    -0.010 C 
ATOM     21  C   LIG    1        3.013  -2.633  -0.626  0.00  0.00    +0.050 C 
ATOM     22  C   LIG    1        1.568  -3.097  -0.824  0.00  0.00    +0.050 C 
ENDBRANCH  15  20
ENDBRANCH  13  14
ENDBRANCH   1  13
TORSDOF 5
