REMARK  Name = ZINCpk000004AOQy.0
REMARK                            x       y       z     vdW  Elec       q    Type
REMARK                         _______ _______ _______ _____ _____    ______ ____
ROOT
ATOM      1  C   LIG    1        5.986   2.082  -0.738  0.00  0.00    +0.520 C 
ATOM      2  N   LIG    1        6.095   3.424  -0.785  0.00  0.00    -0.720 N 
ATOM      3  H   LIG    1        5.306   3.970  -0.930  0.00  0.00    +0.410 HD
ATOM      4  O   LIG    1        6.972   1.399  -0.557  0.00  0.00    -0.520 OA
ENDROOT
BRANCH   2   5
ATOM      5  C   LIG    1        7.404   4.059  -0.618  0.00  0.00    +0.290 C 
ATOM      6  C   LIG    1        7.412   5.366  -1.392  0.00  0.00    +0.090 C 
ATOM      7  C   LIG    1        8.802   6.009  -1.277  0.00  0.00    -0.300 C 
ATOM      8  S   LIG    1        8.970   6.613   0.429  0.00  0.00    +2.490 S 
ATOM      9  C   LIG    1        8.361   5.275   1.407  0.00  0.00    -0.630 A 
ATOM     10  C   LIG    1        8.582   5.319   2.776  0.00  0.00    +0.110 A 
ATOM     11  C   LIG    1        8.102   4.320   3.598  0.00  0.00    +0.010 A 
ATOM     12  C   LIG    1        7.397   3.267   3.046  0.00  0.00    +0.060 A 
ATOM     13  C   LIG    1        7.187   3.219   1.686  0.00  0.00    +0.010 A 
ATOM     14  O   LIG    1       10.340   6.719   0.790  0.00  0.00    -0.930 OA
ATOM     15  O   LIG    1        8.059   7.675   0.677  0.00  0.00    -0.930 OA
ATOM     16  C   LIG    1        7.674   4.221   0.849  0.00  0.00    -0.020 A 
ENDBRANCH   2   5
BRANCH   1  22
ATOM     17  C   LIG    1        1.251   1.829  -0.000  0.00  0.00    +0.550 C 
ATOM     18  N   LIG    1        2.426   1.174   0.087  0.00  0.00    -0.610 N 
ATOM     19  C   LIG    1        2.466  -0.295   0.086  0.00  0.00    +0.260 C 
ATOM     20  C   LIG    1        3.429  -0.757  -1.018  0.00  0.00    +0.010 C 
ATOM     21  C   LIG    1        4.791  -0.091  -0.811  0.00  0.00    +0.050 C 
ATOM     22  C   LIG    1        4.639   1.429  -0.910  0.00  0.00    -0.010 C 
ATOM     23  C   LIG    1        3.690   1.915   0.190  0.00  0.00    +0.290 C 
ATOM     24  O   LIG    1        1.236   3.041  -0.089  0.00  0.00    -0.540 OA
BRANCH  17  26
ATOM     25  C   LIG    1       -1.173   1.726   0.022  0.00  0.00    +0.160 C 
ATOM     26  C   LIG    1       -0.013   1.076   0.013  0.00  0.00    -0.090 C 
ENDBRANCH  17  26
ENDBRANCH   1  22
TORSDOF 3
