REMARK  Name = ZINCAx0000000ang.0
REMARK                            x       y       z     vdW  Elec       q    Type
REMARK                         _______ _______ _______ _____ _____    ______ ____
ROOT
ATOM      1  N   LIG    1        4.270   5.333  -0.069  0.00  0.00    -0.560 N 
ATOM      2  C   LIG    1        3.774   6.499  -0.497  0.00  0.00    +0.710 C 
ATOM      3  N   LIG    1        2.510   6.702  -0.086  0.00  0.00    -0.710 N 
ATOM      4  H   LIG    1        1.954   7.473  -0.279  0.00  0.00    +0.440 HD
ATOM      5  C   LIG    1        2.131   5.522   0.710  0.00  0.00    +0.170 C 
ATOM      6  C   LIG    1        0.946   4.797   0.069  0.00  0.00    +0.110 C 
ATOM      7  O   LIG    1        4.397   7.288  -1.181  0.00  0.00    -0.530 OA
ATOM      8  C   LIG    1        3.372   4.652   0.670  0.00  0.00    +0.540 C 
ATOM      9  O   LIG    1        3.525   3.570   1.194  0.00  0.00    -0.450 OA
ENDROOT
BRANCH   5  10
ATOM     10  C   LIG    1        1.808   5.919   2.127  0.00  0.00    -0.090 A 
ATOM     11  C   LIG    1        2.055   5.039   3.163  0.00  0.00    +0.050 A 
ATOM     12  C   LIG    1        1.766   5.399   4.468  0.00  0.00    +0.030 A 
ATOM     13  C   LIG    1        1.217   6.643   4.731  0.00  0.00    +0.080 A 
ATOM     14  O   LIG    1        0.922   7.009   6.012  0.00  0.00    -0.320 OA
ATOM     15  C   LIG    1        1.724   8.056   6.562  0.00  0.00    +0.230 C 
ATOM     16  C   LIG    1        1.178   9.419   6.165  0.00  0.00    -0.010 C 
ATOM     17  C   LIG    1        1.260   9.661   4.667  0.00  0.00    +0.230 C 
ATOM     18  O   LIG    1        0.420   8.747   3.959  0.00  0.00    -0.320 OA
ATOM     19  C   LIG    1        0.963   7.524   3.689  0.00  0.00    +0.070 A 
ATOM     20  C   LIG    1        1.259   7.163   2.386  0.00  0.00    +0.050 A 
ENDBRANCH   5  10
BRANCH   1  21
ATOM     21  C   LIG    1        5.623   4.854  -0.367  0.00  0.00    +0.360 C 
BRANCH  21  24
ATOM     22  N   LIG    1        6.741   3.511  -2.117  0.00  0.00    -0.670 N 
ATOM     23  H   LIG    1        7.586   3.695  -1.676  0.00  0.00    +0.420 HD
ATOM     24  C   LIG    1        5.602   4.054  -1.643  0.00  0.00    +0.500 C 
ATOM     25  O   LIG    1        4.561   3.898  -2.245  0.00  0.00    -0.500 OA
BRANCH  22  30
ATOM     26  C   LIG    1        5.780   2.116  -5.391  0.00  0.00    -0.120 A 
ATOM     27  C   LIG    1        6.650   1.027  -5.473  0.00  0.00    +0.020 A 
ATOM     28  C   LIG    1        7.537   0.774  -4.446  0.00  0.00    +0.030 A 
ATOM     29  C   LIG    1        7.572   1.599  -3.337  0.00  0.00    +0.010 A 
ATOM     30  C   LIG    1        6.706   2.682  -3.244  0.00  0.00    +0.140 A 
ATOM     31  C   LIG    1        5.811   2.945  -4.269  0.00  0.00    +0.090 A 
BRANCH  26  33
ATOM     32  N   LIG    1        5.126   2.012  -7.748  0.00  0.00    -0.610 N 
ATOM     33  C   LIG    1        4.829   2.390  -6.489  0.00  0.00    +0.560 C 
ATOM     34  O   LIG    1        3.778   2.956  -6.257  0.00  0.00    -0.520 OA
BRANCH  32  36
ATOM     35  C   LIG    1        4.363   3.585  -9.458  0.00  0.00    +0.020 C 
ATOM     36  C   LIG    1        4.150   2.210  -8.823  0.00  0.00    +0.270 C 
ENDBRANCH  32  36
BRANCH  32  37
ATOM     37  C   LIG    1        6.426   1.403  -8.042  0.00  0.00    +0.260 C 
ATOM     38  C   LIG    1        6.239  -0.090  -8.319  0.00  0.00    +0.020 C 
ENDBRANCH  32  37
ENDBRANCH  26  33
ENDBRANCH  22  30
ENDBRANCH  21  24
ENDBRANCH   1  21
TORSDOF 7
