REMARK  Name = ZINCrD0000073ni1.0
REMARK                            x       y       z     vdW  Elec       q    Type
REMARK                         _______ _______ _______ _____ _____    ______ ____
ROOT
ATOM      1  C   LIG    1       -3.605   1.963   0.030  0.00  0.00    +0.520 C 
ATOM      2  N   LIG    1       -4.843   1.431   0.033  0.00  0.00    -0.610 N 
ATOM      3  C   LIG    1       -5.032  -0.026   0.020  0.00  0.00    +0.270 C 
ATOM      4  C   LIG    1       -5.943  -0.411   1.195  0.00  0.00    +0.020 C 
ATOM      5  C   LIG    1       -7.243   0.392   1.109  0.00  0.00    +0.000 C 
ATOM      6  C   LIG    1       -6.930   1.886   1.212  0.00  0.00    +0.020 C 
ATOM      7  C   LIG    1       -6.030   2.297   0.043  0.00  0.00    +0.280 C 
ATOM      8  O   LIG    1       -3.462   3.167   0.036  0.00  0.00    -0.520 OA
ENDROOT
BRANCH   1   9
ATOM      9  C   LIG    1       -2.397   1.061   0.019  0.00  0.00    +0.250 C 
BRANCH   9  10
ATOM     10  O   LIG    1       -1.190   1.869   0.018  0.00  0.00    -0.330 OA
BRANCH  10  11
ATOM     11  C   LIG    1       -0.014   1.211   0.009  0.00  0.00    +0.520 C 
ATOM     12  O   LIG    1        0.002  -0.004   0.002  0.00  0.00    -0.510 OA
BRANCH  11  16
ATOM     13  C   LIG    1        3.633   3.383  -0.015  0.00  0.00    +0.170 A 
ATOM     14  C   LIG    1        3.654   1.994  -0.023  0.00  0.00    -0.030 A 
ATOM     15  C   LIG    1        2.474   1.285  -0.015  0.00  0.00    +0.140 A 
ATOM     16  C   LIG    1        1.252   1.966   0.001  0.00  0.00    -0.170 A 
ATOM     17  C   LIG    1        1.236   3.363   0.003  0.00  0.00    +0.130 A 
ATOM     18  C   LIG    1        2.421   4.064  -0.001  0.00  0.00    -0.080 A 
BRANCH  13  20
ATOM     19  C   LIG    1        4.705   5.504  -0.015  0.00  0.00    +0.250 C 
ATOM     20  O   LIG    1        4.799   4.078  -0.023  0.00  0.00    -0.310 OA
ENDBRANCH  13  20
ENDBRANCH  11  16
ENDBRANCH  10  11
ENDBRANCH   9  10
ENDBRANCH   1   9
BRANCH   5  21
ATOM     21  C   LIG    1       -8.171  -0.016   2.256  0.00  0.00    +0.070 C 
BRANCH  21  22
ATOM     22  C   LIG    1       -8.578  -1.456   2.085  0.00  0.00    -0.080 A 
ATOM     23  C   LIG    1       -9.716  -1.773   1.367  0.00  0.00    +0.000 A 
ATOM     24  C   LIG    1      -10.087  -3.095   1.207  0.00  0.00    +0.000 A 
ATOM     25  C   LIG    1       -9.325  -4.100   1.773  0.00  0.00    +0.000 A 
ATOM     26  C   LIG    1       -8.190  -3.783   2.495  0.00  0.00    +0.000 A 
ATOM     27  C   LIG    1       -7.816  -2.462   2.651  0.00  0.00    +0.000 A 
ENDBRANCH  21  22
ENDBRANCH   5  21
TORSDOF 7
