REMARK  Name = ZINCpk00000KfLcw.0
REMARK                            x       y       z     vdW  Elec       q    Type
REMARK                         _______ _______ _______ _____ _____    ______ ____
ROOT
ATOM      1  C   LIG    1       -1.724  -3.347   0.000  0.00  0.00    +0.570 C 
ATOM      2  N   LIG    1       -1.393  -4.650   0.092  0.00  0.00    -0.610 N 
ATOM      3  C   LIG    1        0.015  -5.060   0.181  0.00  0.00    +0.280 C 
ATOM      4  C   LIG    1        0.186  -5.956   1.418  0.00  0.00    +0.010 C 
ATOM      5  C   LIG    1       -0.804  -7.120   1.337  0.00  0.00    +0.240 C 
ATOM      6  C   LIG    1       -2.235  -6.577   1.329  0.00  0.00    +0.030 C 
ATOM      7  C   LIG    1       -2.433  -5.688   0.098  0.00  0.00    +0.280 C 
ATOM      8  O   LIG    1       -0.853  -2.502  -0.076  0.00  0.00    -0.520 OA
ENDROOT
BRANCH   1  15
ATOM      9  C   LIG    1       -8.053  -1.079   0.454  0.00  0.00    +0.380 C 
ATOM     10  N   LIG    1       -7.151  -2.008  -0.233  0.00  0.00    -0.390 N 
ATOM     11  N   LIG    1       -7.493  -2.905  -1.255  0.00  0.00    +0.000 NA
ATOM     12  N   LIG    1       -6.447  -3.560  -1.619  0.00  0.00    -0.210 NA
ATOM     13  C   LIG    1       -5.374  -3.165  -0.894  0.00  0.00    -0.020 A 
ATOM     14  C   LIG    1       -4.030  -3.550  -0.892  0.00  0.00    +0.150 A 
ATOM     15  C   LIG    1       -3.145  -2.945  -0.008  0.00  0.00    -0.140 A 
ATOM     16  C   LIG    1       -3.596  -1.954   0.876  0.00  0.00    +0.120 A 
ATOM     17  C   LIG    1       -4.905  -1.574   0.879  0.00  0.00    +0.020 A 
ATOM     18  C   LIG    1       -5.808  -2.169   0.000  0.00  0.00    +0.100 A 
ENDBRANCH   1  15
BRANCH   5  19
ATOM     19  N   LIG    1       -0.621  -7.998   2.496  0.00  0.00    -0.710 N 
ATOM     20  H   LIG    1       -1.177  -7.884   3.283  0.00  0.00    +0.410 HD
BRANCH  19  21
ATOM     21  C   LIG    1        0.350  -8.993   2.468  0.00  0.00    +0.340 A 
ATOM     22  C   LIG    1        1.147  -9.163   1.337  0.00  0.00    -0.030 A 
ATOM     23  C   LIG    1        2.104 -10.165   1.362  0.00  0.00    +0.070 A 
ATOM     24  C   LIG    1        2.202 -10.945   2.506  0.00  0.00    +0.150 A 
ATOM     25  N   LIG    1        1.403 -10.718   3.529  0.00  0.00    -0.200 NA
ATOM     26  N   LIG    1        0.518  -9.788   3.515  0.00  0.00    -0.310 NA
ENDBRANCH  19  21
ENDBRANCH   5  19
TORSDOF 3
