REMARK  Name = ZINCrH000004lBp9.0
REMARK                            x       y       z     vdW  Elec       q    Type
REMARK                         _______ _______ _______ _____ _____    ______ ____
ROOT
ATOM      1  N   LIG    1       -1.426  -1.519  -1.244  0.00  0.00    -0.730 N 
ATOM      2  H   LIG    1       -0.732  -1.461  -1.919  0.00  0.00    +0.410 HD
ENDROOT
BRANCH   1   6
ATOM      3  C   LIG    1       -4.786  -3.886  -1.914  0.00  0.00    -0.100 A 
ATOM      4  C   LIG    1       -4.662  -3.184  -0.729  0.00  0.00    +0.090 A 
ATOM      5  C   LIG    1       -3.546  -2.402  -0.502  0.00  0.00    -0.040 A 
ATOM      6  C   LIG    1       -2.553  -2.313  -1.469  0.00  0.00    +0.220 A 
ATOM      7  C   LIG    1       -2.681  -3.020  -2.658  0.00  0.00    -0.010 A 
ATOM      8  C   LIG    1       -3.797  -3.804  -2.877  0.00  0.00    -0.130 A 
BRANCH   8   9
ATOM      9  C   LIG    1       -3.936  -4.571  -4.167  0.00  0.00    +0.510 C 
ATOM     10  F   LIG    1       -5.093  -4.155  -4.834  0.00  0.00    -0.180 F 
ATOM     11  F   LIG    1       -4.025  -5.939  -3.889  0.00  0.00    -0.180 F 
ATOM     12  F   LIG    1       -2.820  -4.331  -4.975  0.00  0.00    -0.180 F 
ENDBRANCH   8   9
BRANCH   3  13
ATOM     13  C   LIG    1       -6.001  -4.744  -2.156  0.00  0.00    +0.230 C 
BRANCH  13  15
ATOM     14  C   LIG    1       -8.061  -5.447  -1.153  0.00  0.00    +0.200 C 
ATOM     15  O   LIG    1       -6.871  -4.666  -1.025  0.00  0.00    -0.390 OA
ENDBRANCH  13  15
ENDBRANCH   3  13
ENDBRANCH   1   6
BRANCH   1  16
ATOM     16  C   LIG    1       -1.293  -0.775   0.010  0.00  0.00    +0.360 C 
BRANCH  16  17
ATOM     17  C   LIG    1        0.002  -0.004   0.002  0.00  0.00    +0.190 A 
ATOM     18  C   LIG    1       -0.017   1.377   0.010  0.00  0.00    -0.150 A 
ATOM     19  C   LIG    1        1.199   2.071   0.002  0.00  0.00    +0.510 A 
ATOM     20  N   LIG    1        2.352   1.369  -0.013  0.00  0.00    -0.420 N 
ATOM     21  C   LIG    1        3.543   2.029  -0.021  0.00  0.00    +0.270 A 
ATOM     22  C   LIG    1        4.711   1.348  -0.036  0.00  0.00    -0.130 A 
ATOM     23  C   LIG    1        4.708  -0.054  -0.044  0.00  0.00    +0.130 A 
ATOM     24  C   LIG    1        3.522  -0.725  -0.036  0.00  0.00    +0.040 A 
ATOM     25  C   LIG    1        6.018   2.097  -0.044  0.00  0.00    +0.130 C 
ATOM     26  C   LIG    1        2.317   0.002  -0.021  0.00  0.00    +0.390 A 
ATOM     27  O   LIG    1        1.216   3.291   0.007  0.00  0.00    -0.530 OA
ATOM     28  N   LIG    1        1.157  -0.651  -0.013  0.00  0.00    -0.540 NA
ENDBRANCH  16  17
ENDBRANCH   1  16
TORSDOF 6
