REMARK  Name = ZINCah0000002pEG.0
REMARK                            x       y       z     vdW  Elec       q    Type
REMARK                         _______ _______ _______ _____ _____    ______ ____
ROOT
ATOM      1  C   LIG    1       -2.437   0.972   0.019  0.00  0.00    +0.540 C 
ATOM      2  N   LIG    1       -3.611   1.626   0.130  0.00  0.00    -0.610 N 
ATOM      3  C   LIG    1       -3.651   3.095   0.146  0.00  0.00    +0.260 C 
ATOM      4  C   LIG    1       -4.629   3.568  -0.940  0.00  0.00    +0.010 C 
ATOM      5  C   LIG    1       -5.988   2.900  -0.721  0.00  0.00    +0.020 C 
ATOM      6  C   LIG    1       -5.837   1.382  -0.838  0.00  0.00    +0.010 C 
ATOM      7  C   LIG    1       -4.873   0.883   0.243  0.00  0.00    +0.270 C 
ATOM      8  O   LIG    1       -2.423  -0.239  -0.084  0.00  0.00    -0.550 OA
ENDROOT
BRANCH   1  10
ATOM      9  C   LIG    1       -0.013   1.075   0.013  0.00  0.00    +0.140 C 
ATOM     10  C   LIG    1       -1.173   1.725   0.022  0.00  0.00    -0.090 C 
ENDBRANCH   1  10
TORSDOF 1
