REMARK  Name = ZINCpe000000VaPm.0
REMARK                            x       y       z     vdW  Elec       q    Type
REMARK                         _______ _______ _______ _____ _____    ______ ____
ROOT
ATOM      1  C   LIG    1        3.474   6.085   0.044  0.00  0.00    +0.320 C 
ENDROOT
BRANCH   1   2
ATOM      2  C   LIG    1        3.171   7.480  -0.440  0.00  0.00    -0.140 A 
ATOM      3  C   LIG    1        1.990   8.097  -0.072  0.00  0.00    +0.060 A 
ATOM      4  C   LIG    1        1.712   9.378  -0.510  0.00  0.00    -0.080 A 
ATOM      5  C   LIG    1        2.616  10.041  -1.328  0.00  0.00    +0.130 A 
ATOM      6  C   LIG    1        3.798   9.417  -1.700  0.00  0.00    -0.020 A 
ATOM      7  C   LIG    1        4.073   8.139  -1.255  0.00  0.00    +0.070 A 
BRANCH   5   8
ATOM      8  O   LIG    1        2.343  11.299  -1.764  0.00  0.00    -0.320 OA
ATOM      9  C   LIG    1        1.107  11.878  -1.341  0.00  0.00    +0.250 C 
ENDBRANCH   5   8
ENDBRANCH   1   2
BRANCH   1  10
ATOM     10  N   LIG    1        2.250   5.280   0.009  0.00  0.00    -0.700 N 
ATOM     11  H   LIG    1        1.697   5.204   0.802  0.00  0.00    +0.410 HD
ATOM     12  C   LIG    1        1.894   4.646  -1.125  0.00  0.00    +0.600 C 
ATOM     13  O   LIG    1        2.536   4.814  -2.144  0.00  0.00    -0.510 OA
BRANCH  12  14
ATOM     14  C   LIG    1        0.721   3.744  -1.131  0.00  0.00    +0.020 A 
ATOM     15  N   LIG    1        0.029   3.564  -0.029  0.00  0.00    -0.180 NA
ATOM     16  N   LIG    1       -0.997   2.792   0.017  0.00  0.00    -0.340 N 
ATOM     17  C   LIG    1       -1.430   2.122  -1.067  0.00  0.00    +0.480 A 
ATOM     18  C   LIG    1       -0.738   2.256  -2.291  0.00  0.00    -0.020 A 
ATOM     19  O   LIG    1       -2.410   1.401  -0.991  0.00  0.00    -0.520 OA
ATOM     20  C   LIG    1       -1.718   2.642   1.283  0.00  0.00    +0.360 C 
ATOM     21  C   LIG    1        0.349   3.079  -2.324  0.00  0.00    +0.140 A 
ENDBRANCH  12  14
ENDBRANCH   1  10
BRANCH   1  22
ATOM     22  C   LIG    1        4.003   6.147   1.478  0.00  0.00    +0.130 C 
BRANCH  22  23
ATOM     23  C   LIG    1        4.434   4.770   1.914  0.00  0.00    +0.460 C 
ATOM     24  O   LIG    1        4.255   3.822   1.186  0.00  0.00    -0.490 OA
BRANCH  23  26
ATOM     25  C   LIG    1        5.408   3.243   3.463  0.00  0.00    +0.260 C 
ATOM     26  O   LIG    1        5.018   4.597   3.110  0.00  0.00    -0.360 OA
ENDBRANCH  23  26
ENDBRANCH  22  23
ENDBRANCH   1  22
TORSDOF 7
