REMARK  Name = ZINCqH0000002eDY.0
REMARK                            x       y       z     vdW  Elec       q    Type
REMARK                         _______ _______ _______ _____ _____    ______ ____
ROOT
ATOM      1  N   LIG    1       -1.003  -0.776   4.087  0.00  0.00    -0.740 N 
ATOM      2  H   LIG    1       -0.774  -1.202   3.246  0.00  0.00    +0.400 HD
ATOM      3  C   LIG    1       -1.068  -1.507   5.217  0.00  0.00    +0.700 C 
ATOM      4  N   LIG    1       -0.814  -2.830   5.179  0.00  0.00    -0.670 N 
ATOM      5  H   LIG    1       -0.633  -3.265   4.331  0.00  0.00    +0.410 HD
ATOM      6  O   LIG    1       -1.355  -0.973   6.271  0.00  0.00    -0.570 OA
ENDROOT
BRANCH   1   9
ATOM      7  C   LIG    1       -0.627   0.918   1.732  0.00  0.00    +0.160 C 
ATOM      8  C   LIG    1       -1.751   1.133   2.749  0.00  0.00    +0.020 C 
ATOM      9  C   LIG    1       -1.278   0.662   4.128  0.00  0.00    +0.260 C 
ATOM     10  C   LIG    1       -0.002   1.420   4.504  0.00  0.00    -0.010 C 
ATOM     11  C   LIG    1        1.055   1.194   3.420  0.00  0.00    +0.200 C 
ATOM     12  O   LIG    1        0.540   1.625   2.158  0.00  0.00    -0.370 OA
BRANCH   7  13
ATOM     13  C   LIG    1       -1.069   1.442   0.364  0.00  0.00    +0.000 C 
BRANCH  13  15
ATOM     14  C   LIG    1       -0.363   1.788  -2.008  0.00  0.00    +0.010 C 
ATOM     15  C   LIG    1        0.023   1.156  -0.669  0.00  0.00    +0.010 C 
ENDBRANCH  13  15
BRANCH  13  16
ATOM     16  C   LIG    1       -2.363   0.742  -0.056  0.00  0.00    +0.020 C 
ATOM     17  C   LIG    1       -2.105  -0.758  -0.211  0.00  0.00    +0.010 C 
ENDBRANCH  13  16
ENDBRANCH   7  13
ENDBRANCH   1   9
BRANCH   4  18
ATOM     18  C   LIG    1       -0.813  -3.578   6.365  0.00  0.00    +0.120 A 
ATOM     19  C   LIG    1       -1.668  -3.247   7.407  0.00  0.00    +0.090 A 
ATOM     20  C   LIG    1       -1.634  -4.020   8.561  0.00  0.00    -0.030 A 
ATOM     21  C   LIG    1       -0.753  -5.078   8.641  0.00  0.00    +0.260 A 
ATOM     22  N   LIG    1        0.054  -5.369   7.637  0.00  0.00    -0.500 NA
ATOM     23  C   LIG    1        0.052  -4.664   6.518  0.00  0.00    +0.270 A 
BRANCH  23  24
ATOM     24  N   LIG    1        0.921  -5.006   5.485  0.00  0.00    -0.460 N 
ATOM     25  C   LIG    1        1.971  -3.971   5.307  0.00  0.00    +0.170 C 
ATOM     26  C   LIG    1        3.089  -4.726   4.546  0.00  0.00    +0.040 C 
ATOM     27  C   LIG    1        3.049  -6.135   5.183  0.00  0.00    +0.020 C 
ATOM     28  C   LIG    1        1.640  -6.261   5.791  0.00  0.00    +0.190 C 
ENDBRANCH  23  24
ENDBRANCH   4  18
TORSDOF 6
