REMARK  Name = ZINCrD000000CPge.0
REMARK                            x       y       z     vdW  Elec       q    Type
REMARK                         _______ _______ _______ _____ _____    ______ ____
ROOT
ATOM      1  C   LIG    1       -1.956   1.142   3.730  0.00  0.00    +0.570 C 
ATOM      2  N   LIG    1       -2.580   0.979   4.913  0.00  0.00    -0.610 N 
ATOM      3  C   LIG    1       -4.045   0.890   4.980  0.00  0.00    +0.280 C 
ATOM      4  C   LIG    1       -4.423  -0.394   5.733  0.00  0.00    +0.010 C 
ATOM      5  C   LIG    1       -3.730  -0.401   7.098  0.00  0.00    +0.160 C 
ATOM      6  C   LIG    1       -2.212  -0.386   6.902  0.00  0.00    +0.040 C 
ATOM      7  C   LIG    1       -1.810   0.893   6.161  0.00  0.00    +0.310 C 
ATOM      8  O   LIG    1       -0.741   1.134   3.677  0.00  0.00    -0.510 OA
ENDROOT
BRANCH   1  18
ATOM      9  O   LIG    1       -1.386  -1.233  -2.003  0.00  0.00    -0.500 OA
ATOM     10  C   LIG    1       -1.779  -0.705  -0.984  0.00  0.00    +0.490 C 
ATOM     11  C   LIG    1       -1.253  -1.159   0.354  0.00  0.00    +0.300 C 
ATOM     12  O   LIG    1       -1.234  -0.053   1.261  0.00  0.00    -0.280 OA
ATOM     13  C   LIG    1       -2.347   0.721   1.305  0.00  0.00    +0.130 A 
ATOM     14  C   LIG    1       -3.101   0.907   0.148  0.00  0.00    +0.090 A 
ATOM     15  C   LIG    1       -4.240   1.693   0.181  0.00  0.00    +0.040 A 
ATOM     16  C   LIG    1       -4.635   2.296   1.363  0.00  0.00    +0.030 A 
ATOM     17  C   LIG    1       -3.899   2.122   2.515  0.00  0.00    +0.050 A 
ATOM     18  C   LIG    1       -2.746   1.331   2.498  0.00  0.00    -0.130 A 
ATOM     19  N   LIG    1       -2.690   0.290  -1.043  0.00  0.00    -0.660 N 
ATOM     20  H   LIG    1       -3.055   0.575  -1.896  0.00  0.00    +0.420 HD
ENDBRANCH   1  18
BRANCH   5  21
ATOM     21  O   LIG    1       -4.106  -1.577   7.817  0.00  0.00    -0.300 OA
BRANCH  21  22
ATOM     22  C   LIG    1       -5.288  -1.539   8.488  0.00  0.00    +0.140 A 
ATOM     23  C   LIG    1       -6.038  -0.372   8.507  0.00  0.00    -0.060 A 
ATOM     24  C   LIG    1       -7.241  -0.337   9.185  0.00  0.00    +0.070 A 
ATOM     25  C   LIG    1       -7.693  -1.461   9.853  0.00  0.00    -0.070 A 
ATOM     26  C   LIG    1       -6.944  -2.624   9.840  0.00  0.00    +0.070 A 
ATOM     27 CL   LIG    1       -9.202  -1.412  10.710  0.00  0.00    -0.070 Cl
ATOM     28  C   LIG    1       -5.742  -2.665   9.159  0.00  0.00    +0.000 A 
ENDBRANCH  21  22
ENDBRANCH   5  21
TORSDOF 3
