REMARK  Name = ZINCrg00000bwxFS.0
REMARK                            x       y       z     vdW  Elec       q    Type
REMARK                         _______ _______ _______ _____ _____    ______ ____
ROOT
ATOM      1  C   LIG    1        1.378   2.724  -0.337  0.00  0.00    +0.030 C 
ATOM      2  C   LIG    1        0.089   1.923  -0.144  0.00  0.00    +0.000 C 
ATOM      3  C   LIG    1       -0.664   2.454   1.078  0.00  0.00    +0.020 C 
ATOM      4  C   LIG    1       -1.937   1.628   1.288  0.00  0.00    +0.280 C 
ATOM      5  N   LIG    1       -2.719   1.640   0.044  0.00  0.00    -0.590 N 
ATOM      6  C   LIG    1       -2.064   1.234  -1.207  0.00  0.00    +0.290 C 
ATOM      7  C   LIG    1       -4.013   2.017   0.051  0.00  0.00    +0.580 C 
ATOM      8  O   LIG    1       -4.611   2.156  -0.998  0.00  0.00    -0.520 OA
ATOM      9  C   LIG    1       -0.790   2.065  -1.389  0.00  0.00    -0.020 C 
ENDROOT
BRANCH   7  10
ATOM     10  C   LIG    1       -4.707   2.261   1.337  0.00  0.00    +0.020 A 
ATOM     11  C   LIG    1       -5.982   2.832   1.350  0.00  0.00    +0.100 A 
ATOM     12  C   LIG    1       -6.590   3.036   2.581  0.00  0.00    +0.040 A 
ATOM     13  C   LIG    1       -5.893   2.671   3.721  0.00  0.00    +0.240 A 
ATOM     14  N   LIG    1       -4.686   2.141   3.618  0.00  0.00    -0.240 NA
ATOM     15  N   LIG    1       -4.118   1.944   2.484  0.00  0.00    -0.210 NA
ENDBRANCH   7  10
BRANCH   9  16
ATOM     16  C   LIG    1       -0.025   1.564  -2.615  0.00  0.00    +0.290 C 
BRANCH  16  17
ATOM     17  N   LIG    1       -0.820   1.810  -3.821  0.00  0.00    -0.700 N 
ATOM     18  H   LIG    1       -1.690   2.233  -3.750  0.00  0.00    +0.420 HD
ATOM     19  C   LIG    1       -0.342   1.448  -5.028  0.00  0.00    +0.610 C 
ATOM     20  O   LIG    1        0.748   0.918  -5.116  0.00  0.00    -0.530 OA
BRANCH  19  21
ATOM     21  C   LIG    1       -1.143   1.696  -6.244  0.00  0.00    +0.170 A 
ATOM     22  N   LIG    1       -2.339   2.256  -6.296  0.00  0.00    -0.460 NA
ATOM     23  C   LIG    1       -2.704   2.294  -7.574  0.00  0.00    +0.230 A 
ATOM     24  N   LIG    1       -1.750   1.758  -8.293  0.00  0.00    -0.290 NA
ATOM     25  N   LIG    1       -0.793   1.388  -7.513  0.00  0.00    -0.360 N 
ATOM     26  H   LIG    1        0.034   0.962  -7.789  0.00  0.00    +0.460 HD
BRANCH  23  27
ATOM     27  C   LIG    1       -3.999   2.853  -8.104  0.00  0.00    +0.060 C 
ATOM     28  C   LIG    1       -4.319   2.615  -9.581  0.00  0.00    +0.050 C 
ATOM     29  C   LIG    1       -3.913   4.010  -9.102  0.00  0.00    +0.050 C 
ENDBRANCH  23  27
ENDBRANCH  19  21
ENDBRANCH  16  17
ENDBRANCH   9  16
TORSDOF 5
