REMARK  Name = ZINCrg00000bwxFS.1
REMARK                            x       y       z     vdW  Elec       q    Type
REMARK                         _______ _______ _______ _____ _____    ______ ____
ROOT
ATOM      1  C   LIG    1       -2.299   2.851  -2.757  0.00  0.00    +0.030 C 
ATOM      2  C   LIG    1       -1.909   2.089  -1.488  0.00  0.00    +0.000 C 
ATOM      3  C   LIG    1       -0.386   2.087  -1.343  0.00  0.00    +0.020 C 
ATOM      4  C   LIG    1        0.002   1.294  -0.091  0.00  0.00    +0.280 C 
ATOM      5  N   LIG    1       -0.711   1.853   1.066  0.00  0.00    -0.590 N 
ATOM      6  C   LIG    1       -2.175   1.985   0.993  0.00  0.00    +0.300 C 
ATOM      7  C   LIG    1       -0.037   2.238   2.168  0.00  0.00    +0.580 C 
ATOM      8  O   LIG    1        1.171   2.117   2.214  0.00  0.00    -0.530 OA
ATOM      9  C   LIG    1       -2.539   2.770  -0.271  0.00  0.00    -0.030 C 
ENDROOT
BRANCH   7  10
ATOM     10  C   LIG    1       -0.769   2.808   3.323  0.00  0.00    +0.020 A 
ATOM     11  C   LIG    1       -0.098   3.596   4.260  0.00  0.00    +0.090 A 
ATOM     12  C   LIG    1       -0.831   4.107   5.324  0.00  0.00    +0.050 A 
ATOM     13  C   LIG    1       -2.181   3.804   5.390  0.00  0.00    +0.240 A 
ATOM     14  N   LIG    1       -2.737   3.049   4.459  0.00  0.00    -0.230 NA
ATOM     15  N   LIG    1       -2.069   2.576   3.470  0.00  0.00    -0.210 NA
ENDBRANCH   7  10
BRANCH   9  16
ATOM     16  C   LIG    1       -4.060   2.801  -0.433  0.00  0.00    +0.280 C 
BRANCH  16  17
ATOM     17  N   LIG    1       -4.654   3.557   0.672  0.00  0.00    -0.700 N 
ATOM     18  H   LIG    1       -4.085   3.943   1.357  0.00  0.00    +0.410 HD
ATOM     19  C   LIG    1       -5.990   3.717   0.738  0.00  0.00    +0.610 C 
ATOM     20  O   LIG    1       -6.703   3.234  -0.120  0.00  0.00    -0.530 OA
BRANCH  19  21
ATOM     21  C   LIG    1       -6.588   4.478   1.851  0.00  0.00    +0.120 A 
ATOM     22  N   LIG    1       -5.941   5.053   2.843  0.00  0.00    -0.230 NA
ATOM     23  N   LIG    1       -6.784   5.627   3.627  0.00  0.00    -0.280 NA
ATOM     24  C   LIG    1       -8.003   5.449   3.181  0.00  0.00    +0.240 A 
ATOM     25  N   LIG    1       -7.922   4.726   2.046  0.00  0.00    -0.540 N 
ATOM     26  H   LIG    1       -8.658   4.439   1.483  0.00  0.00    +0.440 HD
BRANCH  24  27
ATOM     27  C   LIG    1       -9.267   5.966   3.818  0.00  0.00    +0.060 C 
ATOM     28  C   LIG    1      -10.534   5.986   2.959  0.00  0.00    +0.030 C 
ATOM     29  C   LIG    1       -9.823   7.296   3.306  0.00  0.00    +0.060 C 
ENDBRANCH  24  27
ENDBRANCH  19  21
ENDBRANCH  16  17
ENDBRANCH   9  16
TORSDOF 5
