REMARK  Name = ZINCvU0000000DO6.0
REMARK                            x       y       z     vdW  Elec       q    Type
REMARK                         _______ _______ _______ _____ _____    ______ ____
ROOT
ATOM      1  C   LIG    1        0.953  -4.149   3.701  0.00  0.00    -0.070 A 
ATOM      2  C   LIG    1        0.648  -4.913   4.808  0.00  0.00    +0.250 A 
ATOM      3  C   LIG    1       -0.187  -6.010   4.688  0.00  0.00    -0.190 A 
ATOM      4  C   LIG    1       -0.725  -6.345   3.458  0.00  0.00    +0.250 A 
ATOM      5  C   LIG    1       -0.433  -5.587   2.344  0.00  0.00    -0.050 A 
ATOM      6  C   LIG    1        0.409  -4.479   2.458  0.00  0.00    +0.240 A 
ENDROOT
BRANCH   3   7
ATOM      7  C   LIG    1       -0.510  -6.843   5.901  0.00  0.00    +0.520 C 
ATOM      8  F   LIG    1       -1.786  -7.400   5.758  0.00  0.00    -0.160 F 
ATOM      9  F   LIG    1       -0.478  -6.036   7.043  0.00  0.00    -0.160 F 
ATOM     10  F   LIG    1        0.434  -7.868   6.028  0.00  0.00    -0.160 F 
ENDBRANCH   3   7
BRANCH   1  12
ATOM     11  O   LIG    1        2.222  -2.616   4.932  0.00  0.00    -0.120 OA
ATOM     12  N   LIG    1        1.852  -2.980   3.830  0.00  0.00    +0.030 N 
ATOM     13  O   LIG    1        2.221  -2.383   2.835  0.00  0.00    -0.130 OA
ENDBRANCH   1  12
BRANCH   5  14
ATOM     14  N   LIG    1       -1.010  -5.948   1.029  0.00  0.00    +0.030 N 
ATOM     15  O   LIG    1       -0.751  -5.277   0.046  0.00  0.00    -0.120 OA
ATOM     16  O   LIG    1       -1.744  -6.915   0.931  0.00  0.00    -0.140 OA
ENDBRANCH   5  14
BRANCH   6  17
ATOM     17  N   LIG    1        0.703  -3.722   1.355  0.00  0.00    -0.200 NA
ATOM     18  N   LIG    1        0.498  -2.499   1.369  0.00  0.00    -0.090 NA
BRANCH  18  19
ATOM     19  C   LIG    1        0.813  -1.689   0.189  0.00  0.00    +0.280 C 
ATOM     20  C   LIG    1        0.366  -0.264   0.403  0.00  0.00    -0.080 A 
ATOM     21  C   LIG    1       -0.874   0.292   0.638  0.00  0.00    +0.040 A 
ATOM     22  C   LIG    1       -1.000   1.660   0.799  0.00  0.00    +0.020 A 
ATOM     23  C   LIG    1        0.116   2.473   0.726  0.00  0.00    +0.020 A 
ATOM     24  C   LIG    1        1.361   1.925   0.492  0.00  0.00    +0.040 A 
ATOM     25  C   LIG    1        1.496   0.546   0.327  0.00  0.00    -0.040 A 
ATOM     26  C   LIG    1        2.690  -0.295   0.069  0.00  0.00    -0.040 A 
ATOM     27  C   LIG    1        4.036   0.042  -0.086  0.00  0.00    +0.040 A 
ATOM     28  C   LIG    1        4.971  -0.945  -0.322  0.00  0.00    +0.030 A 
ATOM     29  C   LIG    1        4.580  -2.269  -0.406  0.00  0.00    +0.020 A 
ATOM     30  C   LIG    1        3.248  -2.611  -0.253  0.00  0.00    +0.050 A 
ATOM     31  C   LIG    1        2.307  -1.631  -0.017  0.00  0.00    -0.090 A 
ENDBRANCH  18  19
ENDBRANCH   6  17
TORSDOF 5
