REMARK  Name = ZINCpk00001AZiMD.0
REMARK                            x       y       z     vdW  Elec       q    Type
REMARK                         _______ _______ _______ _____ _____    ______ ____
ROOT
ATOM      1  C   LIG    1       -2.126   0.953   1.335  0.00  0.00    +0.250 C 
ENDROOT
BRANCH   1   3
ATOM      2  C   LIG    1       -1.362  -0.995   2.585  0.00  0.00    +0.550 C 
ATOM      3  N   LIG    1       -1.999  -0.497   1.506  0.00  0.00    -0.720 N 
ATOM      4  H   LIG    1       -2.374  -1.098   0.844  0.00  0.00    +0.400 HD
ATOM      5  O   LIG    1       -0.892  -0.241   3.415  0.00  0.00    -0.510 OA
BRANCH   2   7
ATOM      6  C   LIG    1       -0.607  -2.942   3.821  0.00  0.00    +0.130 C 
ATOM      7  C   LIG    1       -1.236  -2.450   2.757  0.00  0.00    -0.100 C 
ENDBRANCH   2   7
ENDBRANCH   1   3
BRANCH   1   8
ATOM      8  C   LIG    1       -2.880   1.533   2.503  0.00  0.00    +0.500 C 
ATOM      9  N   LIG    1       -3.467   2.741   2.393  0.00  0.00    -0.730 N 
ATOM     10  H   LIG    1       -3.405   3.237   1.562  0.00  0.00    +0.400 HD
ATOM     11  O   LIG    1       -2.958   0.913   3.543  0.00  0.00    -0.500 OA
BRANCH   9  12
ATOM     12  C   LIG    1       -4.200   3.305   3.529  0.00  0.00    +0.270 C 
BRANCH  12  13
ATOM     13  C   LIG    1       -4.765   4.674   3.143  0.00  0.00    +0.120 C 
BRANCH  13  14
ATOM     14  C   LIG    1       -5.519   5.254   4.311  0.00  0.00    -0.200 A 
ATOM     15  C   LIG    1       -6.833   5.114   4.609  0.00  0.00    -0.020 A 
ATOM     16  O   LIG    1       -7.043   5.805   5.737  0.00  0.00    +0.100 OA
ATOM     17  N   LIG    1       -6.028   6.334   6.130  0.00  0.00    -0.360 NA
ATOM     18  C   LIG    1       -7.856   4.332   3.826  0.00  0.00    +0.190 C 
ATOM     19  C   LIG    1       -5.020   6.077   5.347  0.00  0.00    +0.030 A 
ATOM     20  C   LIG    1       -3.602   6.560   5.513  0.00  0.00    +0.160 C 
ENDBRANCH  13  14
ENDBRANCH  12  13
ENDBRANCH   9  12
ENDBRANCH   1   8
BRANCH   1  21
ATOM     21  C   LIG    1       -0.732   1.581   1.264  0.00  0.00    +0.050 C 
BRANCH  21  22
ATOM     22  C   LIG    1       -0.013   1.086   0.008  0.00  0.00    -0.010 C 
ATOM     23  C   LIG    1       -0.744   1.595  -1.238  0.00  0.00    -0.010 C 
ATOM     24  C   LIG    1        0.028   1.159  -2.486  0.00  0.00    +0.200 C 
ATOM     25  O   LIG    1        1.364   1.661  -2.418  0.00  0.00    -0.380 OA
ATOM     26  C   LIG    1        2.111   1.181  -1.299  0.00  0.00    +0.200 C 
ATOM     27  C   LIG    1        1.424   1.618  -0.003  0.00  0.00    -0.010 C 
ENDBRANCH  21  22
ENDBRANCH   1  21
TORSDOF 8
