REMARK  Name = ZINCrD00000F5LA7.0
REMARK                            x       y       z     vdW  Elec       q    Type
REMARK                         _______ _______ _______ _____ _____    ______ ____
ROOT
ATOM      1  C   LIG    1        8.590   0.996  -3.405  0.00  0.00    +0.190 C 
ATOM      2  C   LIG    1        7.727   2.028  -2.726  0.00  0.00    +0.140 A 
ATOM      3  C   LIG    1        6.417   1.886  -2.366  0.00  0.00    -0.100 A 
ATOM      4  N   LIG    1        6.006   3.030  -1.793  0.00  0.00    -0.190 NA
ATOM      5  N   LIG    1        6.979   3.873  -1.765  0.00  0.00    -0.060 NA
ATOM      6  N   LIG    1        8.101   3.273  -2.355  0.00  0.00    -0.320 N 
ENDROOT
BRANCH   3   7
ATOM      7  C   LIG    1        5.591   0.682  -2.578  0.00  0.00    +0.620 C 
ATOM      8  N   LIG    1        4.304   0.669  -2.176  0.00  0.00    -0.610 N 
ATOM      9  C   LIG    1        3.589   1.786  -1.511  0.00  0.00    +0.280 C 
ATOM     10  C   LIG    1        2.151   1.309  -1.333  0.00  0.00    -0.030 C 
ATOM     11  C   LIG    1        1.420   1.772  -0.090  0.00  0.00    +0.040 C 
ATOM     12  C   LIG    1        0.024   1.127  -0.119  0.00  0.00    +0.000 C 
ATOM     13  C   LIG    1        0.111  -0.395  -0.192  0.00  0.00    +0.000 C 
ATOM     14  C   LIG    1        0.979  -0.858  -1.374  0.00  0.00    +0.040 C 
ATOM     15  C   LIG    1        2.348  -0.231  -1.193  0.00  0.00    -0.020 C 
ATOM     16  C   LIG    1        3.357  -0.469  -2.323  0.00  0.00    +0.270 C 
ATOM     17  O   LIG    1        6.070  -0.298  -3.115  0.00  0.00    -0.530 OA
ENDBRANCH   3   7
BRANCH   6  18
ATOM     18  C   LIG    1        9.363   3.851  -2.527  0.00  0.00    +0.140 A 
ATOM     19  C   LIG    1        9.995   3.790  -3.750  0.00  0.00    +0.050 A 
ATOM     20  C   LIG    1       11.251   4.363  -3.928  0.00  0.00    +0.060 A 
ATOM     21  C   LIG    1       11.888   4.998  -2.906  0.00  0.00    +0.080 A 
ATOM     22  C   LIG    1       11.277   5.084  -1.643  0.00  0.00    +0.140 A 
ATOM     23  N   LIG    1       11.885   5.702  -0.625  0.00  0.00    -0.470 NA
ATOM     24  C   LIG    1       11.322   5.786   0.556  0.00  0.00    +0.310 A 
ATOM     25  C   LIG    1       10.068   5.238   0.810  0.00  0.00    -0.020 A 
ATOM     26  C   LIG    1        9.392   4.592  -0.187  0.00  0.00    +0.090 A 
ATOM     27  C   LIG    1        9.997   4.508  -1.453  0.00  0.00    -0.090 A 
ENDBRANCH   6  18
TORSDOF 2
