REMARK  Name = ZINCrD000000AsR8.0
REMARK                            x       y       z     vdW  Elec       q    Type
REMARK                         _______ _______ _______ _____ _____    ______ ____
ROOT
ATOM      1  O   LIG    1        3.361   2.710  -1.212  0.00  0.00    -0.490 OA
ATOM      2  C   LIG    1        3.450   1.618  -0.692  0.00  0.00    +0.530 C 
ATOM      3  N   LIG    1        2.402   1.106  -0.015  0.00  0.00    -0.670 N 
ATOM      4  H   LIG    1        2.494   0.264   0.456  0.00  0.00    +0.410 HD
ENDROOT
BRANCH   3   5
ATOM      5  C   LIG    1        1.182   1.791   0.007  0.00  0.00    +0.150 A 
ATOM      6  C   LIG    1       -0.013   1.084   0.012  0.00  0.00    -0.010 A 
ATOM      7  C   LIG    1       -1.215   1.763   0.028  0.00  0.00    +0.050 A 
ATOM      8  C   LIG    1       -1.230   3.145   0.050  0.00  0.00    -0.130 A 
ATOM      9  C   LIG    1       -0.042   3.853   0.045  0.00  0.00    +0.050 A 
ATOM     10  C   LIG    1        1.164   3.180   0.024  0.00  0.00    +0.020 A 
BRANCH   8  11
ATOM     11  C   LIG    1       -2.544   3.883   0.073  0.00  0.00    +0.340 C 
BRANCH  11  12
ATOM     12  N   LIG    1       -2.985   4.138  -1.300  0.00  0.00    -0.570 N 
ATOM     13  C   LIG    1       -2.657   5.249  -1.971  0.00  0.00    +0.530 C 
ATOM     14  C   LIG    1       -3.269   5.194  -3.354  0.00  0.00    +0.080 C 
ATOM     15  C   LIG    1       -4.024   3.849  -3.362  0.00  0.00    +0.080 C 
ATOM     16  O   LIG    1       -1.975   6.154  -1.540  0.00  0.00    -0.480 OA
ATOM     17  C   LIG    1       -3.755   3.283  -1.985  0.00  0.00    +0.530 C 
ATOM     18  O   LIG    1       -4.169   2.223  -1.568  0.00  0.00    -0.480 OA
ENDBRANCH  11  12
ENDBRANCH   8  11
ENDBRANCH   3   5
BRANCH   2  19
ATOM     19  C   LIG    1        4.731   0.832  -0.804  0.00  0.00    +0.100 C 
BRANCH  19  20
ATOM     20  S   LIG    1        5.940   1.781  -1.767  0.00  0.00    +0.000 S 
BRANCH  20  21
ATOM     21  C   LIG    1        7.348   0.721  -1.790  0.00  0.00    -0.090 A 
ATOM     22  C   LIG    1        8.504   1.115  -2.451  0.00  0.00    +0.070 A 
ATOM     23  C   LIG    1        9.607   0.283  -2.468  0.00  0.00    +0.050 A 
ATOM     24  C   LIG    1        9.562  -0.943  -1.828  0.00  0.00    +0.060 A 
ATOM     25  C   LIG    1        8.408  -1.340  -1.167  0.00  0.00    +0.090 A 
ATOM     26  F   LIG    1        8.366  -2.537  -0.543  0.00  0.00    -0.120 F 
ATOM     27  F   LIG    1       10.642  -1.754  -1.846  0.00  0.00    -0.120 F 
ATOM     28  C   LIG    1        7.304  -0.508  -1.143  0.00  0.00    -0.010 A 
ENDBRANCH  20  21
ENDBRANCH  19  20
ENDBRANCH   2  19
TORSDOF 6
