REMARK  Name = ZINCrD0000071lGn.0
REMARK                            x       y       z     vdW  Elec       q    Type
REMARK                         _______ _______ _______ _____ _____    ______ ____
ROOT
ATOM      1  C   LIG    1        3.614   6.380   2.649  0.00  0.00    +0.250 C 
ENDROOT
BRANCH   1   2
ATOM      2  O   LIG    1        3.605   5.577   1.439  0.00  0.00    -0.340 OA
BRANCH   2   3
ATOM      3  C   LIG    1        2.531   4.797   1.233  0.00  0.00    +0.470 C 
ATOM      4  O   LIG    1        1.630   4.787   2.037  0.00  0.00    -0.490 OA
BRANCH   3   5
ATOM      5  C   LIG    1        2.451   3.936  -0.001  0.00  0.00    +0.080 C 
BRANCH   5   6
ATOM      6  C   LIG    1        1.156   3.166   0.007  0.00  0.00    -0.070 A 
ATOM      7  C   LIG    1        1.175   1.783   0.000  0.00  0.00    +0.040 A 
ATOM      8  C   LIG    1       -0.013   1.076   0.008  0.00  0.00    +0.030 A 
ATOM      9  C   LIG    1       -1.220   1.751   0.017  0.00  0.00    -0.030 A 
ATOM     10  C   LIG    1       -1.238   3.135   0.030  0.00  0.00    +0.030 A 
ATOM     11 CL   LIG    1       -2.712   0.864   0.020  0.00  0.00    -0.070 Cl
ATOM     12  C   LIG    1       -0.050   3.841   0.022  0.00  0.00    +0.060 A 
ENDBRANCH   5   6
BRANCH   5  14
ATOM     13  C   LIG    1        3.823   5.606  -1.256  0.00  0.00    +0.040 C 
ATOM     14  C   LIG    1        2.508   4.823  -1.247  0.00  0.00    +0.000 C 
ATOM     15  C   LIG    1        2.427   3.949  -2.499  0.00  0.00    +0.030 C 
ENDBRANCH   5  14
ENDBRANCH   3   5
ENDBRANCH   2   3
ENDBRANCH   1   2
BRANCH   1  16
ATOM     16  C   LIG    1        4.907   7.195   2.709  0.00  0.00    +0.230 C 
BRANCH  16  17
ATOM     17  O   LIG    1        4.929   8.134   1.633  0.00  0.00    -0.300 OA
BRANCH  17  18
ATOM     18  C   LIG    1        6.018   8.943   1.541  0.00  0.00    +0.190 A 
ATOM     19  C   LIG    1        7.041   8.838   2.473  0.00  0.00    -0.090 A 
ATOM     20  C   LIG    1        8.149   9.658   2.375  0.00  0.00    +0.170 A 
ATOM     21  C   LIG    1        8.234  10.589   1.356  0.00  0.00    -0.720 A 
ATOM     22  C   LIG    1        7.213  10.698   0.430  0.00  0.00    +0.170 A 
ATOM     23  C   LIG    1        6.105   9.878   0.520  0.00  0.00    -0.030 A 
BRANCH  21  24
ATOM     24  S   LIG    1        9.645  11.637   1.237  0.00  0.00    +2.710 S 
ATOM     25  O   LIG    1        9.725  12.050  -0.120  0.00  0.00    -0.960 OA
ATOM     26  O   LIG    1       10.701  10.965   1.909  0.00  0.00    -0.960 OA
BRANCH  24  27
ATOM     27  N   LIG    1        9.320  12.998   2.122  0.00  0.00    -1.250 NA
ATOM     28  H   LIG    1        9.980  13.706   2.183  0.00  0.00    +0.420 HD
ATOM     29  H   LIG    1        8.469  13.088   2.580  0.00  0.00    +0.420 HD
ENDBRANCH  24  27
ENDBRANCH  21  24
ENDBRANCH  17  18
ENDBRANCH  16  17
ENDBRANCH   1  16
TORSDOF 10
