REMARK  Name = ZINCrH000004reDE.0
REMARK                            x       y       z     vdW  Elec       q    Type
REMARK                         _______ _______ _______ _____ _____    ______ ____
ROOT
ATOM      1  C   LIG    1       -2.395   1.596   0.461  0.00  0.00    -0.150 A 
ATOM      2  C   LIG    1       -2.123   0.227   0.443  0.00  0.00    +0.120 A 
ATOM      3  C   LIG    1       -3.157  -0.677   0.312  0.00  0.00    +0.020 A 
ATOM      4  C   LIG    1       -4.461  -0.229   0.188  0.00  0.00    +0.080 A 
ATOM      5  C   LIG    1       -4.736   1.129   0.200  0.00  0.00    -0.680 A 
ATOM      6 CL   LIG    1       -5.756  -1.372   0.017  0.00  0.00    -0.030 Cl
ATOM      7  C   LIG    1       -3.712   2.042   0.335  0.00  0.00    +0.220 A 
ENDROOT
BRANCH   1  10
ATOM      8  N   LIG    1       -0.022   2.135   0.727  0.00  0.00    -0.720 N 
ATOM      9  H   LIG    1        0.168   1.184   0.719  0.00  0.00    +0.400 HD
ATOM     10  C   LIG    1       -1.292   2.569   0.606  0.00  0.00    +0.560 C 
ATOM     11  O   LIG    1       -1.531   3.761   0.616  0.00  0.00    -0.520 OA
BRANCH   8  12
ATOM     12  C   LIG    1        1.071   3.100   0.865  0.00  0.00    +0.320 C 
BRANCH  12  17
ATOM     13  C   LIG    1        6.094   0.275   1.290  0.00  0.00    +0.090 C 
ATOM     14  C   LIG    1        4.784   1.012   1.179  0.00  0.00    -0.070 A 
ATOM     15  C   LIG    1        4.303   1.383  -0.062  0.00  0.00    +0.010 A 
ATOM     16  C   LIG    1        3.102   2.059  -0.164  0.00  0.00    +0.030 A 
ATOM     17  C   LIG    1        2.381   2.363   0.976  0.00  0.00    -0.120 A 
ATOM     18  C   LIG    1        2.865   1.996   2.218  0.00  0.00    +0.020 A 
ATOM     19  C   LIG    1        4.063   1.315   2.319  0.00  0.00    +0.010 A 
ENDBRANCH  12  17
ENDBRANCH   8  12
ENDBRANCH   1  10
BRANCH   5  20
ATOM     20  S   LIG    1       -6.399   1.690   0.042  0.00  0.00    +2.690 S 
ATOM     21  O   LIG    1       -6.972   0.952  -1.029  0.00  0.00    -0.940 OA
ATOM     22  O   LIG    1       -6.347   3.110   0.066  0.00  0.00    -0.940 OA
BRANCH  20  23
ATOM     23  N   LIG    1       -7.205   1.228   1.413  0.00  0.00    -0.990 NA
ATOM     24  C   LIG    1       -8.022   0.007   1.425  0.00  0.00    +0.290 C 
ATOM     25  C   LIG    1       -7.563  -0.876   2.595  0.00  0.00    +0.010 C 
ATOM     26  C   LIG    1       -7.625  -0.066   3.892  0.00  0.00    +0.020 C 
ATOM     27  C   LIG    1       -6.677   1.132   3.793  0.00  0.00    -0.000 C 
ATOM     28  C   LIG    1       -7.121   2.035   2.638  0.00  0.00    +0.290 C 
ENDBRANCH  20  23
ENDBRANCH   5  20
TORSDOF 5
