REMARK  Name = ZINCqH0000034mWw.0
REMARK                            x       y       z     vdW  Elec       q    Type
REMARK                         _______ _______ _______ _____ _____    ______ ____
ROOT
ATOM      1  N   LIG    1       -5.486   2.755   3.786  0.00  0.00    -0.640 N 
ATOM      2  H   LIG    1       -5.491   3.298   2.982  0.00  0.00    +0.420 HD
ATOM      3  C   LIG    1       -4.781   1.607   3.819  0.00  0.00    +0.580 C 
ATOM      4  O   LIG    1       -4.774   0.926   4.827  0.00  0.00    -0.430 OA
ENDROOT
BRANCH   1  14
ATOM      5  N   LIG    1       -6.944   4.303   4.981  0.00  0.00    -0.500 N 
ATOM      6  C   LIG    1       -7.500   4.341   6.248  0.00  0.00    +0.050 A 
ATOM      7  C   LIG    1       -8.332   5.233   6.906  0.00  0.00    +0.020 A 
ATOM      8  C   LIG    1       -8.716   4.983   8.208  0.00  0.00    +0.030 A 
ATOM      9  C   LIG    1       -8.275   3.843   8.863  0.00  0.00    -0.090 A 
ATOM     10  C   LIG    1       -7.448   2.946   8.225  0.00  0.00    +0.060 A 
ATOM     11  C   LIG    1       -8.703   3.584  10.284  0.00  0.00    +0.100 C 
ATOM     12  C   LIG    1       -7.051   3.184   6.907  0.00  0.00    +0.070 A 
ATOM     13  N   LIG    1       -6.263   2.507   6.032  0.00  0.00    -0.470 NA
ATOM     14  C   LIG    1       -6.202   3.160   4.899  0.00  0.00    +0.500 A 
BRANCH   5  16
ATOM     15  C   LIG    1       -8.338   4.934   3.073  0.00  0.00    +0.040 C 
ATOM     16  C   LIG    1       -7.120   5.301   3.924  0.00  0.00    +0.290 C 
ENDBRANCH   5  16
ENDBRANCH   1  14
BRANCH   3  17
ATOM     17  C   LIG    1       -4.019   1.176   2.634  0.00  0.00    -0.150 A 
ATOM     18  C   LIG    1       -4.622   0.364   1.666  0.00  0.00    +0.110 A 
ATOM     19  C   LIG    1       -3.903  -0.036   0.557  0.00  0.00    +0.040 A 
ATOM     20  C   LIG    1       -2.586   0.360   0.398  0.00  0.00    +0.000 A 
ATOM     21  C   LIG    1       -1.976   1.163   1.348  0.00  0.00    +0.110 A 
ATOM     22  F   LIG    1       -5.907  -0.026   1.816  0.00  0.00    -0.120 F 
ATOM     23  C   LIG    1       -2.684   1.571   2.473  0.00  0.00    +0.130 A 
BRANCH  21  24
ATOM     24  O   LIG    1       -0.682   1.547   1.184  0.00  0.00    -0.300 OA
ATOM     25  C   LIG    1       -0.013   1.086   0.008  0.00  0.00    +0.250 C 
ENDBRANCH  21  24
BRANCH  23  26
ATOM     26  O   LIG    1       -2.086   2.353   3.408  0.00  0.00    -0.310 OA
ATOM     27  C   LIG    1       -2.189   3.767   3.233  0.00  0.00    +0.240 C 
ENDBRANCH  23  26
ENDBRANCH   3  17
TORSDOF 5
