REMARK  Name = ZINCrg000000tcLw.0
REMARK                            x       y       z     vdW  Elec       q    Type
REMARK                         _______ _______ _______ _____ _____    ______ ____
ROOT
ATOM      1  N   LIG    1        4.683   5.380  -4.352  0.00  0.00    -0.520 NA
ATOM      2  C   LIG    1        4.812   6.056  -3.054  0.00  0.00    +0.190 C 
ATOM      3  C   LIG    1        4.686   5.026  -1.930  0.00  0.00    +0.190 C 
ATOM      4  N   LIG    1        3.389   4.343  -2.038  0.00  0.00    -0.520 NA
ATOM      5  C   LIG    1        3.259   3.667  -3.337  0.00  0.00    +0.200 C 
ATOM      6  C   LIG    1        3.386   4.698  -4.461  0.00  0.00    +0.200 C 
ENDROOT
BRANCH   1   7
ATOM      7  C   LIG    1        4.874   6.326  -5.460  0.00  0.00    +0.220 C 
BRANCH   7   9
ATOM      8  O   LIG    1        4.903   4.356  -6.759  0.00  0.00    -0.520 OA
ATOM      9  C   LIG    1        4.980   5.566  -6.757  0.00  0.00    +0.510 C 
ATOM     10  N   LIG    1        5.159   6.231  -7.915  0.00  0.00    -0.730 N 
ATOM     11  H   LIG    1        5.221   7.199  -7.914  0.00  0.00    +0.400 HD
BRANCH  10  12
ATOM     12  C   LIG    1        5.262   5.492  -9.176  0.00  0.00    +0.320 C 
BRANCH  12  13
ATOM     13  C   LIG    1        5.458   6.463 -10.312  0.00  0.00    -0.120 A 
ATOM     14  C   LIG    1        4.361   6.978 -10.978  0.00  0.00    +0.070 A 
ATOM     15  C   LIG    1        4.540   7.873 -12.016  0.00  0.00    -0.020 A 
ATOM     16  C   LIG    1        5.818   8.243 -12.398  0.00  0.00    +0.110 A 
ATOM     17  C   LIG    1        6.916   7.721 -11.735  0.00  0.00    -0.020 A 
ATOM     18  F   LIG    1        5.994   9.112 -13.417  0.00  0.00    -0.140 F 
ATOM     19  C   LIG    1        6.735   6.832 -10.693  0.00  0.00    +0.070 A 
ENDBRANCH  12  13
ENDBRANCH  10  12
ENDBRANCH   7   9
ENDBRANCH   1   7
BRANCH   4  20
ATOM     20  C   LIG    1        3.197   3.397  -0.931  0.00  0.00    +0.200 C 
BRANCH  20  21
ATOM     21  C   LIG    1        1.774   2.902  -0.933  0.00  0.00    +0.520 C 
ATOM     22  N   LIG    1        1.366   2.019  -0.000  0.00  0.00    -0.620 N 
ATOM     23  C   LIG    1       -0.019   1.528   0.010  0.00  0.00    +0.270 C 
ATOM     24  C   LIG    1        0.002  -0.004   0.002  0.00  0.00    +0.010 C 
ATOM     25  C   LIG    1        0.856  -0.505   1.169  0.00  0.00    +0.020 C 
ATOM     26  C   LIG    1        2.292  -0.002   1.006  0.00  0.00    +0.010 C 
ATOM     27  C   LIG    1        2.297   1.530   1.025  0.00  0.00    +0.260 C 
ATOM     28  O   LIG    1        0.995   3.298  -1.775  0.00  0.00    -0.520 OA
ENDBRANCH  20  21
ENDBRANCH   4  20
TORSDOF 6
