REMARK  Name = ZINCvU00000006Vn.0
REMARK                            x       y       z     vdW  Elec       q    Type
REMARK                         _______ _______ _______ _____ _____    ______ ____
ROOT
ATOM      1  N   LIG    1        4.764   9.465   0.211  0.00  0.00    -0.540 NA
ATOM      2  C   LIG    1        3.817   9.896  -0.827  0.00  0.00    +0.180 C 
ATOM      3  C   LIG    1        2.411   9.411  -0.464  0.00  0.00    +0.190 C 
ATOM      4  N   LIG    1        2.418   7.947  -0.337  0.00  0.00    -0.520 NA
ATOM      5  C   LIG    1        3.365   7.516   0.701  0.00  0.00    +0.190 C 
ATOM      6  C   LIG    1        4.771   8.001   0.339  0.00  0.00    +0.180 C 
ENDROOT
BRANCH   1   7
ATOM      7  C   LIG    1        6.113   9.976  -0.063  0.00  0.00    +0.220 C 
BRANCH   7  11
ATOM      8  C   LIG    1        8.618   9.273   3.325  0.00  0.00    -0.070 A 
ATOM      9  C   LIG    1        8.524   8.322   2.326  0.00  0.00    +0.000 A 
ATOM     10  C   LIG    1        7.713   8.550   1.230  0.00  0.00    +0.010 A 
ATOM     11  C   LIG    1        6.997   9.728   1.133  0.00  0.00    -0.080 A 
ATOM     12  C   LIG    1        7.095  10.681   2.129  0.00  0.00    +0.020 A 
ATOM     13  C   LIG    1        7.902  10.451   3.228  0.00  0.00    +0.000 A 
BRANCH   8  15
ATOM     14  C   LIG    1       10.572  10.115   4.599  0.00  0.00    +0.040 C 
ATOM     15  C   LIG    1        9.501   9.025   4.521  0.00  0.00    +0.020 C 
ATOM     16  C   LIG    1        8.654   9.050   5.795  0.00  0.00    +0.040 C 
ENDBRANCH   8  15
ENDBRANCH   7  11
ENDBRANCH   1   7
BRANCH   4  17
ATOM     17  C   LIG    1        1.068   7.436  -0.063  0.00  0.00    +0.220 C 
BRANCH  17  18
ATOM     18  C   LIG    1        1.066   5.934  -0.181  0.00  0.00    +0.530 C 
ATOM     19  N   LIG    1       -0.071   5.243   0.029  0.00  0.00    -0.700 N 
ATOM     20  H   LIG    1       -0.904   5.715   0.185  0.00  0.00    +0.420 HD
ATOM     21  O   LIG    1        2.089   5.347  -0.466  0.00  0.00    -0.490 OA
BRANCH  19  22
ATOM     22  C   LIG    1       -0.052   3.843   0.022  0.00  0.00    +0.200 A 
ATOM     23  C   LIG    1       -0.136   3.151  -1.180  0.00  0.00    -0.030 A 
ATOM     24  C   LIG    1       -0.117   1.769  -1.183  0.00  0.00    +0.080 A 
ATOM     25  C   LIG    1       -0.013   1.076   0.009  0.00  0.00    +0.050 A 
ATOM     26  C   LIG    1        0.066   1.762   1.207  0.00  0.00    +0.090 A 
ATOM     27 CL   LIG    1       -0.267   4.022  -2.676  0.00  0.00    -0.040 Cl
ATOM     28  C   LIG    1        0.052   3.143   1.217  0.00  0.00    -0.170 A 
BRANCH  28  29
ATOM     29  C   LIG    1        0.144   3.889   2.523  0.00  0.00    +0.510 C 
ATOM     30  F   LIG    1       -1.000   4.677   2.692  0.00  0.00    -0.170 F 
ATOM     31  F   LIG    1        1.278   4.709   2.513  0.00  0.00    -0.170 F 
ATOM     32  F   LIG    1        0.240   2.974   3.577  0.00  0.00    -0.170 F 
ENDBRANCH  28  29
ENDBRANCH  19  22
ENDBRANCH  17  18
ENDBRANCH   4  17
TORSDOF 7
