REMARK  Name = ZINCvU0000000BnI.0
REMARK                            x       y       z     vdW  Elec       q    Type
REMARK                         _______ _______ _______ _____ _____    ______ ____
ROOT
ATOM      1  C   LIG    1       -0.131  -2.058  -1.962  0.00  0.00    +0.040 C 
ATOM      2  C   LIG    1        1.140  -2.693  -1.394  0.00  0.00    +0.170 C 
ATOM      3  C   LIG    1        1.016  -4.231  -1.425  0.00  0.00    +0.050 C 
ATOM      4  C   LIG    1        1.768  -4.615  -2.726  0.00  0.00    +0.040 C 
ATOM      5  C   LIG    1        2.910  -3.568  -2.746  0.00  0.00    +0.260 C 
ATOM      6  N   LIG    1        2.297  -2.332  -2.225  0.00  0.00    -0.600 N 
ATOM      7  C   LIG    1        2.728  -1.079  -2.471  0.00  0.00    +0.560 C 
ATOM      8  O   LIG    1        2.158  -0.131  -1.968  0.00  0.00    -0.490 OA
ENDROOT
BRANCH   7   9
ATOM      9  C   LIG    1        3.897  -0.856  -3.356  0.00  0.00    -0.020 A 
ATOM     10  C   LIG    1        5.169  -1.018  -2.886  0.00  0.00    -0.010 A 
ATOM     11  C   LIG    1        6.300  -0.796  -3.784  0.00  0.00    +0.540 A 
ATOM     12  N   LIG    1        6.108  -0.425  -5.062  0.00  0.00    -0.630 N 
ATOM     13  H   LIG    1        6.876  -0.280  -5.635  0.00  0.00    +0.420 HD
ATOM     14  C   LIG    1        4.840  -0.246  -5.573  0.00  0.00    +0.190 A 
ATOM     15  C   LIG    1        4.662   0.139  -6.899  0.00  0.00    -0.020 A 
ATOM     16  C   LIG    1        3.390   0.314  -7.397  0.00  0.00    +0.080 A 
ATOM     17  C   LIG    1        2.280   0.111  -6.589  0.00  0.00    -0.010 A 
ATOM     18  C   LIG    1        2.431  -0.265  -5.284  0.00  0.00    +0.080 A 
ATOM     19  O   LIG    1        7.435  -0.945  -3.367  0.00  0.00    -0.520 OA
ATOM     20  C   LIG    1        3.712  -0.450  -4.758  0.00  0.00    -0.110 A 
ENDBRANCH   7   9
BRANCH   2  21
ATOM     21  C   LIG    1        1.362  -2.217   0.043  0.00  0.00    +0.080 C 
BRANCH  21  22
ATOM     22  C   LIG    1        1.337  -0.711   0.082  0.00  0.00    -0.060 A 
ATOM     23  C   LIG    1        0.140  -0.035  -0.062  0.00  0.00    +0.080 A 
ATOM     24  C   LIG    1        0.116   1.346  -0.026  0.00  0.00    -0.010 A 
ATOM     25  C   LIG    1        1.292   2.054   0.155  0.00  0.00    +0.150 A 
ATOM     26  C   LIG    1        2.492   1.376   0.298  0.00  0.00    -0.210 A 
ATOM     27  F   LIG    1        1.270   3.404   0.190  0.00  0.00    -0.130 F 
ATOM     28  C   LIG    1        2.513  -0.005   0.262  0.00  0.00    +0.120 A 
BRANCH  26  29
ATOM     29  C   LIG    1        3.773   2.145   0.494  0.00  0.00    +0.510 C 
ATOM     30  F   LIG    1        3.680   2.918   1.656  0.00  0.00    -0.180 F 
ATOM     31  F   LIG    1        3.988   2.981  -0.606  0.00  0.00    -0.170 F 
ATOM     32  F   LIG    1        4.841   1.249   0.614  0.00  0.00    -0.180 F 
ENDBRANCH  26  29
ENDBRANCH  21  22
ENDBRANCH   2  21
TORSDOF 4
