REMARK  Name = ZINCnE000001IyWY.1
REMARK                            x       y       z     vdW  Elec       q    Type
REMARK                         _______ _______ _______ _____ _____    ______ ____
ROOT
ATOM      1  N   LIG    1        4.311   4.952   0.191  0.00  0.00    -1.080 NA
ENDROOT
BRANCH   1   5
ATOM      2  C   LIG    1        1.083   2.328   0.078  0.00  0.00    -0.260 A 
ATOM      3  C   LIG    1        2.390   1.834   0.021  0.00  0.00    +0.090 A 
ATOM      4  C   LIG    1        3.455   2.705   0.054  0.00  0.00    -0.180 A 
ATOM      5  C   LIG    1        3.232   4.076   0.153  0.00  0.00    +0.310 A 
ATOM      6  C   LIG    1        1.933   4.570   0.216  0.00  0.00    -0.070 A 
ATOM      7  C   LIG    1        0.863   3.705   0.179  0.00  0.00    +0.110 A 
BRANCH   2  10
ATOM      8  C   LIG    1       -1.023  -0.782  -0.470  0.00  0.00    +0.270 C 
ATOM      9  N   LIG    1        0.077   0.184  -0.530  0.00  0.00    -0.630 N 
ATOM     10  C   LIG    1       -0.061   1.398   0.039  0.00  0.00    +0.570 C 
ATOM     11  O   LIG    1       -1.130   1.728   0.514  0.00  0.00    -0.560 OA
ATOM     12  C   LIG    1        1.327  -0.170  -1.208  0.00  0.00    +0.290 C 
ENDBRANCH   2  10
ENDBRANCH   1   5
BRANCH   1  13
ATOM     13  S   LIG    1        5.858   4.366   0.117  0.00  0.00    +2.600 S 
ATOM     14  O   LIG    1        6.012   3.803  -1.178  0.00  0.00    -1.020 OA
ATOM     15  O   LIG    1        6.065   3.629   1.315  0.00  0.00    -1.020 OA
BRANCH  13  16
ATOM     16  C   LIG    1        6.945   5.751   0.191  0.00  0.00    -0.600 A 
ATOM     17  C   LIG    1        7.350   6.373  -0.975  0.00  0.00    +0.140 A 
ATOM     18  C   LIG    1        8.198   7.463  -0.919  0.00  0.00    +0.030 A 
ATOM     19  C   LIG    1        8.651   7.925   0.304  0.00  0.00    +0.010 A 
ATOM     20  C   LIG    1        8.250   7.298   1.471  0.00  0.00    -0.060 A 
ATOM     21 CL   LIG    1        8.817   7.876   3.007  0.00  0.00    -0.050 Cl
ATOM     22 CL   LIG    1        9.722   9.289   0.374  0.00  0.00    -0.050 Cl
ATOM     23  C   LIG    1        7.396   6.211   1.413  0.00  0.00    +0.160 A 
ENDBRANCH  13  16
ENDBRANCH   1  13
TORSDOF 4
