REMARK  Name = ZINCpe00000VSl6y.0
REMARK                            x       y       z     vdW  Elec       q    Type
REMARK                         _______ _______ _______ _____ _____    ______ ____
ROOT
ATOM      1  C   LIG    1       -4.809   2.526   0.062  0.00  0.00    +0.320 C 
ATOM      2  C   LIG    1       -5.339   2.954  -1.322  0.00  0.00    +0.060 C 
ATOM      3  C   LIG    1       -6.550   3.857  -0.967  0.00  0.00    +0.040 C 
ATOM      4  C   LIG    1       -6.050   4.556   0.322  0.00  0.00    +0.270 C 
ATOM      5  N   LIG    1       -5.279   3.522   1.037  0.00  0.00    -0.600 N 
ATOM      6  C   LIG    1       -5.044   3.494   2.364  0.00  0.00    +0.540 C 
ATOM      7  O   LIG    1       -4.394   2.591   2.846  0.00  0.00    -0.530 OA
ENDROOT
BRANCH   1  17
ATOM      8  C   LIG    1       -3.044  -0.013   0.033  0.00  0.00    +0.340 C 
ATOM      9  N   LIG    1       -2.546   1.365   0.034  0.00  0.00    -0.480 N 
ATOM     10  C   LIG    1       -1.222   1.757   0.017  0.00  0.00    +0.050 A 
ATOM     11  C   LIG    1       -0.013   1.076   0.008  0.00  0.00    +0.010 A 
ATOM     12  C   LIG    1        1.170   1.785   0.001  0.00  0.00    +0.030 A 
ATOM     13  C   LIG    1        1.159   3.172   0.007  0.00  0.00    +0.000 A 
ATOM     14  C   LIG    1       -0.022   3.859   0.022  0.00  0.00    +0.070 A 
ATOM     15  C   LIG    1       -1.233   3.162   0.030  0.00  0.00    +0.050 A 
ATOM     16  N   LIG    1       -2.535   3.547   0.044  0.00  0.00    -0.480 NA
ATOM     17  C   LIG    1       -3.302   2.496   0.047  0.00  0.00    +0.280 A 
ENDBRANCH   1  17
BRANCH   6  18
ATOM     18  C   LIG    1       -5.589   4.586   3.248  0.00  0.00    +0.090 C 
BRANCH  18  19
ATOM     19  C   LIG    1       -5.182   4.318   4.699  0.00  0.00    +0.250 C 
ATOM     20  N   LIG    1       -3.724   4.455   4.862  0.00  0.00    -0.710 N 
ATOM     21  H   LIG    1       -3.040   3.928   4.421  0.00  0.00    +0.450 HD
ATOM     22  C   LIG    1       -3.527   5.453   5.742  0.00  0.00    +0.700 C 
ATOM     23  N   LIG    1       -4.676   5.987   6.175  0.00  0.00    -0.680 N 
ATOM     24  H   LIG    1       -4.732   6.716   6.811  0.00  0.00    +0.440 HD
ATOM     25  O   LIG    1       -2.429   5.829   6.103  0.00  0.00    -0.540 OA
ATOM     26  C   LIG    1       -5.748   5.383   5.617  0.00  0.00    +0.530 C 
ATOM     27  O   LIG    1       -6.918   5.639   5.808  0.00  0.00    -0.460 OA
ENDBRANCH  18  19
ENDBRANCH   6  18
TORSDOF 3
