REMARK  Name = ZINCqH000003645U.1
REMARK                            x       y       z     vdW  Elec       q    Type
REMARK                         _______ _______ _______ _____ _____    ______ ____
ROOT
ATOM      1  C   LIG    1        3.306   1.791  -2.450  0.00  0.00    +0.140 A 
ATOM      2  C   LIG    1        3.943   2.929  -1.980  0.00  0.00    +0.010 A 
ATOM      3  C   LIG    1        4.126   4.014  -2.817  0.00  0.00    -0.050 A 
ATOM      4  C   LIG    1        3.666   3.971  -4.120  0.00  0.00    +0.020 A 
ATOM      5  C   LIG    1        3.025   2.841  -4.594  0.00  0.00    +0.010 A 
ATOM      6  C   LIG    1        2.842   1.748  -3.764  0.00  0.00    +0.080 A 
ENDROOT
BRANCH   1   7
ATOM      7  N   LIG    1        3.124   0.689  -1.606  0.00  0.00    -1.050 N 
ATOM      8  H   LIG    1        3.182  -0.211  -1.964  0.00  0.00    +0.430 HD
BRANCH   7   9
ATOM      9  S   LIG    1        2.812   0.922   0.004  0.00  0.00    +2.690 S 
ATOM     10  O   LIG    1        2.549  -0.363   0.551  0.00  0.00    -0.950 OA
ATOM     11  O   LIG    1        3.835   1.780   0.491  0.00  0.00    -0.950 OA
BRANCH   9  15
ATOM     12  C   LIG    1       -1.059   3.253   0.294  0.00  0.00    +0.190 A 
ATOM     13  C   LIG    1       -1.083   1.866   0.273  0.00  0.00    -0.090 A 
ATOM     14  C   LIG    1        0.099   1.157   0.190  0.00  0.00    +0.160 A 
ATOM     15  C   LIG    1        1.306   1.829   0.117  0.00  0.00    -0.720 A 
ATOM     16  C   LIG    1        1.332   3.211   0.132  0.00  0.00    +0.170 A 
ATOM     17  C   LIG    1        0.152   3.925   0.220  0.00  0.00    -0.030 A 
BRANCH  12  19
ATOM     18  C   LIG    1       -3.431   3.195   0.454  0.00  0.00    +0.250 C 
ATOM     19  O   LIG    1       -2.221   3.953   0.381  0.00  0.00    -0.310 OA
ENDBRANCH  12  19
ENDBRANCH   9  15
ENDBRANCH   7   9
ENDBRANCH   1   7
BRANCH   6  20
ATOM     20  O   LIG    1        2.212   0.636  -4.228  0.00  0.00    -0.490 OA
ATOM     21  H   LIG    1        1.253   0.645  -4.099  0.00  0.00    +0.390 HD
ENDBRANCH   6  20
BRANCH   3  22
ATOM     22  C   LIG    1        4.824   5.249  -2.307  0.00  0.00    +0.130 C 
BRANCH  22  23
ATOM     23  C   LIG    1        3.808   6.190  -1.713  0.00  0.00    -0.080 A 
ATOM     24  C   LIG    1        3.205   7.147  -2.508  0.00  0.00    +0.010 A 
ATOM     25  C   LIG    1        2.269   8.007  -1.964  0.00  0.00    +0.000 A 
ATOM     26  C   LIG    1        1.944   7.917  -0.624  0.00  0.00    +0.000 A 
ATOM     27  C   LIG    1        2.551   6.964   0.172  0.00  0.00    +0.000 A 
ATOM     28  C   LIG    1        3.483   6.100  -0.372  0.00  0.00    +0.010 A 
ENDBRANCH  22  23
ENDBRANCH   3  22
TORSDOF 7
