REMARK  Name = ZINCfA000000Jm2N.0
REMARK                            x       y       z     vdW  Elec       q    Type
REMARK                         _______ _______ _______ _____ _____    ______ ____
ROOT
ATOM      1  C   LIG    1       -0.149   1.182   2.380  0.00  0.00    +0.160 A 
ATOM      2  C   LIG    1        0.991   0.392   2.421  0.00  0.00    -0.070 A 
ATOM      3  C   LIG    1        1.533   0.027   3.638  0.00  0.00    -0.000 A 
ATOM      4  C   LIG    1        0.935   0.440   4.814  0.00  0.00    -0.020 A 
ATOM      5  C   LIG    1       -0.204   1.223   4.776  0.00  0.00    +0.090 A 
ATOM      6  C   LIG    1        2.774  -0.827   3.683  0.00  0.00    +0.120 C 
ATOM      7  C   LIG    1       -0.747   1.595   3.562  0.00  0.00    -0.210 A 
ENDROOT
BRANCH   1   8
ATOM      8  O   LIG    1       -0.682   1.547   1.184  0.00  0.00    -0.330 OA
BRANCH   8   9
ATOM      9  C   LIG    1       -0.013   1.086   0.008  0.00  0.00    +0.200 C 
BRANCH   9  10
ATOM     10  C   LIG    1       -0.753   1.593  -1.232  0.00  0.00    +0.030 C 
BRANCH  10  11
ATOM     11  C   LIG    1       -0.037   1.099  -2.490  0.00  0.00    +0.020 C 
BRANCH  11  13
ATOM     12  C   LIG    1       -0.060   1.113  -4.989  0.00  0.00    +0.020 C 
ATOM     13  C   LIG    1       -0.777   1.606  -3.730  0.00  0.00    +0.000 C 
ENDBRANCH  11  13
ENDBRANCH  10  11
ENDBRANCH   9  10
ENDBRANCH   8   9
ENDBRANCH   1   8
BRANCH   7  14
ATOM     14  C   LIG    1       -1.989   2.447   3.521  0.00  0.00    +0.340 C 
BRANCH  14  15
ATOM     15  N   LIG    1       -3.159   1.595   3.269  0.00  0.00    -0.640 N 
ATOM     16  H   LIG    1       -3.991   2.166   3.241  0.00  0.00    +0.440 HD
ATOM     17  H   LIG    1       -3.244   0.913   4.007  0.00  0.00    +0.430 HD
ATOM     18  H   LIG    1       -3.047   1.122   2.385  0.00  0.00    +0.430 HD
ENDBRANCH  14  15
ENDBRANCH   7  14
TORSDOF 7
