REMARK  Name = ZINCvU00000009Au.0
REMARK                            x       y       z     vdW  Elec       q    Type
REMARK                         _______ _______ _______ _____ _____    ______ ____
ROOT
ATOM      1  O   LIG    1       -4.620   0.348   0.027  0.00  0.00    -0.480 OA
ATOM      2  C   LIG    1       -4.793   1.549   0.034  0.00  0.00    +0.560 C 
ATOM      3  N   LIG    1       -6.045   2.049   0.043  0.00  0.00    -0.460 N 
ATOM      4  N   LIG    1       -6.377   3.402   0.051  0.00  0.00    -0.240 NA
ATOM      5  C   LIG    1       -7.644   3.634   0.058  0.00  0.00    +0.160 C 
ATOM      6  C   LIG    1       -8.397   2.322   0.055  0.00  0.00    +0.110 C 
ATOM      7  C   LIG    1       -7.284   1.255   0.039  0.00  0.00    +0.330 C 
ENDROOT
BRANCH   5   8
ATOM      8  C   LIG    1       -8.265   4.971   0.066  0.00  0.00    -0.040 A 
ATOM      9  C   LIG    1       -9.656   5.099   0.067  0.00  0.00    +0.070 A 
ATOM     10  C   LIG    1      -10.230   6.353   0.081  0.00  0.00    +0.030 A 
ATOM     11  C   LIG    1       -9.431   7.484   0.083  0.00  0.00    -0.020 A 
ATOM     12  C   LIG    1       -8.051   7.364   0.076  0.00  0.00    +0.030 A 
ATOM     13 CL   LIG    1      -10.162   9.058   0.094  0.00  0.00    -0.060 Cl
ATOM     14  C   LIG    1       -7.464   6.116   0.068  0.00  0.00    +0.080 A 
ENDBRANCH   5   8
BRANCH   7  15
ATOM     15  C   LIG    1       -7.371   0.414  -1.208  0.00  0.00    -0.040 A 
ATOM     16  C   LIG    1       -7.843  -0.844  -1.277  0.00  0.00    -0.030 A 
ATOM     17  C   LIG    1       -7.740  -1.246  -2.629  0.00  0.00    -0.060 A 
ATOM     18  C   LIG    1       -7.213  -0.210  -3.305  0.00  0.00    +0.180 A 
ATOM     19  O   LIG    1       -6.996   0.795  -2.440  0.00  0.00    -0.170 OA
ENDBRANCH   7  15
BRANCH   2  20
ATOM     20  C   LIG    1       -3.609   2.481   0.033  0.00  0.00    +0.270 C 
BRANCH  20  21
ATOM     21  O   LIG    1       -2.402   1.717   0.023  0.00  0.00    -0.270 OA
BRANCH  21  22
ATOM     22  C   LIG    1       -1.233   2.410   0.021  0.00  0.00    +0.190 A 
ATOM     23  C   LIG    1       -1.248   3.797   0.033  0.00  0.00    -0.040 A 
ATOM     24  C   LIG    1       -0.058   4.500   0.026  0.00  0.00    +0.170 A 
ATOM     25  C   LIG    1        1.147   3.823   0.011  0.00  0.00    -0.070 A 
ATOM     26  C   LIG    1        1.165   2.440   0.004  0.00  0.00    +0.160 A 
ATOM     27  C   LIG    1       -0.021   1.732   0.012  0.00  0.00    -0.070 A 
ATOM     28 CL   LIG    1        0.002  -0.004   0.002  0.00  0.00    -0.020 Cl
BRANCH  25  29
ATOM     29  N   LIG    1        2.419   4.579   0.004  0.00  0.00    +0.030 N 
ATOM     30  O   LIG    1        2.404   5.796   0.010  0.00  0.00    -0.150 OA
ATOM     31  O   LIG    1        3.482   3.983  -0.009  0.00  0.00    -0.150 OA
ENDBRANCH  25  29
ENDBRANCH  21  22
ENDBRANCH  20  21
ENDBRANCH   2  20
TORSDOF 6
