REMARK  Name = ZINCrD0000072BAz.0
REMARK                            x       y       z     vdW  Elec       q    Type
REMARK                         _______ _______ _______ _____ _____    ______ ____
ROOT
ATOM      1  C   LIG    1       -1.133   4.789  -2.332  0.00  0.00    +0.570 C 
ATOM      2  N   LIG    1       -0.376   3.864  -1.709  0.00  0.00    -0.730 N 
ATOM      3  H   LIG    1       -0.008   3.120  -2.211  0.00  0.00    +0.400 HD
ATOM      4  O   LIG    1       -1.594   5.721  -1.702  0.00  0.00    -0.540 OA
ENDROOT
BRANCH   2   5
ATOM      5  C   LIG    1       -0.110   3.982  -0.273  0.00  0.00    +0.270 C 
ATOM      6  C   LIG    1       -1.251   3.329   0.519  0.00  0.00    +0.030 C 
ATOM      7  C   LIG    1       -1.428   1.891   0.023  0.00  0.00    +0.070 C 
ATOM      8  C   LIG    1       -0.109   1.174   0.020  0.00  0.00    +0.520 C 
ATOM      9  N   LIG    1        1.070   1.804   0.018  0.00  0.00    -0.710 N 
ATOM     10  H   LIG    1        1.880   1.272  -0.019  0.00  0.00    +0.400 HD
ATOM     11  O   LIG    1       -0.113  -0.039   0.013  0.00  0.00    -0.550 OA
ATOM     12  C   LIG    1        1.190   3.256   0.071  0.00  0.00    +0.130 C 
ATOM     13  C   LIG    1        2.408   3.801  -0.687  0.00  0.00    +0.030 C 
ATOM     14  C   LIG    1        2.587   4.793   0.476  0.00  0.00    +0.030 C 
ATOM     15  C   LIG    1        1.849   3.772   1.358  0.00  0.00    +0.030 C 
ENDBRANCH   2   5
BRANCH   1  19
ATOM     16  C   LIG    1       -1.903   4.448  -6.494  0.00  0.00    +0.250 A 
ATOM     17  C   LIG    1       -2.433   5.516  -5.775  0.00  0.00    -0.080 A 
ATOM     18  C   LIG    1       -2.185   5.630  -4.426  0.00  0.00    +0.130 A 
ATOM     19  C   LIG    1       -1.400   4.671  -3.778  0.00  0.00    -0.210 A 
ATOM     20  C   LIG    1       -0.866   3.603  -4.504  0.00  0.00    +0.090 A 
ATOM     21  C   LIG    1       -1.122   3.492  -5.851  0.00  0.00    -0.080 A 
BRANCH  16  23
ATOM     22  C   LIG    1       -3.081   5.267  -8.509  0.00  0.00    +0.270 C 
ATOM     23  N   LIG    1       -2.156   4.337  -7.857  0.00  0.00    -0.620 N 
BRANCH  23  24
ATOM     24  C   LIG    1       -1.498   3.288  -8.640  0.00  0.00    +0.230 C 
ATOM     25  C   LIG    1       -0.567   3.930  -9.671  0.00  0.00    +0.010 C 
ATOM     26  C   LIG    1        0.120   2.835 -10.489  0.00  0.00    +0.010 C 
ATOM     27  C   LIG    1       -0.937   1.997 -11.209  0.00  0.00    +0.000 C 
ATOM     28  C   LIG    1       -1.868   1.355 -10.179  0.00  0.00    +0.010 C 
ATOM     29  C   LIG    1       -2.556   2.450  -9.360  0.00  0.00    +0.010 C 
ENDBRANCH  23  24
ENDBRANCH  16  23
ENDBRANCH   1  19
TORSDOF 4
