REMARK  Name = ZINCvU0000000GqI.0
REMARK                            x       y       z     vdW  Elec       q    Type
REMARK                         _______ _______ _______ _____ _____    ______ ____
ROOT
ATOM      1  C   LIG    1       -4.233   6.928   1.701  0.00  0.00    +0.110 A 
ATOM      2  C   LIG    1       -3.338   6.477   0.748  0.00  0.00    -0.030 A 
ATOM      3  C   LIG    1       -2.461   5.438   1.036  0.00  0.00    -0.060 A 
ATOM      4  C   LIG    1       -2.479   4.857   2.284  0.00  0.00    -0.090 A 
ATOM      5  C   LIG    1       -1.548   3.739   2.665  0.00  0.00    +0.400 C 
ATOM      6  N   LIG    1       -0.862   3.233   1.472  0.00  0.00    -0.610 N 
ATOM      7  C   LIG    1       -0.336   4.228   0.522  0.00  0.00    +0.280 C 
ATOM      8  C   LIG    1       -0.723   1.911   1.250  0.00  0.00    +0.530 C 
ATOM      9  O   LIG    1       -1.165   1.112   2.048  0.00  0.00    -0.500 OA
ATOM     10  C   LIG    1       -3.379   5.304   3.244  0.00  0.00    -0.020 A 
ATOM     11  C   LIG    1       -1.523   4.997  -0.057  0.00  0.00    +0.090 C 
ATOM     12  C   LIG    1       -4.255   6.335   2.960  0.00  0.00    +0.110 A 
ENDROOT
BRANCH   5  13
ATOM     13  C   LIG    1       -0.530   4.253   3.649  0.00  0.00    -0.190 A 
ATOM     14  C   LIG    1       -0.584   4.084   4.971  0.00  0.00    +0.020 A 
ATOM     15  C   LIG    1        0.467   4.646   5.675  0.00  0.00    +0.010 A 
ATOM     16  C   LIG    1        1.375   5.271   4.925  0.00  0.00    -0.050 A 
ATOM     17  S   LIG    1        0.917   5.160   3.230  0.00  0.00    +0.110 S 
ENDBRANCH   5  13
BRANCH   1  19
ATOM     18  C   LIG    1       -5.006   8.505   0.097  0.00  0.00    +0.250 C 
ATOM     19  O   LIG    1       -5.087   7.945   1.409  0.00  0.00    -0.300 OA
ENDBRANCH   1  19
BRANCH  12  20
ATOM     20  O   LIG    1       -5.134   6.766   3.904  0.00  0.00    -0.300 OA
ATOM     21  C   LIG    1       -5.098   6.109   5.172  0.00  0.00    +0.240 C 
ENDBRANCH  12  20
BRANCH   8  22
ATOM     22  C   LIG    1       -0.017   1.425   0.010  0.00  0.00    +0.240 C 
BRANCH  22  23
ATOM     23  O   LIG    1        0.002  -0.004   0.002  0.00  0.00    -0.290 OA
BRANCH  23  24
ATOM     24  C   LIG    1        0.606  -0.607  -1.056  0.00  0.00    +0.140 A 
ATOM     25  C   LIG    1        1.163   0.161  -2.068  0.00  0.00    -0.070 A 
ATOM     26  C   LIG    1        1.781  -0.454  -3.140  0.00  0.00    +0.080 A 
ATOM     27  C   LIG    1        1.834  -1.835  -3.210  0.00  0.00    -0.080 A 
ATOM     28  C   LIG    1        1.274  -2.603  -2.204  0.00  0.00    -0.030 A 
ATOM     29  C   LIG    1        1.335  -4.106  -2.282  0.00  0.00    +0.120 C 
ATOM     30 CL   LIG    1        2.605  -2.605  -4.561  0.00  0.00    -0.070 Cl
ATOM     31  C   LIG    1        0.661  -1.992  -1.128  0.00  0.00    +0.000 A 
ENDBRANCH  23  24
ENDBRANCH  22  23
ENDBRANCH   8  22
TORSDOF 6
