REMARK  Name = ZINCtV00000L6jCf.0
REMARK                            x       y       z     vdW  Elec       q    Type
REMARK                         _______ _______ _______ _____ _____    ______ ____
ROOT
ATOM      1  C   LIG    1       -2.720   3.682   0.047  0.00  0.00    -0.230 A 
ATOM      2  C   LIG    1       -1.396   3.419   0.050  0.00  0.00    +0.280 A 
ATOM      3  N   LIG    1       -1.238   2.070   0.048  0.00  0.00    -0.320 N 
ATOM      4  N   LIG    1       -2.510   1.484   0.039  0.00  0.00    -0.260 NA
ATOM      5  C   LIG    1       -3.407   2.450   0.044  0.00  0.00    +0.170 A 
ENDROOT
BRANCH   3   6
ATOM      6  C   LIG    1       -0.016   1.385   0.049  0.00  0.00    +0.160 A 
ATOM      7  C   LIG    1        1.179   2.092   0.046  0.00  0.00    -0.010 A 
ATOM      8  C   LIG    1        2.382   1.414   0.042  0.00  0.00    +0.050 A 
ATOM      9  C   LIG    1        2.397   0.031   0.040  0.00  0.00    +0.000 A 
ATOM     10  C   LIG    1        1.209  -0.677   0.042  0.00  0.00    +0.040 A 
ATOM     11  C   LIG    1        0.003  -0.004   0.047  0.00  0.00    +0.020 A 
ENDBRANCH   3   6
BRANCH   5  12
ATOM     12  C   LIG    1       -4.875   2.272   0.041  0.00  0.00    -0.140 A 
ATOM     13  C   LIG    1       -5.538   1.285  -0.593  0.00  0.00    +0.060 A 
ATOM     14  C   LIG    1       -6.910   1.328  -0.450  0.00  0.00    +0.010 A 
ATOM     15  C   LIG    1       -7.370   2.339   0.293  0.00  0.00    -0.030 A 
ATOM     16  S   LIG    1       -6.025   3.313   0.870  0.00  0.00    +0.140 S 
ENDBRANCH   5  12
BRANCH   1  17
ATOM     17  C   LIG    1       -3.353   5.050   0.048  0.00  0.00    +0.350 C 
BRANCH  17  18
ATOM     18  O   LIG    1       -2.314   6.064   0.051  0.00  0.00    -0.360 OA
BRANCH  18  20
ATOM     19  O   LIG    1       -3.901   7.616   0.050  0.00  0.00    -0.540 OA
ATOM     20  C   LIG    1       -2.715   7.349   0.052  0.00  0.00    +0.660 C 
ATOM     21  N   LIG    1       -1.801   8.340   0.056  0.00  0.00    -0.650 N 
ATOM     22  H   LIG    1       -0.857   8.129   0.125  0.00  0.00    +0.420 HD
BRANCH  21  23
ATOM     23  C   LIG    1       -2.215   9.674  -0.042  0.00  0.00    +0.180 A 
ATOM     24  C   LIG    1       -3.400  10.080   0.557  0.00  0.00    +0.060 A 
ATOM     25  C   LIG    1       -3.806  11.397   0.461  0.00  0.00    +0.070 A 
ATOM     26  C   LIG    1       -3.033  12.312  -0.231  0.00  0.00    -0.040 A 
ATOM     27  C   LIG    1       -1.850  11.910  -0.830  0.00  0.00    -0.010 A 
ATOM     28 CL   LIG    1       -0.882  13.061  -1.697  0.00  0.00    -0.040 Cl
ATOM     29 CL   LIG    1       -3.546  13.966  -0.350  0.00  0.00    -0.040 Cl
ATOM     30  C   LIG    1       -1.437  10.595  -0.731  0.00  0.00    +0.030 A 
ENDBRANCH  21  23
ENDBRANCH  18  20
ENDBRANCH  17  18
ENDBRANCH   1  17
TORSDOF 6
