REMARK  Name = ZINCrD00000F5Lou.0
REMARK                            x       y       z     vdW  Elec       q    Type
REMARK                         _______ _______ _______ _____ _____    ______ ____
ROOT
ATOM      1  O   LIG    1       -1.943   0.794   1.117  0.00  0.00    -0.320 OA
ENDROOT
BRANCH   1   2
ATOM      2  C   LIG    1       -0.674   1.445   1.195  0.00  0.00    +0.180 C 
ATOM      3  C   LIG    1        0.138   1.133  -0.064  0.00  0.00    +0.070 C 
BRANCH   2   6
ATOM      4  N   LIG    1        1.254   1.502   2.743  0.00  0.00    -0.670 N 
ATOM      5  H   LIG    1        1.664   2.162   2.162  0.00  0.00    +0.410 HD
ATOM      6  C   LIG    1        0.070   0.952   2.409  0.00  0.00    +0.520 C 
ATOM      7  O   LIG    1       -0.396   0.059   3.084  0.00  0.00    -0.490 OA
BRANCH   4  13
ATOM      8  C   LIG    1        5.410   0.671   5.234  0.00  0.00    +0.090 C 
ATOM      9  C   LIG    1        3.906   0.710   5.165  0.00  0.00    -0.070 A 
ATOM     10  C   LIG    1        3.154   0.371   6.274  0.00  0.00    -0.010 A 
ATOM     11  C   LIG    1        1.773   0.405   6.214  0.00  0.00    +0.040 A 
ATOM     12  C   LIG    1        1.140   0.785   5.047  0.00  0.00    +0.000 A 
ATOM     13  C   LIG    1        1.892   1.122   3.929  0.00  0.00    +0.150 A 
ATOM     14  C   LIG    1        3.279   1.086   3.993  0.00  0.00    -0.010 A 
ENDBRANCH   4  13
ENDBRANCH   2   6
ENDBRANCH   1   2
BRANCH   1  15
ATOM     15  C   LIG    1       -2.951   1.483   0.543  0.00  0.00    +0.510 C 
ATOM     16  O   LIG    1       -2.757   2.607   0.121  0.00  0.00    -0.510 OA
BRANCH  15  17
ATOM     17  C   LIG    1       -4.238   0.897   0.432  0.00  0.00    -0.060 C 
ATOM     18  C   LIG    1       -5.247   1.587  -0.142  0.00  0.00    +0.160 C 
BRANCH  18  19
ATOM     19  C   LIG    1       -6.580   0.980  -0.257  0.00  0.00    -0.090 A 
ATOM     20  C   LIG    1       -6.808  -0.313   0.228  0.00  0.00    +0.060 A 
ATOM     21  C   LIG    1       -8.058  -0.878   0.118  0.00  0.00    +0.020 A 
ATOM     22  C   LIG    1       -9.098  -0.171  -0.473  0.00  0.00    +0.070 A 
ATOM     23  O   LIG    1      -10.324  -0.752  -0.575  0.00  0.00    -0.300 OA
ATOM     24  C   LIG    1      -11.431   0.118  -0.831  0.00  0.00    +0.230 C 
ATOM     25  C   LIG    1      -11.036   1.079  -1.961  0.00  0.00    +0.230 C 
ATOM     26  O   LIG    1       -9.891   1.825  -1.534  0.00  0.00    -0.310 OA
ATOM     27  C   LIG    1       -8.880   1.118  -0.957  0.00  0.00    +0.040 A 
ATOM     28  C   LIG    1       -7.630   1.695  -0.846  0.00  0.00    +0.060 A 
ENDBRANCH  18  19
ENDBRANCH  15  17
ENDBRANCH   1  15
TORSDOF 6
