REMARK  Name = ZINCpe00000VVGV2.2
REMARK                            x       y       z     vdW  Elec       q    Type
REMARK                         _______ _______ _______ _____ _____    ______ ____
ROOT
ATOM      1  C   LIG    1       -0.499   3.043   2.611  0.00  0.00    +0.060 C 
ATOM      2  C   LIG    1        0.376   1.880   2.139  0.00  0.00    +0.180 C 
ENDROOT
BRANCH   2   3
ATOM      3  C   LIG    1        1.220   2.327   0.973  0.00  0.00    +0.490 C 
ATOM      4  N   LIG    1        2.438   2.861   1.188  0.00  0.00    -0.610 N 
ATOM      5  C   LIG    1        2.998   2.923   2.545  0.00  0.00    +0.260 C 
ATOM      6  C   LIG    1        3.411   4.363   2.847  0.00  0.00    +0.030 C 
ATOM      7  C   LIG    1        4.358   4.860   1.752  0.00  0.00    +0.030 C 
ATOM      8  C   LIG    1        3.637   4.835   0.402  0.00  0.00    -0.020 C 
ATOM      9  C   LIG    1        3.229   3.396   0.072  0.00  0.00    +0.310 C 
ATOM     10  O   LIG    1        0.802   2.207  -0.160  0.00  0.00    -0.530 OA
BRANCH   8  11
ATOM     11  C   LIG    1        4.559   5.355  -0.670  0.00  0.00    +0.530 C 
ATOM     12  O   LIG    1        4.862   4.646  -1.606  0.00  0.00    -0.540 OA
ATOM     13  N   LIG    1        5.049   6.609  -0.588  0.00  0.00    -0.850 N 
ATOM     14  H   LIG    1        5.642   6.943  -1.279  0.00  0.00    +0.400 HD
ATOM     15  H   LIG    1        4.807   7.176   0.160  0.00  0.00    +0.400 HD
ENDBRANCH   8  11
ENDBRANCH   2   3
BRANCH   2  16
ATOM     16  N   LIG    1       -0.480   0.761   1.723  0.00  0.00    -0.480 NA
ATOM     17  C   LIG    1       -1.480   1.200   0.741  0.00  0.00    +0.170 C 
ATOM     18  C   LIG    1       -2.442   0.048   0.441  0.00  0.00    +0.020 C 
ATOM     19  C   LIG    1       -1.650  -1.143  -0.106  0.00  0.00    +0.000 C 
ATOM     20  C   LIG    1       -0.584  -1.549   0.915  0.00  0.00    +0.020 C 
ATOM     21  C   LIG    1        0.324  -0.351   1.201  0.00  0.00    +0.130 C 
BRANCH  21  22
ATOM     22  C   LIG    1        1.379  -0.747   2.236  0.00  0.00    +0.310 C 
BRANCH  22  23
ATOM     23  N   LIG    1        0.716  -1.169   3.472  0.00  0.00    -0.360 N 
ATOM     24  C   LIG    1        0.880  -2.354   4.097  0.00  0.00    +0.210 A 
ATOM     25  C   LIG    1        0.095  -2.352   5.199  0.00  0.00    -0.130 A 
ATOM     26  C   LIG    1       -0.572  -1.124   5.250  0.00  0.00    +0.210 A 
ATOM     27  N   LIG    1       -0.196  -0.411   4.218  0.00  0.00    -0.250 NA
ENDBRANCH  22  23
ENDBRANCH  21  22
ENDBRANCH   2  16
TORSDOF 5
