REMARK  Name = ZINCpk00000FabeF.0
REMARK                            x       y       z     vdW  Elec       q    Type
REMARK                         _______ _______ _______ _____ _____    ______ ____
ROOT
ATOM      1  O   LIG    1        0.045   3.569   0.021  0.00  0.00    -0.510 OA
ATOM      2  C   LIG    1        1.147   3.062   0.008  0.00  0.00    +0.510 C 
ATOM      3  N   LIG    1        2.247   3.841   0.001  0.00  0.00    -0.620 N 
ATOM      4  C   LIG    1        3.588   3.241  -0.009  0.00  0.00    +0.270 C 
ATOM      5  C   LIG    1        4.363   3.804  -1.212  0.00  0.00    +0.270 C 
ATOM      6  N   LIG    1        4.242   5.269  -1.203  0.00  0.00    -0.610 N 
ATOM      7  C   LIG    1        2.901   5.869  -1.188  0.00  0.00    +0.280 C 
ATOM      8  C   LIG    1        5.342   6.048  -1.209  0.00  0.00    +0.540 C 
ATOM      9  O   LIG    1        5.230   7.255  -1.202  0.00  0.00    -0.510 OA
ATOM     10  C   LIG    1        2.126   5.306   0.010  0.00  0.00    +0.280 C 
ENDROOT
BRANCH   8  11
ATOM     11  C   LIG    1        6.711   5.418  -1.225  0.00  0.00    -0.050 C 
ATOM     12  C   LIG    1        7.572   5.567   0.031  0.00  0.00    +0.090 C 
ATOM     13  C   LIG    1        7.920   6.356  -1.232  0.00  0.00    +0.030 C 
BRANCH  13  14
ATOM     14  C   LIG    1        7.651   7.839  -1.222  0.00  0.00    +0.000 A 
ATOM     15  C   LIG    1        6.948   8.407  -0.176  0.00  0.00    +0.060 A 
ATOM     16  C   LIG    1        6.700   9.767  -0.168  0.00  0.00    +0.040 A 
ATOM     17  C   LIG    1        7.157  10.559  -1.204  0.00  0.00    +0.010 A 
ATOM     18  C   LIG    1        7.860   9.991  -2.250  0.00  0.00    +0.050 A 
ATOM     19  C   LIG    1        8.111   8.632  -2.257  0.00  0.00    -0.180 A 
BRANCH  19  20
ATOM     20  C   LIG    1        8.883   8.014  -3.394  0.00  0.00    +0.510 C 
ATOM     21  F   LIG    1        8.087   7.056  -4.032  0.00  0.00    -0.180 F 
ATOM     22  F   LIG    1       10.039   7.404  -2.896  0.00  0.00    -0.180 F 
ATOM     23  F   LIG    1        9.239   9.009  -4.311  0.00  0.00    -0.180 F 
ENDBRANCH  19  20
ENDBRANCH  13  14
ENDBRANCH   8  11
BRANCH   2  24
ATOM     24  C   LIG    1        1.286   1.562  -0.002  0.00  0.00    +0.220 C 
BRANCH  24  25
ATOM     25  O   LIG    1       -0.011   0.963   0.007  0.00  0.00    -0.550 OA
ATOM     26  H   LIG    1        0.002  -0.004   0.002  0.00  0.00    +0.390 HD
ENDBRANCH  24  25
ENDBRANCH   2  24
TORSDOF 5
