REMARK  Name = ZINCpe00000c2qkC.0
REMARK                            x       y       z     vdW  Elec       q    Type
REMARK                         _______ _______ _______ _____ _____    ______ ____
ROOT
ATOM      1  C   LIG    1       -2.676   5.656  10.354  0.00  0.00    +0.610 C 
ATOM      2  N   LIG    1       -2.929   5.479   9.042  0.00  0.00    -0.620 N 
ATOM      3  C   LIG    1       -2.502   6.378   7.958  0.00  0.00    +0.230 C 
ATOM      4  C   LIG    1       -2.996   5.763   6.628  0.00  0.00    +0.060 C 
ATOM      5  C   LIG    1       -3.221   4.293   6.998  0.00  0.00    -0.090 C 
ATOM      6  C   LIG    1       -4.252   3.617   6.086  0.00  0.00    +0.060 C 
ATOM      7  C   LIG    1       -3.384   3.101   4.915  0.00  0.00    +0.250 C 
ATOM      8  N   LIG    1       -1.995   3.025   5.398  0.00  0.00    -0.620 N 
ATOM      9  C   LIG    1       -0.931   2.636   4.668  0.00  0.00    +0.610 C 
ATOM     10  O   LIG    1        0.175   2.611   5.172  0.00  0.00    -0.550 OA
ATOM     11  C   LIG    1       -1.961   3.441   6.816  0.00  0.00    +0.280 C 
ATOM     12  C   LIG    1       -3.682   4.350   8.456  0.00  0.00    +0.300 C 
ATOM     13  O   LIG    1       -3.080   4.846  11.166  0.00  0.00    -0.530 OA
ENDROOT
BRANCH   1  20
ATOM     14  C   LIG    1       -1.925   6.343  13.360  0.00  0.00    +0.170 C 
ATOM     15  C   LIG    1       -1.569   7.150  12.138  0.00  0.00    +0.140 A 
ATOM     16  N   LIG    1       -0.890   8.264  12.126  0.00  0.00    -0.300 NA
ATOM     17  N   LIG    1       -0.767   8.706  10.804  0.00  0.00    -0.460 N 
ATOM     18  H   LIG    1       -0.308   9.511  10.516  0.00  0.00    +0.450 HD
ATOM     19  C   LIG    1       -1.386   7.825  10.002  0.00  0.00    +0.280 A 
ATOM     20  C   LIG    1       -1.910   6.832  10.804  0.00  0.00    -0.290 A 
ENDBRANCH   1  20
BRANCH   9  21
ATOM     21  C   LIG    1       -1.108   2.240   3.259  0.00  0.00    -0.300 A 
ATOM     22  C   LIG    1       -0.117   1.821   2.395  0.00  0.00    +0.320 A 
ATOM     23  N   LIG    1       -0.698   1.558   1.213  0.00  0.00    -0.360 N 
ATOM     24  N   LIG    1       -2.069   1.817   1.326  0.00  0.00    -0.300 NA
ATOM     25  C   LIG    1       -0.013   1.086   0.008  0.00  0.00    +0.360 C 
ATOM     26  C   LIG    1       -2.325   2.218   2.541  0.00  0.00    +0.270 A 
ENDBRANCH   9  21
TORSDOF 2
