REMARK  Name = ZINCrD00000l4snk.0
REMARK                            x       y       z     vdW  Elec       q    Type
REMARK                         _______ _______ _______ _____ _____    ______ ____
ROOT
ATOM      1  C   LIG    1        0.736  -0.671  -0.555  0.00  0.00    -0.110 A 
ATOM      2  C   LIG    1       -0.528  -0.086  -0.640  0.00  0.00    +0.040 A 
ATOM      3  C   LIG    1       -0.685   1.253  -0.344  0.00  0.00    +0.020 A 
ATOM      4  C   LIG    1        0.406   2.014   0.035  0.00  0.00    +0.030 A 
ATOM      5  C   LIG    1        1.661   1.439   0.122  0.00  0.00    +0.030 A 
ATOM      6  C   LIG    1        1.833   0.102  -0.171  0.00  0.00    -0.070 A 
ENDROOT
BRANCH   1   9
ATOM      7  C   LIG    1       -0.274  -1.733  -2.966  0.00  0.00    +0.270 C 
ATOM      8  N   LIG    1        0.387  -2.616  -2.001  0.00  0.00    -0.600 N 
ATOM      9  C   LIG    1        0.913  -2.105  -0.870  0.00  0.00    +0.570 C 
ATOM     10  O   LIG    1        1.532  -2.823  -0.110  0.00  0.00    -0.510 OA
BRANCH   8  11
ATOM     11  C   LIG    1        0.474  -4.054  -2.265  0.00  0.00    +0.360 C 
BRANCH  11  12
ATOM     12  C   LIG    1       -0.660  -4.763  -1.572  0.00  0.00    -0.100 A 
ATOM     13  C   LIG    1       -0.434  -5.427  -0.381  0.00  0.00    +0.080 A 
ATOM     14  C   LIG    1       -1.476  -6.073   0.259  0.00  0.00    +0.030 A 
ATOM     15  C   LIG    1       -2.742  -6.063  -0.298  0.00  0.00    -0.020 A 
ATOM     16  C   LIG    1       -2.968  -5.403  -1.493  0.00  0.00    +0.030 A 
ATOM     17 CL   LIG    1       -4.049  -6.880   0.503  0.00  0.00    -0.060 Cl
ATOM     18  C   LIG    1       -1.926  -4.753  -2.130  0.00  0.00    -0.010 A 
ATOM     19 CL   LIG    1       -2.208  -3.925  -3.629  0.00  0.00    -0.060 Cl
ENDBRANCH  11  12
ENDBRANCH   8  11
ENDBRANCH   1   9
BRANCH   6  20
ATOM     20  C   LIG    1        3.201  -0.522  -0.077  0.00  0.00    +0.370 C 
BRANCH  20  21
ATOM     21  N   LIG    1        3.825  -0.533  -1.402  0.00  0.00    -0.570 N 
ATOM     22  C   LIG    1        4.482   0.514  -1.938  0.00  0.00    +0.520 C 
ATOM     23  C   LIG    1        4.951   0.049  -3.303  0.00  0.00    +0.300 C 
ATOM     24  N   LIG    1        4.458  -1.336  -3.384  0.00  0.00    -0.730 N 
ATOM     25  H   LIG    1        4.575  -1.950  -4.126  0.00  0.00    +0.440 HD
ATOM     26  O   LIG    1        4.661   1.602  -1.434  0.00  0.00    -0.470 OA
ATOM     27  C   LIG    1        3.818  -1.586  -2.227  0.00  0.00    +0.690 C 
ATOM     28  O   LIG    1        3.291  -2.648  -1.963  0.00  0.00    -0.510 OA
ENDBRANCH  20  21
ENDBRANCH   6  20
TORSDOF 5
