REMARK  Name = ZINCpe00000bCuv8.0
REMARK                            x       y       z     vdW  Elec       q    Type
REMARK                         _______ _______ _______ _____ _____    ______ ____
ROOT
ATOM      1  C   LIG    1       -1.184   2.143   0.019  0.00  0.00    +0.590 C 
ATOM      2  N   LIG    1       -0.441   1.398   0.862  0.00  0.00    -0.600 N 
ATOM      3  C   LIG    1        0.460   2.032   1.836  0.00  0.00    +0.300 C 
ATOM      4  C   LIG    1        0.176   1.439   3.220  0.00  0.00    +0.200 C 
ATOM      5  N   LIG    1        0.269  -0.026   3.150  0.00  0.00    -0.480 N 
ATOM      6  C   LIG    1       -0.750  -0.582   2.250  0.00  0.00    +0.200 C 
ATOM      7  C   LIG    1       -0.504  -0.071   0.827  0.00  0.00    +0.320 C 
ATOM      8  O   LIG    1       -1.855   1.602  -0.839  0.00  0.00    -0.510 OA
ENDROOT
BRANCH   1  12
ATOM      9  C   LIG    1        1.183   6.370  -0.170  0.00  0.00    +0.340 C 
ATOM     10  N   LIG    1       -0.016   5.640   0.248  0.00  0.00    -0.460 N 
ATOM     11  N   LIG    1       -0.056   4.246   0.135  0.00  0.00    -0.200 NA
ATOM     12  C   LIG    1       -1.183   3.605   0.138  0.00  0.00    +0.080 C 
ATOM     13  C   LIG    1       -2.491   4.341   0.255  0.00  0.00    +0.120 C 
ATOM     14  C   LIG    1       -2.310   5.562   1.164  0.00  0.00    +0.090 C 
ATOM     15  C   LIG    1       -1.074   6.315   0.739  0.00  0.00    +0.490 C 
ATOM     16  O   LIG    1       -1.032   7.522   0.840  0.00  0.00    -0.510 OA
ENDBRANCH   1  12
BRANCH   5  17
ATOM     17  C   LIG    1        0.178  -0.595   4.422  0.00  0.00    +0.170 A 
ATOM     18  C   LIG    1       -0.795  -1.550   4.690  0.00  0.00    -0.020 A 
ATOM     19  C   LIG    1       -0.878  -2.114   5.947  0.00  0.00    +0.140 A 
ATOM     20  C   LIG    1       -0.003  -1.721   6.943  0.00  0.00    -0.070 A 
ATOM     21  C   LIG    1        0.964  -0.767   6.681  0.00  0.00    +0.130 A 
ATOM     22  C   LIG    1        1.056  -0.203   5.424  0.00  0.00    +0.010 A 
BRANCH  20  23
ATOM     23  N   LIG    1       -0.100  -2.323   8.291  0.00  0.00    +0.030 N 
ATOM     24  O   LIG    1       -0.950  -3.164   8.523  0.00  0.00    -0.160 OA
ATOM     25  O   LIG    1        0.671  -1.978   9.169  0.00  0.00    -0.160 OA
ENDBRANCH  20  23
ENDBRANCH   5  17
TORSDOF 3
