REMARK  Name = ZINCrH000004quHk.0
REMARK                            x       y       z     vdW  Elec       q    Type
REMARK                         _______ _______ _______ _____ _____    ______ ____
ROOT
ATOM      1  C   LIG    1        6.407   7.356  -1.460  0.00  0.00    +0.220 C 
ENDROOT
BRANCH   1   4
ATOM      2  N   LIG    1        8.067   8.066  -3.152  0.00  0.00    -0.680 N 
ATOM      3  H   LIG    1        8.707   8.178  -2.432  0.00  0.00    +0.410 HD
ATOM      4  C   LIG    1        6.803   7.686  -2.877  0.00  0.00    +0.510 C 
ATOM      5  O   LIG    1        5.985   7.609  -3.769  0.00  0.00    -0.490 OA
BRANCH   2  10
ATOM      6  C   LIG    1        9.638   9.010  -8.521  0.00  0.00    +0.090 C 
ATOM      7  C   LIG    1        9.221   8.759  -7.095  0.00  0.00    -0.080 A 
ATOM      8  C   LIG    1        9.454   9.720  -6.128  0.00  0.00    +0.010 A 
ATOM      9  C   LIG    1        9.072   9.494  -4.821  0.00  0.00    -0.090 A 
ATOM     10  C   LIG    1        8.454   8.299  -4.476  0.00  0.00    +0.130 A 
ATOM     11  C   LIG    1        8.227   7.333  -5.448  0.00  0.00    -0.060 A 
ATOM     12  C   LIG    1        7.562   6.032  -5.078  0.00  0.00    +0.090 C 
ATOM     13  C   LIG    1        9.326  10.542  -3.768  0.00  0.00    +0.090 C 
ATOM     14  C   LIG    1        8.606   7.568  -6.755  0.00  0.00    +0.000 A 
ENDBRANCH   2  10
ENDBRANCH   1   4
BRANCH   1  15
ATOM     15  N   LIG    1        4.990   6.972  -1.425  0.00  0.00    -0.520 NA
ATOM     16  C   LIG    1        4.128   8.110  -1.773  0.00  0.00    +0.210 C 
BRANCH  15  17
ATOM     17  C   LIG    1        4.627   6.418  -0.114  0.00  0.00    +0.350 C 
BRANCH  17  18
ATOM     18  C   LIG    1        3.248   5.814  -0.188  0.00  0.00    +0.170 A 
ATOM     19  N   LIG    1        2.965   4.580  -0.500  0.00  0.00    -0.260 NA
ATOM     20  N   LIG    1        1.690   4.410  -0.465  0.00  0.00    -0.270 NA
ATOM     21  C   LIG    1        1.112   5.539  -0.126  0.00  0.00    +0.210 A 
ATOM     22  O   LIG    1        2.089   6.451   0.050  0.00  0.00    -0.220 OA
BRANCH  21  23
ATOM     23  C   LIG    1       -0.340   5.769   0.028  0.00  0.00    -0.030 A 
ATOM     24  C   LIG    1       -0.815   7.029   0.395  0.00  0.00    +0.050 A 
ATOM     25  C   LIG    1       -2.172   7.238   0.536  0.00  0.00    +0.010 A 
ATOM     26  C   LIG    1       -3.061   6.201   0.315  0.00  0.00    +0.040 A 
ATOM     27  C   LIG    1       -2.596   4.949  -0.049  0.00  0.00    +0.020 A 
ATOM     28  C   LIG    1       -1.242   4.728  -0.194  0.00  0.00    +0.070 A 
ENDBRANCH  21  23
ENDBRANCH  17  18
ENDBRANCH  15  17
ENDBRANCH   1  15
TORSDOF 6
