REMARK  Name = ZINCqH0000050fi9.0
REMARK                            x       y       z     vdW  Elec       q    Type
REMARK                         _______ _______ _______ _____ _____    ______ ____
ROOT
ATOM      1  N   LIG    1       -6.012   1.853   0.353  0.00  0.00    -0.730 N 
ATOM      2  H   LIG    1       -5.868   2.748   0.700  0.00  0.00    +0.410 HD
ENDROOT
BRANCH   1   6
ATOM      3  C   LIG    1      -10.778   2.908  -0.224  0.00  0.00    +0.090 C 
ATOM      4  C   LIG    1       -9.622   1.948  -0.335  0.00  0.00    -0.020 A 
ATOM      5  C   LIG    1       -8.359   2.339   0.062  0.00  0.00    -0.050 A 
ATOM      6  C   LIG    1       -7.293   1.456  -0.045  0.00  0.00    +0.230 A 
ATOM      7  C   LIG    1       -7.499   0.175  -0.542  0.00  0.00    -0.070 A 
ATOM      8  C   LIG    1       -8.763  -0.217  -0.934  0.00  0.00    +0.060 A 
ATOM      9  C   LIG    1       -9.828   0.668  -0.832  0.00  0.00    +0.080 A 
BRANCH   9  10
ATOM     10  N   LIG    1      -11.111   0.269  -1.230  0.00  0.00    -0.570 N 
ATOM     11  C   LIG    1      -12.094  -0.366  -0.343  0.00  0.00    +0.250 C 
ATOM     12  C   LIG    1      -13.142  -1.006  -1.280  0.00  0.00    +0.040 C 
ATOM     13  C   LIG    1      -13.009  -0.131  -2.547  0.00  0.00    +0.050 C 
ATOM     14  C   LIG    1      -11.603   0.423  -2.471  0.00  0.00    +0.520 C 
ATOM     15  O   LIG    1      -11.006   0.931  -3.397  0.00  0.00    -0.520 OA
ENDBRANCH   9  10
ENDBRANCH   1   6
BRANCH   1  16
ATOM     16  C   LIG    1       -4.888   0.919   0.245  0.00  0.00    +0.250 C 
ATOM     17  C   LIG    1       -4.841   0.034   1.492  0.00  0.00    +0.050 C 
BRANCH  16  18
ATOM     18  C   LIG    1       -3.601   1.694   0.130  0.00  0.00    +0.510 C 
ATOM     19  N   LIG    1       -2.428   1.039   0.019  0.00  0.00    -0.670 N 
ATOM     20  H   LIG    1       -2.418   0.073  -0.063  0.00  0.00    +0.410 HD
ATOM     21  O   LIG    1       -3.620   2.907   0.137  0.00  0.00    -0.510 OA
BRANCH  19  22
ATOM     22  C   LIG    1       -1.224   1.754   0.023  0.00  0.00    +0.130 A 
ATOM     23  C   LIG    1       -1.106   2.913   0.779  0.00  0.00    +0.050 A 
ATOM     24  C   LIG    1        0.085   3.613   0.786  0.00  0.00    +0.010 A 
ATOM     25  C   LIG    1        1.158   3.163   0.036  0.00  0.00    +0.090 A 
ATOM     26  C   LIG    1        1.041   2.010  -0.722  0.00  0.00    +0.010 A 
ATOM     27  F   LIG    1        2.322   3.849   0.044  0.00  0.00    -0.140 F 
ATOM     28  C   LIG    1       -0.147   1.306  -0.731  0.00  0.00    +0.030 A 
ENDBRANCH  19  22
ENDBRANCH  16  18
ENDBRANCH   1  16
TORSDOF 5
