REMARK  Name = ZINCqH00000509hD.0
REMARK                            x       y       z     vdW  Elec       q    Type
REMARK                         _______ _______ _______ _____ _____    ______ ____
ROOT
ATOM      1  O   LIG    1        3.511  -2.397   0.148  0.00  0.00    -0.330 OA
ENDROOT
BRANCH   1   2
ATOM      2  C   LIG    1        4.478  -3.162  -0.382  0.00  0.00    +0.470 C 
ATOM      3  O   LIG    1        5.487  -2.651  -0.808  0.00  0.00    -0.480 OA
BRANCH   2   4
ATOM      4  C   LIG    1        4.307  -4.658  -0.446  0.00  0.00    +0.270 C 
BRANCH   4   5
ATOM      5  O   LIG    1        5.463  -5.245  -1.047  0.00  0.00    -0.310 OA
BRANCH   5  10
ATOM      6  C   LIG    1        5.490 -10.850  -1.601  0.00  0.00    +0.090 C 
ATOM      7  C   LIG    1        5.483  -9.350  -1.453  0.00  0.00    -0.070 A 
ATOM      8  C   LIG    1        4.970  -8.559  -2.465  0.00  0.00    +0.010 A 
ATOM      9  C   LIG    1        4.962  -7.184  -2.331  0.00  0.00    -0.090 A 
ATOM     10  C   LIG    1        5.469  -6.597  -1.181  0.00  0.00    +0.080 A 
ATOM     11  C   LIG    1        5.988  -7.393  -0.170  0.00  0.00    -0.090 A 
ATOM     12  C   LIG    1        6.545  -6.758   1.078  0.00  0.00    +0.090 C 
ATOM     13  C   LIG    1        4.403  -6.323  -3.434  0.00  0.00    +0.100 C 
ATOM     14  C   LIG    1        5.988  -8.768  -0.305  0.00  0.00    +0.010 A 
ENDBRANCH   5  10
ENDBRANCH   4   5
ENDBRANCH   2   4
ENDBRANCH   1   2
BRANCH   1  15
ATOM     15  C   LIG    1        3.744  -0.965   0.176  0.00  0.00    +0.200 C 
ATOM     16  C   LIG    1        4.439  -0.587   1.486  0.00  0.00    +0.070 C 
BRANCH  15  17
ATOM     17  C   LIG    1        2.426  -0.239   0.079  0.00  0.00    +0.520 C 
ATOM     18  N   LIG    1        2.403   1.105  -0.015  0.00  0.00    -0.660 N 
ATOM     19  H   LIG    1        3.232   1.600  -0.101  0.00  0.00    +0.420 HD
ATOM     20  O   LIG    1        1.388  -0.865   0.086  0.00  0.00    -0.490 OA
BRANCH  18  21
ATOM     21  C   LIG    1        1.180   1.787   0.012  0.00  0.00    +0.120 A 
ATOM     22  C   LIG    1        0.076   1.213   0.626  0.00  0.00    +0.050 A 
ATOM     23  C   LIG    1       -1.130   1.886   0.646  0.00  0.00    +0.030 A 
ATOM     24  C   LIG    1       -1.237   3.135   0.064  0.00  0.00    +0.030 A 
ATOM     25  C   LIG    1       -0.140   3.712  -0.550  0.00  0.00    +0.010 A 
ATOM     26  C   LIG    1        1.069   3.042  -0.579  0.00  0.00    +0.070 A 
ATOM     27  F   LIG    1        2.141   3.605  -1.178  0.00  0.00    -0.140 F 
ENDBRANCH  18  21
ENDBRANCH  15  17
ENDBRANCH   1  15
TORSDOF 7
