REMARK  Name = ZINCrD000000CbtX.0
REMARK                            x       y       z     vdW  Elec       q    Type
REMARK                         _______ _______ _______ _____ _____    ______ ____
ROOT
ATOM      1  O   LIG    1       -2.583   2.796   0.032  0.00  0.00    -0.530 OA
ATOM      2  C   LIG    1       -2.502   4.002   0.164  0.00  0.00    +0.710 C 
ATOM      3  N   LIG    1       -3.618   4.758   0.152  0.00  0.00    -0.710 N 
ATOM      4  H   LIG    1       -3.549   5.725   0.181  0.00  0.00    +0.400 HD
ATOM      5  N   LIG    1       -1.296   4.582   0.323  0.00  0.00    -0.660 N 
ATOM      6  H   LIG    1       -1.231   5.544   0.428  0.00  0.00    +0.400 HD
ENDROOT
BRANCH   5   7
ATOM      7  C   LIG    1       -0.141   3.800   0.335  0.00  0.00    +0.320 A 
ATOM      8  C   LIG    1       -0.073   2.463   0.086  0.00  0.00    -0.100 A 
ATOM      9  C   LIG    1        1.264   2.074   0.205  0.00  0.00    +0.250 A 
ATOM     10  N   LIG    1        1.975   3.131   0.504  0.00  0.00    -0.290 NA
ATOM     11  N   LIG    1        1.114   4.232   0.592  0.00  0.00    -0.390 N 
BRANCH  11  12
ATOM     12  C   LIG    1        1.504   5.609   0.906  0.00  0.00    +0.340 C 
BRANCH  12  13
ATOM     13  C   LIG    1        1.325   5.860   2.405  0.00  0.00    -0.060 C 
ATOM     14  C   LIG    1        1.732   7.309   2.764  0.00  0.00    +0.020 C 
ATOM     15  C   LIG    1        2.485   7.109   4.107  0.00  0.00    +0.210 C 
ATOM     16  O   LIG    1        3.186   5.860   3.920  0.00  0.00    -0.370 OA
ATOM     17  C   LIG    1        2.292   4.979   3.219  0.00  0.00    +0.210 C 
ENDBRANCH  12  13
ENDBRANCH  11  12
ENDBRANCH   5   7
BRANCH   3  18
ATOM     18  C   LIG    1       -4.935   4.119   0.095  0.00  0.00    +0.210 C 
ATOM     19  C   LIG    1       -5.303   3.590  -1.301  0.00  0.00    +0.040 C 
ATOM     20  C   LIG    1       -5.906   4.979  -1.580  0.00  0.00    +0.020 C 
ATOM     21  C   LIG    1       -6.096   5.115  -0.060  0.00  0.00    +0.050 C 
BRANCH  18  22
ATOM     22  C   LIG    1       -5.145   3.112   1.197  0.00  0.00    -0.180 A 
ATOM     23  C   LIG    1       -4.776   1.792   1.009  0.00  0.00    +0.190 A 
ATOM     24  C   LIG    1       -4.964   0.869   2.024  0.00  0.00    -0.040 A 
ATOM     25  C   LIG    1       -5.532   1.264   3.221  0.00  0.00    +0.090 A 
ATOM     26  C   LIG    1       -5.907   2.581   3.408  0.00  0.00    -0.040 A 
ATOM     27  F   LIG    1       -4.226   1.404  -0.163  0.00  0.00    -0.100 F 
ATOM     28  C   LIG    1       -5.714   3.507   2.396  0.00  0.00    +0.140 A 
ATOM     29  F   LIG    1       -6.080   4.794   2.579  0.00  0.00    -0.130 F 
ENDBRANCH  18  22
ENDBRANCH   3  18
TORSDOF 5
