REMARK  Name = ZINCpk00000xI2JI.0
REMARK                            x       y       z     vdW  Elec       q    Type
REMARK                         _______ _______ _______ _____ _____    ______ ____
ROOT
ATOM      1  C   LIG    1       -0.600  -5.052   2.134  0.00  0.00    +0.320 C 
ENDROOT
BRANCH   1   7
ATOM      2  N   LIG    1       -2.329  -3.403   1.466  0.00  0.00    -0.490 NA
ATOM      3  C   LIG    1       -2.986  -2.216   2.055  0.00  0.00    +0.190 C 
ATOM      4  C   LIG    1       -2.505  -2.110   3.514  0.00  0.00    +0.160 C 
ATOM      5  C   LIG    1       -1.517  -3.285   3.699  0.00  0.00    +0.030 C 
ATOM      6  F   LIG    1       -3.585  -2.241   4.392  0.00  0.00    -0.210 F 
ATOM      7  C   LIG    1       -1.081  -3.604   2.247  0.00  0.00    +0.110 C 
BRANCH   2   8
ATOM      8  C   LIG    1       -2.031  -3.189   0.044  0.00  0.00    +0.320 C 
BRANCH   8  12
ATOM      9  C   LIG    1        0.098   1.290  -0.152  0.00  0.00    +0.180 C 
ATOM     10  C   LIG    1        0.058  -0.217  -0.173  0.00  0.00    +0.050 A 
ATOM     11  N   LIG    1       -1.010  -0.929  -0.043  0.00  0.00    -0.470 NA
ATOM     12  C   LIG    1       -0.869  -2.238  -0.088  0.00  0.00    +0.040 A 
ATOM     13  C   LIG    1        0.390  -2.654  -0.255  0.00  0.00    -0.070 A 
ATOM     14  S   LIG    1        1.422  -1.230  -0.362  0.00  0.00    +0.130 S 
ENDBRANCH   8  12
ENDBRANCH   2   8
ENDBRANCH   1   7
BRANCH   1  15
ATOM     15  N   LIG    1        0.660  -5.207   2.865  0.00  0.00    -0.610 N 
ATOM     16  C   LIG    1        0.644  -5.482   4.184  0.00  0.00    +0.610 C 
ATOM     17  O   LIG    1       -0.410  -5.720   4.743  0.00  0.00    -0.560 OA
ATOM     18  C   LIG    1        1.937  -5.062   2.161  0.00  0.00    +0.280 C 
BRANCH  16  19
ATOM     19  C   LIG    1        1.899  -5.495   4.946  0.00  0.00    -0.380 A 
ATOM     20  C   LIG    1        2.062  -5.907   6.266  0.00  0.00    +0.440 A 
ATOM     21  N   LIG    1        3.367  -5.757   6.570  0.00  0.00    -0.400 N 
ATOM     22  N   LIG    1        4.029  -5.251   5.446  0.00  0.00    -0.300 NA
ATOM     23  C   LIG    1        3.988  -6.070   7.860  0.00  0.00    +0.360 C 
ATOM     24  C   LIG    1        3.173  -5.097   4.476  0.00  0.00    +0.290 A 
BRANCH  20  25
ATOM     25  N   LIG    1        1.074  -6.381   7.106  0.00  0.00    -0.830 N 
ATOM     26  H   LIG    1        1.294  -6.643   8.013  0.00  0.00    +0.400 HD
ATOM     27  H   LIG    1        0.161  -6.451   6.788  0.00  0.00    +0.430 HD
ENDBRANCH  20  25
ENDBRANCH  16  19
ENDBRANCH   1  15
TORSDOF 6
