REMARK  Name = ZINCrg000000prvX.1
REMARK                            x       y       z     vdW  Elec       q    Type
REMARK                         _______ _______ _______ _____ _____    ______ ____
ROOT
ATOM      1  N   LIG    1       -3.144   0.586   1.604  0.00  0.00    -1.120 NA
ATOM      2  H   LIG    1       -3.165  -0.317   1.958  0.00  0.00    +0.420 HD
ENDROOT
BRANCH   1   3
ATOM      3  S   LIG    1       -2.731   0.845   0.021  0.00  0.00    +2.700 S 
ATOM      4  O   LIG    1       -2.437  -0.431  -0.531  0.00  0.00    -0.950 OA
ATOM      5  O   LIG    1       -3.720   1.714  -0.514  0.00  0.00    -0.950 OA
BRANCH   3   6
ATOM      6  C   LIG    1       -1.219   1.749   0.017  0.00  0.00    -0.680 A 
ATOM      7  C   LIG    1       -0.013   1.076   0.008  0.00  0.00    +0.140 A 
ATOM      8  C   LIG    1        1.176   1.782   0.000  0.00  0.00    +0.020 A 
ATOM      9  C   LIG    1        1.160   3.169   0.007  0.00  0.00    +0.110 A 
ATOM     10  O   LIG    1        2.338   3.850   0.003  0.00  0.00    -0.300 OA
ATOM     11  C   LIG    1        2.280   5.233  -0.365  0.00  0.00    +0.230 C 
ATOM     12  C   LIG    1        1.114   5.883   0.391  0.00  0.00    +0.230 C 
ATOM     13  O   LIG    1       -0.092   5.207   0.023  0.00  0.00    -0.300 OA
ATOM     14  C   LIG    1       -0.054   3.846   0.020  0.00  0.00    +0.030 A 
ATOM     15  C   LIG    1       -1.242   3.131   0.030  0.00  0.00    +0.140 A 
ENDBRANCH   3   6
ENDBRANCH   1   3
BRANCH   1  16
ATOM     16  C   LIG    1       -3.476   1.720   2.469  0.00  0.00    +0.260 C 
BRANCH  16  17
ATOM     17  C   LIG    1       -4.169   1.210   3.735  0.00  0.00    +0.030 C 
BRANCH  17  18
ATOM     18  C   LIG    1       -4.516   2.395   4.638  0.00  0.00    +0.180 C 
BRANCH  18  22
ATOM     19  C   LIG    1       -7.242   1.761   7.871  0.00  0.00    +0.030 C 
ATOM     20  C   LIG    1       -5.879   2.401   8.149  0.00  0.00    +0.060 C 
ATOM     21  C   LIG    1       -5.317   2.978   6.847  0.00  0.00    +0.180 C 
ATOM     22  N   LIG    1       -5.181   1.905   5.853  0.00  0.00    -0.540 NA
ATOM     23  C   LIG    1       -6.485   1.308   5.535  0.00  0.00    +0.180 C 
ATOM     24  C   LIG    1       -7.082   0.681   6.798  0.00  0.00    +0.050 C 
BRANCH  19  25
ATOM     25  C   LIG    1       -7.774   1.140   9.136  0.00  0.00    +0.460 C 
ATOM     26  O   LIG    1       -7.130   1.202  10.157  0.00  0.00    -0.500 OA
BRANCH  25  28
ATOM     27  C   LIG    1       -9.414  -0.057  10.386  0.00  0.00    +0.250 C 
ATOM     28  O   LIG    1       -8.964   0.518   9.130  0.00  0.00    -0.360 OA
ENDBRANCH  25  28
ENDBRANCH  19  25
ENDBRANCH  18  22
ENDBRANCH  17  18
ENDBRANCH  16  17
ENDBRANCH   1  16
TORSDOF 8
