REMARK  Name = ZINCqH0000038H6i.0
REMARK                            x       y       z     vdW  Elec       q    Type
REMARK                         _______ _______ _______ _____ _____    ______ ____
ROOT
ATOM      1  N   LIG    1       -2.457   3.822   0.046  0.00  0.00    -0.740 N 
ATOM      2  H   LIG    1       -2.470   4.792   0.051  0.00  0.00    +0.400 HD
ENDROOT
BRANCH   1   3
ATOM      3  C   LIG    1       -1.236   3.138   0.031  0.00  0.00    +0.200 A 
ATOM      4  C   LIG    1       -1.218   1.750   0.017  0.00  0.00    -0.040 A 
ATOM      5  C   LIG    1       -0.013   1.076   0.008  0.00  0.00    +0.060 A 
ATOM      6  C   LIG    1        1.180   1.786   0.000  0.00  0.00    +0.120 A 
ATOM      7  C   LIG    1        1.162   3.175   0.008  0.00  0.00    +0.030 A 
ATOM      8  C   LIG    1       -0.043   3.849   0.023  0.00  0.00    -0.040 A 
BRANCH   6   9
ATOM      9  N   LIG    1        2.404   1.102  -0.015  0.00  0.00    -0.570 N 
ATOM     10  C   LIG    1        3.734   1.728  -0.030  0.00  0.00    +0.260 C 
ATOM     11  C   LIG    1        4.704   0.531  -0.040  0.00  0.00    +0.260 C 
ATOM     12  O   LIG    1        3.827  -0.633  -0.038  0.00  0.00    -0.320 OA
ATOM     13  C   LIG    1        2.551  -0.230  -0.024  0.00  0.00    +0.640 C 
ATOM     14  O   LIG    1        1.612  -1.002  -0.020  0.00  0.00    -0.510 OA
ENDBRANCH   6   9
ENDBRANCH   1   3
BRANCH   1  15
ATOM     15  C   LIG    1       -3.716   3.072   0.054  0.00  0.00    +0.370 C 
BRANCH  15  20
ATOM     16  C   LIG    1       -7.340   6.262   1.606  0.00  0.00    +0.170 C 
ATOM     17  C   LIG    1       -6.444   5.417   0.737  0.00  0.00    +0.230 A 
ATOM     18  N   LIG    1       -6.513   5.322  -0.562  0.00  0.00    -0.480 NA
ATOM     19  C   LIG    1       -5.562   4.482  -0.998  0.00  0.00    +0.190 A 
ATOM     20  C   LIG    1       -4.874   4.036   0.071  0.00  0.00    -0.050 A 
ATOM     21  N   LIG    1       -5.434   4.622   1.176  0.00  0.00    -0.410 N 
BRANCH  21  22
ATOM     22  C   LIG    1       -5.036   4.439   2.509  0.00  0.00    +0.110 A 
ATOM     23  C   LIG    1       -5.173   3.196   3.110  0.00  0.00    +0.020 A 
ATOM     24  C   LIG    1       -4.777   3.017   4.421  0.00  0.00    +0.030 A 
ATOM     25  C   LIG    1       -4.253   4.077   5.137  0.00  0.00    +0.020 A 
ATOM     26  C   LIG    1       -4.120   5.318   4.542  0.00  0.00    +0.030 A 
ATOM     27  C   LIG    1       -4.510   5.502   3.230  0.00  0.00    +0.020 A 
ENDBRANCH  21  22
ENDBRANCH  15  20
ENDBRANCH   1  15
TORSDOF 5
