REMARK  Name = ZINCpe00000McUG4.0
REMARK                            x       y       z     vdW  Elec       q    Type
REMARK                         _______ _______ _______ _____ _____    ______ ____
ROOT
ATOM      1  C   LIG    1        0.169  -5.117   0.697  0.00  0.00    +0.230 C 
ATOM      2  C   LIG    1       -0.357  -6.173  -0.297  0.00  0.00    +0.010 C 
ATOM      3  C   LIG    1        0.757  -6.275  -1.368  0.00  0.00    +0.040 C 
ATOM      4  C   LIG    1        1.225  -4.806  -1.515  0.00  0.00    +0.030 C 
ATOM      5  C   LIG    1        1.175  -4.247  -0.077  0.00  0.00    +0.240 C 
ENDROOT
BRANCH   1   7
ATOM      6  C   LIG    1       -1.606  -4.648   2.299  0.00  0.00    +0.610 C 
ATOM      7  N   LIG    1       -0.937  -4.290   1.185  0.00  0.00    -0.710 N 
ATOM      8  H   LIG    1       -1.189  -3.485   0.706  0.00  0.00    +0.400 HD
ATOM      9  O   LIG    1       -1.291  -5.658   2.899  0.00  0.00    -0.530 OA
BRANCH   6  13
ATOM     10  C   LIG    1       -5.471  -2.836   5.030  0.00  0.00    +0.160 C 
ATOM     11  C   LIG    1       -4.401  -3.039   3.989  0.00  0.00    +0.010 A 
ATOM     12  C   LIG    1       -3.513  -4.059   3.938  0.00  0.00    -0.020 A 
ATOM     13  C   LIG    1       -2.722  -3.815   2.791  0.00  0.00    -0.020 A 
ATOM     14  N   LIG    1       -3.166  -2.699   2.248  0.00  0.00    -0.260 NA
ATOM     15  N   LIG    1       -4.149  -2.236   2.933  0.00  0.00    -0.280 N 
ATOM     16  C   LIG    1       -4.887  -1.011   2.616  0.00  0.00    +0.370 C 
ENDBRANCH   6  13
ENDBRANCH   1   7
BRANCH   5  17
ATOM     17  N   LIG    1        0.724  -2.854  -0.096  0.00  0.00    -0.720 N 
ATOM     18  H   LIG    1        0.177  -2.530  -0.829  0.00  0.00    +0.410 HD
ATOM     19  C   LIG    1        1.069  -2.021   0.906  0.00  0.00    +0.610 C 
ATOM     20  O   LIG    1        1.755  -2.426   1.825  0.00  0.00    -0.520 OA
BRANCH  19  21
ATOM     21  C   LIG    1        0.614  -0.615   0.887  0.00  0.00    -0.020 A 
ATOM     22  N   LIG    1       -0.128  -0.043  -0.039  0.00  0.00    -0.260 NA
ATOM     23  N   LIG    1       -0.336   1.189   0.260  0.00  0.00    -0.280 N 
ATOM     24  C   LIG    1        0.274   1.495   1.425  0.00  0.00    +0.010 A 
ATOM     25  C   LIG    1        0.268   2.837   2.112  0.00  0.00    +0.160 C 
ATOM     26  C   LIG    1       -1.116   2.128  -0.549  0.00  0.00    +0.370 C 
ATOM     27  C   LIG    1        0.893   0.373   1.861  0.00  0.00    -0.020 A 
ENDBRANCH  19  21
ENDBRANCH   5  17
TORSDOF 4
