REMARK  Name = ZINCqH00000368bp.0
REMARK                            x       y       z     vdW  Elec       q    Type
REMARK                         _______ _______ _______ _____ _____    ______ ____
ROOT
ATOM      1  C   LIG    1       -2.922   2.224   2.209  0.00  0.00    +0.270 C 
ATOM      2  C   LIG    1       -4.380   1.736   2.074  0.00  0.00    +0.050 C 
ATOM      3  C   LIG    1       -4.317   0.294   2.644  0.00  0.00    +0.040 C 
ATOM      4  C   LIG    1       -2.917  -0.168   2.167  0.00  0.00    +0.250 C 
ATOM      5  N   LIG    1       -2.065   1.030   2.276  0.00  0.00    -0.610 N 
ATOM      6  C   LIG    1       -0.724   1.029   2.416  0.00  0.00    +0.600 C 
ATOM      7  O   LIG    1       -0.106   2.075   2.356  0.00  0.00    -0.500 OA
ENDROOT
BRANCH   6   8
ATOM      8  C   LIG    1       -0.008  -0.237   2.640  0.00  0.00    -0.250 A 
ATOM      9  C   LIG    1       -0.052  -0.885   3.868  0.00  0.00    +0.200 A 
ATOM     10  C   LIG    1        0.690  -2.086   4.012  0.00  0.00    -0.160 A 
ATOM     11  C   LIG    1        0.539  -2.884   5.154  0.00  0.00    +0.090 A 
ATOM     12  C   LIG    1        1.235  -4.054   5.263  0.00  0.00    +0.000 A 
ATOM     13  C   LIG    1        2.103  -4.454   4.256  0.00  0.00    +0.090 A 
ATOM     14  C   LIG    1        2.289  -3.670   3.136  0.00  0.00    +0.020 A 
ATOM     15  C   LIG    1        1.597  -2.473   3.007  0.00  0.00    +0.140 A 
ATOM     16  O   LIG    1        1.812  -1.673   1.936  0.00  0.00    -0.270 OA
ATOM     17  C   LIG    1        0.781  -0.874   1.570  0.00  0.00    +0.530 A 
ATOM     18  O   LIG    1        0.518  -0.682   0.398  0.00  0.00    -0.430 OA
ENDBRANCH   6   8
BRANCH   1  22
ATOM     19  C   LIG    1       -1.861   4.588  -1.189  0.00  0.00    +0.130 A 
ATOM     20  C   LIG    1       -2.219   5.204   0.001  0.00  0.00    -0.020 A 
ATOM     21  C   LIG    1       -2.562   4.438   1.098  0.00  0.00    +0.070 A 
ATOM     22  C   LIG    1       -2.548   3.058   1.010  0.00  0.00    -0.130 A 
ATOM     23  C   LIG    1       -2.185   2.442  -0.173  0.00  0.00    +0.060 A 
ATOM     24  C   LIG    1       -1.847   3.204  -1.275  0.00  0.00    -0.080 A 
BRANCH  19  26
ATOM     25  C   LIG    1       -1.164   4.639  -3.462  0.00  0.00    +0.250 C 
ATOM     26  O   LIG    1       -1.522   5.340  -2.270  0.00  0.00    -0.320 OA
ENDBRANCH  19  26
ENDBRANCH   1  22
TORSDOF 3
