REMARK  Name = ZINCrD00000749sJ.0
REMARK                            x       y       z     vdW  Elec       q    Type
REMARK                         _______ _______ _______ _____ _____    ______ ____
ROOT
ATOM      1  C   LIG    1       -0.640   2.890   1.473  0.00  0.00    +0.520 C 
ATOM      2  N   LIG    1        0.515   3.583   1.417  0.00  0.00    -0.720 N 
ATOM      3  H   LIG    1        1.362   3.112   1.383  0.00  0.00    +0.410 HD
ATOM      4  O   LIG    1       -1.699   3.479   1.515  0.00  0.00    -0.530 OA
ENDROOT
BRANCH   1   6
ATOM      5  C   LIG    1        0.059   0.876   0.207  0.00  0.00    +0.060 C 
ATOM      6  C   LIG    1       -0.615   1.384   1.484  0.00  0.00    +0.270 C 
BRANCH   6   7
ATOM      7  N   LIG    1       -1.986   0.873   1.548  0.00  0.00    -0.730 N 
ATOM      8  H   LIG    1       -2.721   1.414   1.221  0.00  0.00    +0.410 HD
ATOM      9  C   LIG    1       -2.226  -0.350   2.062  0.00  0.00    +0.710 C 
ATOM     10  N   LIG    1       -3.488  -0.820   2.121  0.00  0.00    -0.680 N 
ATOM     11  H   LIG    1       -4.229  -0.254   1.856  0.00  0.00    +0.410 HD
ATOM     12  O   LIG    1       -1.305  -1.029   2.471  0.00  0.00    -0.570 OA
BRANCH  10  13
ATOM     13  C   LIG    1       -3.728  -2.125   2.564  0.00  0.00    +0.160 A 
ATOM     14  C   LIG    1       -4.761  -2.870   2.010  0.00  0.00    -0.030 A 
ATOM     15  C   LIG    1       -4.993  -4.159   2.447  0.00  0.00    +0.030 A 
ATOM     16  C   LIG    1       -4.204  -4.706   3.442  0.00  0.00    -0.020 A 
ATOM     17  C   LIG    1       -3.178  -3.965   4.000  0.00  0.00    +0.030 A 
ATOM     18  C   LIG    1       -2.938  -2.677   3.564  0.00  0.00    +0.020 A 
ENDBRANCH  10  13
ENDBRANCH   6   7
ENDBRANCH   1   6
BRANCH   2  19
ATOM     19  C   LIG    1        0.490   5.048   1.407  0.00  0.00    +0.330 C 
BRANCH  19  20
ATOM     20  C   LIG    1        1.923   5.582   1.340  0.00  0.00    -0.020 C 
ATOM     21  C   LIG    1        2.118   7.096   1.438  0.00  0.00    +0.050 C 
ATOM     22  C   LIG    1        2.320   6.384   0.099  0.00  0.00    +0.210 C 
ATOM     23  F   LIG    1        1.346   6.574  -0.887  0.00  0.00    -0.150 F 
ATOM     24  F   LIG    1        3.632   6.246  -0.367  0.00  0.00    -0.150 F 
BRANCH  21  25
ATOM     25  C   LIG    1        3.347   7.594   2.154  0.00  0.00    -0.070 A 
ATOM     26  C   LIG    1        3.288   8.756   2.901  0.00  0.00    +0.030 A 
ATOM     27  C   LIG    1        4.414   9.210   3.562  0.00  0.00    +0.010 A 
ATOM     28  C   LIG    1        5.601   8.508   3.467  0.00  0.00    +0.020 A 
ATOM     29  C   LIG    1        5.661   7.349   2.716  0.00  0.00    +0.010 A 
ATOM     30  C   LIG    1        4.534   6.892   2.059  0.00  0.00    +0.020 A 
ENDBRANCH  21  25
ENDBRANCH  19  20
ENDBRANCH   2  19
TORSDOF 6
