REMARK  Name = ZINCrH000004r4WP.0
REMARK                            x       y       z     vdW  Elec       q    Type
REMARK                         _______ _______ _______ _____ _____    ______ ____
ROOT
ATOM      1  C   LIG    1       -6.013  -1.438   0.042  0.00  0.00    +0.100 C 
ATOM      2  C   LIG    1       -4.739  -0.642  -0.078  0.00  0.00    +0.050 A 
ATOM      3  C   LIG    1       -3.523  -1.295  -0.157  0.00  0.00    -0.010 A 
ATOM      4  C   LIG    1       -2.353  -0.572  -0.273  0.00  0.00    +0.100 A 
ATOM      5  C   LIG    1       -2.399   0.823  -0.301  0.00  0.00    -0.160 A 
ATOM      6  C   LIG    1       -3.630   1.476  -0.221  0.00  0.00    +0.200 A 
ATOM      7  C   LIG    1       -4.792   0.741  -0.111  0.00  0.00    -0.690 A 
ENDROOT
BRANCH   5   8
ATOM      8  C   LIG    1       -1.150   1.604  -0.420  0.00  0.00    +0.560 C 
ATOM      9  N   LIG    1        0.037   0.970  -0.496  0.00  0.00    -0.720 N 
ATOM     10  H   LIG    1        0.071   0.001  -0.473  0.00  0.00    +0.400 HD
ATOM     11  O   LIG    1       -1.193   2.819  -0.448  0.00  0.00    -0.530 OA
BRANCH   9  12
ATOM     12  C   LIG    1        1.274   1.745  -0.620  0.00  0.00    +0.320 C 
BRANCH  12  13
ATOM     13  C   LIG    1        2.450   0.805  -0.693  0.00  0.00    -0.110 A 
ATOM     14  C   LIG    1        3.092   0.410   0.466  0.00  0.00    +0.050 A 
ATOM     15  C   LIG    1        4.168  -0.456   0.399  0.00  0.00    +0.030 A 
ATOM     16  C   LIG    1        4.608  -0.919  -0.828  0.00  0.00    -0.030 A 
ATOM     17  C   LIG    1        3.968  -0.519  -1.988  0.00  0.00    +0.030 A 
ATOM     18 CL   LIG    1        5.963  -2.000  -0.912  0.00  0.00    -0.060 Cl
ATOM     19  C   LIG    1        2.889   0.342  -1.920  0.00  0.00    +0.050 A 
ENDBRANCH  12  13
ENDBRANCH   9  12
ENDBRANCH   5   8
BRANCH   7  20
ATOM     20  S   LIG    1       -6.347   1.564  -0.010  0.00  0.00    +2.690 S 
ATOM     21  O   LIG    1       -6.065   2.956  -0.024  0.00  0.00    -0.950 OA
ATOM     22  O   LIG    1       -7.071   0.927   1.034  0.00  0.00    -0.950 OA
BRANCH  20  23
ATOM     23  N   LIG    1       -7.165   1.238  -1.412  0.00  0.00    -0.990 NA
ATOM     24  C   LIG    1       -6.931   2.041  -2.620  0.00  0.00    +0.290 C 
ATOM     25  C   LIG    1       -6.580   1.094  -3.777  0.00  0.00    +0.010 C 
ATOM     26  C   LIG    1       -7.685   0.046  -3.924  0.00  0.00    +0.020 C 
ATOM     27  C   LIG    1       -7.783  -0.779  -2.639  0.00  0.00    +0.010 C 
ATOM     28  C   LIG    1       -8.144   0.144  -1.471  0.00  0.00    +0.290 C 
ENDBRANCH  20  23
ENDBRANCH   7  20
TORSDOF 5
