REMARK  Name = ZINCqH0000008mzo.0
REMARK                            x       y       z     vdW  Elec       q    Type
REMARK                         _______ _______ _______ _____ _____    ______ ____
ROOT
ATOM      1  N   LIG    1        0.002  -0.004   0.002  0.00  0.00    -0.740 N 
ATOM      2  H   LIG    1        0.849  -0.478  -0.009  0.00  0.00    +0.400 HD
ATOM      3  C   LIG    1       -0.016   1.344   0.009  0.00  0.00    +0.720 C 
ATOM      4  N   LIG    1        1.142   2.033   0.002  0.00  0.00    -0.630 N 
ATOM      5  C   LIG    1        2.441   1.347  -0.014  0.00  0.00    +0.300 C 
ATOM      6  C   LIG    1        3.373   2.030   0.948  0.00  0.00    -0.060 C 
ATOM      7  C   LIG    1        3.118   3.171   1.505  0.00  0.00    -0.090 C 
ATOM      8  C   LIG    1        1.863   3.963   1.290  0.00  0.00    +0.060 C 
ATOM      9  C   LIG    1        1.157   3.507   0.004  0.00  0.00    +0.300 C 
ATOM     10  O   LIG    1       -1.077   1.937   0.018  0.00  0.00    -0.590 OA
ENDROOT
BRANCH   7  11
ATOM     11  C   LIG    1        4.157   3.743   2.435  0.00  0.00    -0.040 C 
ATOM     12  C   LIG    1        3.551   3.922   3.828  0.00  0.00    +0.030 C 
ATOM     13  C   LIG    1        4.624   5.100   1.904  0.00  0.00    +0.040 C 
ATOM     14  C   LIG    1        5.350   2.789   2.516  0.00  0.00    +0.030 C 
ENDBRANCH   7  11
BRANCH   1  16
ATOM     15  C   LIG    1       -1.745  -0.914   1.451  0.00  0.00    +0.040 C 
ATOM     16  C   LIG    1       -1.256  -0.754   0.010  0.00  0.00    +0.360 C 
BRANCH  16  17
ATOM     17  C   LIG    1       -1.035  -2.114  -0.600  0.00  0.00    -0.020 A 
ATOM     18  C   LIG    1       -1.966  -2.896  -1.195  0.00  0.00    +0.170 A 
ATOM     19  N   LIG    1       -1.313  -4.022  -1.592  0.00  0.00    -0.240 N 
ATOM     20  N   LIG    1       -0.077  -3.909  -1.252  0.00  0.00    -0.070 NA
ATOM     21  N   LIG    1        0.122  -2.783  -0.665  0.00  0.00    -0.250 NA
BRANCH  19  22
ATOM     22  C   LIG    1       -1.888  -5.116  -2.256  0.00  0.00    +0.120 A 
ATOM     23  C   LIG    1       -3.243  -5.112  -2.559  0.00  0.00    +0.020 A 
ATOM     24  C   LIG    1       -3.805  -6.188  -3.217  0.00  0.00    +0.040 A 
ATOM     25  C   LIG    1       -3.022  -7.274  -3.565  0.00  0.00    +0.030 A 
ATOM     26  C   LIG    1       -1.674  -7.283  -3.259  0.00  0.00    +0.040 A 
ATOM     27  C   LIG    1       -1.105  -6.207  -2.606  0.00  0.00    +0.040 A 
ENDBRANCH  19  22
ENDBRANCH  16  17
ENDBRANCH   1  16
TORSDOF 4
