REMARK  Name = ZINCrD000000CDVm.0
REMARK                            x       y       z     vdW  Elec       q    Type
REMARK                         _______ _______ _______ _____ _____    ______ ____
ROOT
ATOM      1  O   LIG    1        2.684   0.470  -1.517  0.00  0.00    -0.510 OA
ATOM      2  C   LIG    1        2.751   1.029  -0.440  0.00  0.00    +0.570 C 
ATOM      3  N   LIG    1        1.628   1.276   0.263  0.00  0.00    -0.600 N 
ATOM      4  C   LIG    1        0.329   0.771  -0.202  0.00  0.00    +0.290 C 
ATOM      5  C   LIG    1       -0.305  -0.059   0.921  0.00  0.00    +0.260 C 
ATOM      6  N   LIG    1       -0.253   0.719   2.167  0.00  0.00    -0.610 N 
ATOM      7  C   LIG    1        1.046   1.224   2.632  0.00  0.00    +0.290 C 
ATOM      8  C   LIG    1       -1.376   0.966   2.869  0.00  0.00    +0.570 C 
ATOM      9  O   LIG    1       -1.309   1.527   3.945  0.00  0.00    -0.520 OA
ATOM     10  C   LIG    1        1.681   2.054   1.509  0.00  0.00    +0.270 C 
ENDROOT
BRANCH   2  11
ATOM     11  C   LIG    1        4.068   1.440   0.101  0.00  0.00    -0.070 A 
ATOM     12  C   LIG    1        5.027   2.040  -0.722  0.00  0.00    +0.030 A 
ATOM     13  C   LIG    1        6.242   2.407  -0.177  0.00  0.00    +0.310 A 
ATOM     14  N   LIG    1        6.503   2.198   1.098  0.00  0.00    -0.460 NA
ATOM     15  C   LIG    1        5.628   1.636   1.909  0.00  0.00    +0.170 A 
ATOM     16 CL   LIG    1        6.040   1.391   3.578  0.00  0.00    -0.020 Cl
ATOM     17  C   LIG    1        4.385   1.243   1.448  0.00  0.00    +0.020 A 
ENDBRANCH   2  11
BRANCH   8  18
ATOM     18  C   LIG    1       -2.690   0.553   2.332  0.00  0.00    -0.130 A 
ATOM     19  C   LIG    1       -2.977   0.721   0.976  0.00  0.00    +0.080 A 
ATOM     20  C   LIG    1       -4.203   0.330   0.480  0.00  0.00    +0.030 A 
ATOM     21  C   LIG    1       -5.152  -0.219   1.325  0.00  0.00    +0.090 A 
ATOM     22  C   LIG    1       -4.876  -0.384   2.671  0.00  0.00    -0.180 A 
ATOM     23  C   LIG    1       -3.651  -0.001   3.179  0.00  0.00    +0.130 A 
BRANCH  22  24
ATOM     24  C   LIG    1       -5.915  -0.982   3.584  0.00  0.00    +0.510 C 
ATOM     25  F   LIG    1       -5.281  -1.665   4.627  0.00  0.00    -0.170 F 
ATOM     26  F   LIG    1       -6.713  -1.874   2.860  0.00  0.00    -0.170 F 
ATOM     27  F   LIG    1       -6.714   0.037   4.111  0.00  0.00    -0.170 F 
ENDBRANCH  22  24
ENDBRANCH   8  18
TORSDOF 3
