REMARK  Name = ZINCkj000005hxNT.0
REMARK                            x       y       z     vdW  Elec       q    Type
REMARK                         _______ _______ _______ _____ _____    ______ ____
ROOT
ATOM      1  C   LIG    1        2.199   0.758  -0.489  0.00  0.00    -0.030 C 
ATOM      2  C   LIG    1        1.470  -0.451   0.154  0.00  0.00    +0.040 C 
ATOM      3  C   LIG    1       -0.008  -0.005   0.148  0.00  0.00    +0.250 C 
ATOM      4  N   LIG    1       -0.021   1.463   0.072  0.00  0.00    -0.630 N 
ATOM      5  C   LIG    1       -1.124   2.236   0.020  0.00  0.00    +0.550 C 
ATOM      6  O   LIG    1       -1.019   3.444   0.061  0.00  0.00    -0.490 OA
ATOM      7  C   LIG    1        1.371   1.948   0.057  0.00  0.00    +0.290 C 
ENDROOT
BRANCH   5   8
ATOM      8  C   LIG    1       -2.486   1.601  -0.090  0.00  0.00    +0.220 C 
ATOM      9  O   LIG    1       -3.455   2.454   0.517  0.00  0.00    -0.350 OA
ATOM     10  C   LIG    1       -4.802   2.017   0.304  0.00  0.00    +0.230 C 
ATOM     11  C   LIG    1       -5.156   2.248  -1.166  0.00  0.00    +0.060 C 
ATOM     12  C   LIG    1       -4.071   1.684  -2.046  0.00  0.00    -0.060 A 
ATOM     13  C   LIG    1       -4.344   1.468  -3.387  0.00  0.00    +0.020 A 
ATOM     14  C   LIG    1       -3.369   0.961  -4.224  0.00  0.00    +0.030 A 
ATOM     15  C   LIG    1       -2.116   0.667  -3.721  0.00  0.00    +0.000 A 
ATOM     16  C   LIG    1       -1.843   0.880  -2.385  0.00  0.00    +0.000 A 
ATOM     17  C   LIG    1       -2.821   1.387  -1.544  0.00  0.00    -0.120 A 
ENDBRANCH   5   8
BRANCH   1  18
ATOM     18  C   LIG    1        3.652   0.838  -0.015  0.00  0.00    +0.280 C 
BRANCH  18  20
ATOM     19  C   LIG    1        5.792  -0.244  -0.068  0.00  0.00    +0.330 C 
ATOM     20  N   LIG    1        4.397  -0.320  -0.524  0.00  0.00    -0.510 N 
ATOM     21  H   LIG    1        4.373  -0.320  -1.532  0.00  0.00    +0.430 HD
ATOM     22  H   LIG    1        3.977  -1.170  -0.178  0.00  0.00    +0.430 HD
ENDBRANCH  18  20
ENDBRANCH   1  18
TORSDOF 3
