REMARK  Name = ZINCvU0000000ERf.0
REMARK                            x       y       z     vdW  Elec       q    Type
REMARK                         _______ _______ _______ _____ _____    ______ ____
ROOT
ATOM      1  N   LIG    1        2.301   1.112   1.375  0.00  0.00    -0.990 NA
ATOM      2  C   LIG    1        2.721   2.006   2.465  0.00  0.00    +0.310 C 
ATOM      3  C   LIG    1        1.923   1.638   3.726  0.00  0.00    +0.180 C 
ATOM      4  N   LIG    1        2.087   0.204   4.002  0.00  0.00    -0.520 NA
ATOM      5  C   LIG    1        1.532  -0.615   2.916  0.00  0.00    +0.170 C 
ATOM      6  C   LIG    1        2.309  -0.338   1.624  0.00  0.00    +0.310 C 
ENDROOT
BRANCH   1   8
ATOM      7  O   LIG    1        1.869   0.631  -1.006  0.00  0.00    -0.930 OA
ATOM      8  S   LIG    1        1.840   1.720  -0.094  0.00  0.00    +2.690 S 
ATOM      9  O   LIG    1        2.585   2.915  -0.285  0.00  0.00    -0.940 OA
BRANCH   8  10
ATOM     10  C   LIG    1        0.151   2.204   0.049  0.00  0.00    -0.670 A 
ATOM     11  C   LIG    1       -0.191   3.541  -0.011  0.00  0.00    +0.180 A 
ATOM     12  C   LIG    1       -1.516   3.922   0.102  0.00  0.00    +0.050 A 
ATOM     13  C   LIG    1       -2.499   2.965   0.275  0.00  0.00    +0.030 A 
ATOM     14  C   LIG    1       -2.157   1.625   0.330  0.00  0.00    -0.050 A 
ATOM     15 CL   LIG    1       -3.391   0.422   0.540  0.00  0.00    -0.010 Cl
ATOM     16 CL   LIG    1       -4.162   3.444   0.416  0.00  0.00    -0.020 Cl
ATOM     17  C   LIG    1       -0.831   1.245   0.222  0.00  0.00    +0.070 A 
ATOM     18 CL   LIG    1       -0.400  -0.435   0.297  0.00  0.00    -0.000 Cl
ENDBRANCH   8  10
ENDBRANCH   1   8
BRANCH   4  19
ATOM     19  C   LIG    1        1.486  -0.156   5.293  0.00  0.00    +0.230 C 
BRANCH  19  20
ATOM     20  C   LIG    1        2.054   0.726   6.375  0.00  0.00    -0.080 A 
ATOM     21  C   LIG    1        3.410   0.991   6.409  0.00  0.00    +0.040 A 
ATOM     22  C   LIG    1        3.931   1.804   7.399  0.00  0.00    +0.000 A 
ATOM     23  C   LIG    1        3.096   2.344   8.360  0.00  0.00    +0.000 A 
ATOM     24  C   LIG    1        1.741   2.075   8.328  0.00  0.00    +0.000 A 
ATOM     25  C   LIG    1        1.220   1.265   7.336  0.00  0.00    +0.010 A 
ENDBRANCH  19  20
BRANCH  19  26
ATOM     26  C   LIG    1        1.795  -1.597   5.606  0.00  0.00    -0.080 A 
ATOM     27  C   LIG    1        3.017  -2.136   5.249  0.00  0.00    +0.040 A 
ATOM     28  C   LIG    1        3.302  -3.457   5.540  0.00  0.00    +0.000 A 
ATOM     29  C   LIG    1        2.361  -4.242   6.180  0.00  0.00    +0.000 A 
ATOM     30  C   LIG    1        1.137  -3.705   6.532  0.00  0.00    +0.000 A 
ATOM     31  C   LIG    1        0.854  -2.382   6.245  0.00  0.00    +0.010 A 
ENDBRANCH  19  26
ENDBRANCH   4  19
TORSDOF 5
