REMARK  Name = ZINCpk00000Fe7K7.0
REMARK                            x       y       z     vdW  Elec       q    Type
REMARK                         _______ _______ _______ _____ _____    ______ ____
ROOT
ATOM      1  C   LIG    1       -0.302   0.517   6.985  0.00  0.00    +0.290 C 
ATOM      2  C   LIG    1       -0.847   0.556   5.555  0.00  0.00    +0.190 C 
ATOM      3  N   LIG    1       -0.571   1.875   4.967  0.00  0.00    -0.500 NA
ATOM      4  C   LIG    1        0.872   2.153   4.964  0.00  0.00    +0.150 C 
ATOM      5  C   LIG    1        1.400   2.098   6.400  0.00  0.00    +0.260 C 
ATOM      6  O   LIG    1        1.096   0.820   6.966  0.00  0.00    -0.390 OA
ENDROOT
BRANCH   1  11
ATOM      7  C   LIG    1        0.445  -3.988   9.145  0.00  0.00    +0.200 C 
ATOM      8  C   LIG    1       -0.191  -2.788   8.492  0.00  0.00    +0.180 A 
ATOM      9  N   LIG    1       -1.455  -2.643   8.203  0.00  0.00    -0.290 NA
ATOM     10  N   LIG    1       -1.646  -1.494   7.658  0.00  0.00    -0.280 NA
ATOM     11  C   LIG    1       -0.510  -0.857   7.566  0.00  0.00    +0.190 A 
ATOM     12  N   LIG    1        0.445  -1.659   8.097  0.00  0.00    -0.560 N 
ATOM     13  H   LIG    1        1.392  -1.463   8.177  0.00  0.00    +0.430 HD
ENDBRANCH   1  11
BRANCH   3  14
ATOM     14  C   LIG    1       -1.129   1.974   3.611  0.00  0.00    +0.180 C 
ATOM     15  C   LIG    1       -2.576   1.476   3.617  0.00  0.00    +0.080 C 
BRANCH  14  16
ATOM     16  C   LIG    1       -0.311   1.130   2.668  0.00  0.00    +0.500 C 
ATOM     17  N   LIG    1       -0.188   1.490   1.376  0.00  0.00    -0.550 N 
ATOM     18  C   LIG    1       -0.883   2.617   0.748  0.00  0.00    +0.280 C 
ATOM     19  C   LIG    1       -0.418   2.615  -0.718  0.00  0.00    +0.090 C 
ATOM     20  C   LIG    1        0.539   1.447  -0.812  0.00  0.00    -0.140 A 
ATOM     21  C   LIG    1        1.267   0.956  -1.878  0.00  0.00    +0.050 A 
ATOM     22  C   LIG    1        2.087  -0.144  -1.711  0.00  0.00    -0.010 A 
ATOM     23  C   LIG    1        2.179  -0.752  -0.472  0.00  0.00    +0.040 A 
ATOM     24  C   LIG    1        1.455  -0.264   0.595  0.00  0.00    +0.010 A 
ATOM     25  C   LIG    1        0.624   0.845   0.434  0.00  0.00    +0.140 A 
ATOM     26  O   LIG    1        0.236   0.126   3.073  0.00  0.00    -0.510 OA
ENDBRANCH  14  16
ENDBRANCH   3  14
TORSDOF 3
