REMARK  Name = ZINCpk00000Fe7K7.1
REMARK                            x       y       z     vdW  Elec       q    Type
REMARK                         _______ _______ _______ _____ _____    ______ ____
ROOT
ATOM      1  C   LIG    1       -0.104   1.818   0.216  0.00  0.00    +0.290 C 
ATOM      2  C   LIG    1        1.390   2.126   0.091  0.00  0.00    +0.180 C 
ATOM      3  N   LIG    1        2.094   1.598   1.269  0.00  0.00    -0.510 NA
ATOM      4  C   LIG    1        1.887   0.148   1.394  0.00  0.00    +0.160 C 
ATOM      5  C   LIG    1        0.388  -0.140   1.506  0.00  0.00    +0.240 C 
ATOM      6  O   LIG    1       -0.284   0.407   0.368  0.00  0.00    -0.370 OA
ENDROOT
BRANCH   1  10
ATOM      7  C   LIG    1       -2.965   4.579  -2.828  0.00  0.00    +0.200 C 
ATOM      8  C   LIG    1       -2.057   3.485  -2.329  0.00  0.00    +0.290 A 
ATOM      9  N   LIG    1       -1.594   3.366  -1.111  0.00  0.00    -0.530 NA
ATOM     10  C   LIG    1       -0.820   2.286  -1.025  0.00  0.00    +0.230 A 
ATOM     11  N   LIG    1       -0.786   1.694  -2.190  0.00  0.00    -0.290 NA
ATOM     12  N   LIG    1       -1.585   2.458  -3.056  0.00  0.00    -0.480 N 
ATOM     13  H   LIG    1       -1.762   2.279  -3.993  0.00  0.00    +0.440 HD
ENDBRANCH   1  10
BRANCH   3  14
ATOM     14  C   LIG    1        3.526   1.923   1.216  0.00  0.00    +0.180 C 
ATOM     15  C   LIG    1        4.167   1.210   0.023  0.00  0.00    +0.030 C 
BRANCH  14  16
ATOM     16  C   LIG    1        4.192   1.469   2.489  0.00  0.00    +0.530 C 
ATOM     17  N   LIG    1        5.483   1.778   2.722  0.00  0.00    -0.550 N 
ATOM     18  C   LIG    1        6.311   2.628   1.862  0.00  0.00    +0.270 C 
ATOM     19  C   LIG    1        7.686   2.678   2.549  0.00  0.00    +0.090 C 
ATOM     20  C   LIG    1        7.527   1.816   3.782  0.00  0.00    -0.140 A 
ATOM     21  C   LIG    1        8.425   1.486   4.778  0.00  0.00    +0.050 A 
ATOM     22  C   LIG    1        8.036   0.666   5.820  0.00  0.00    -0.010 A 
ATOM     23  C   LIG    1        6.744   0.176   5.864  0.00  0.00    +0.040 A 
ATOM     24  C   LIG    1        5.843   0.503   4.872  0.00  0.00    +0.010 A 
ATOM     25  C   LIG    1        6.229   1.330   3.816  0.00  0.00    +0.140 A 
ATOM     26  O   LIG    1        3.566   0.825   3.304  0.00  0.00    -0.500 OA
ENDBRANCH  14  16
ENDBRANCH   3  14
TORSDOF 3
