REMARK  Name = ZINCrH00000tj0C4.0
REMARK                            x       y       z     vdW  Elec       q    Type
REMARK                         _______ _______ _______ _____ _____    ______ ____
ROOT
ATOM      1  C   LIG    1       -2.476  -0.238  -0.088  0.00  0.00    -0.060 A 
ATOM      2  C   LIG    1       -2.356   1.113   0.092  0.00  0.00    +0.190 A 
ATOM      3  C   LIG    1       -3.702   1.596   0.420  0.00  0.00    -0.150 A 
ATOM      4  C   LIG    1       -4.240   2.852   0.706  0.00  0.00    +0.120 A 
ATOM      5  C   LIG    1       -5.574   2.972   0.978  0.00  0.00    -0.010 A 
ATOM      6  C   LIG    1       -6.396   1.854   0.972  0.00  0.00    +0.080 A 
ATOM      7  C   LIG    1       -5.883   0.605   0.692  0.00  0.00    +0.020 A 
ATOM      8  C   LIG    1       -4.529   0.459   0.412  0.00  0.00    +0.100 A 
ATOM      9  O   LIG    1       -3.762  -0.607   0.110  0.00  0.00    -0.160 OA
ENDROOT
BRANCH   2  10
ATOM     10  N   LIG    1       -1.197   1.872  -0.018  0.00  0.00    -0.640 N 
ATOM     11  H   LIG    1       -0.524   1.637  -0.676  0.00  0.00    +0.430 HD
ATOM     12  C   LIG    1       -1.009   2.935   0.789  0.00  0.00    +0.520 C 
ATOM     13  O   LIG    1       -1.890   3.287   1.544  0.00  0.00    -0.480 OA
BRANCH  12  14
ATOM     14  C   LIG    1        0.300   3.681   0.758  0.00  0.00    +0.280 C 
BRANCH  14  15
ATOM     15  O   LIG    1        0.258   4.772   1.716  0.00  0.00    -0.330 OA
BRANCH  15  16
ATOM     16  C   LIG    1        1.360   5.544   1.814  0.00  0.00    +0.550 C 
ATOM     17  O   LIG    1        2.329   5.311   1.117  0.00  0.00    -0.490 OA
BRANCH  16  18
ATOM     18  C   LIG    1        1.389   6.662   2.758  0.00  0.00    -0.280 A 
ATOM     19  C   LIG    1        2.444   7.510   2.953  0.00  0.00    +0.130 A 
ATOM     20  C   LIG    1        2.199   8.475   3.899  0.00  0.00    -0.020 A 
ATOM     21  C   LIG    1        0.989   8.416   4.470  0.00  0.00    -0.190 A 
ATOM     22  C   LIG    1        0.500   9.364   5.535  0.00  0.00    +0.140 C 
ATOM     23  S   LIG    1        0.074   7.126   3.831  0.00  0.00    +0.260 S 
ENDBRANCH  16  18
ENDBRANCH  15  16
ENDBRANCH  14  15
ENDBRANCH  12  14
ENDBRANCH   2  10
BRANCH   1  24
ATOM     24  C   LIG    1       -1.417  -1.116  -0.426  0.00  0.00    +0.550 C 
ATOM     25  O   LIG    1       -0.274  -0.701  -0.474  0.00  0.00    -0.500 OA
BRANCH  24  26
ATOM     26  O   LIG    1       -1.675  -2.414  -0.694  0.00  0.00    -0.340 OA
BRANCH  26  28
ATOM     27  C   LIG    1       -1.044  -4.667  -1.297  0.00  0.00    +0.070 C 
ATOM     28  C   LIG    1       -0.559  -3.242  -1.028  0.00  0.00    +0.200 C 
ENDBRANCH  26  28
ENDBRANCH  24  26
ENDBRANCH   1  24
TORSDOF 8
