REMARK  Name = ZINCrD000000BdWs.0
REMARK                            x       y       z     vdW  Elec       q    Type
REMARK                         _______ _______ _______ _____ _____    ______ ____
ROOT
ATOM      1  C   LIG    1        4.324  -3.638   2.102  0.00  0.00    +0.510 C 
ATOM      2  N   LIG    1        4.307  -4.300   3.276  0.00  0.00    -0.640 N 
ATOM      3  H   LIG    1        3.806  -3.945   4.026  0.00  0.00    +0.430 HD
ATOM      4  O   LIG    1        5.016  -4.039   1.189  0.00  0.00    -0.500 OA
ENDROOT
BRANCH   2   5
ATOM      5  C   LIG    1        5.012  -5.500   3.412  0.00  0.00    +0.150 A 
ATOM      6  C   LIG    1        6.216  -5.676   2.747  0.00  0.00    +0.050 A 
ATOM      7  C   LIG    1        6.918  -6.870   2.890  0.00  0.00    -0.020 A 
ATOM      8  C   LIG    1        6.401  -7.886   3.691  0.00  0.00    +0.030 A 
ATOM      9  C   LIG    1        5.199  -7.707   4.347  0.00  0.00    +0.050 A 
ATOM     10  C   LIG    1        4.504  -6.519   4.210  0.00  0.00    -0.060 A 
ATOM     11 CL   LIG    1        2.993  -6.301   5.037  0.00  0.00    -0.060 Cl
BRANCH   7  12
ATOM     12  C   LIG    1        8.209  -7.062   2.185  0.00  0.00    -0.050 A 
ATOM     13  C   LIG    1        8.724  -6.049   1.379  0.00  0.00    +0.030 A 
ATOM     14  C   LIG    1        9.928  -6.231   0.730  0.00  0.00    +0.010 A 
ATOM     15  C   LIG    1       10.619  -7.422   0.870  0.00  0.00    +0.010 A 
ATOM     16  C   LIG    1       10.110  -8.433   1.664  0.00  0.00    +0.010 A 
ATOM     17  C   LIG    1        8.909  -8.259   2.322  0.00  0.00    +0.020 A 
ENDBRANCH   7  12
ENDBRANCH   2   5
BRANCH   1  19
ATOM     18  O   LIG    1        2.799  -2.011   2.838  0.00  0.00    -0.510 OA
ATOM     19  C   LIG    1        3.490  -2.411   1.925  0.00  0.00    +0.510 C 
ATOM     20  N   LIG    1        3.507  -1.749   0.751  0.00  0.00    -0.690 N 
ATOM     21  H   LIG    1        4.060  -2.069   0.022  0.00  0.00    +0.410 HD
BRANCH  20  22
ATOM     22  C   LIG    1        2.690  -0.546   0.578  0.00  0.00    +0.320 C 
BRANCH  22  23
ATOM     23  C   LIG    1        2.890   0.007  -0.835  0.00  0.00    -0.050 C 
ATOM     24  C   LIG    1        2.223   1.316  -1.151  0.00  0.00    -0.020 C 
ATOM     25  C   LIG    1        1.470   1.962   0.015  0.00  0.00    +0.030 C 
ATOM     26  C   LIG    1        0.022   1.466   0.025  0.00  0.00    +0.220 C 
ATOM     27  O   LIG    1        0.032   0.034   0.014  0.00  0.00    -0.380 OA
ATOM     28  C   LIG    1        0.346  -0.516  -1.266  0.00  0.00    +0.250 C 
ATOM     29  C   LIG    1        1.681   0.027  -1.761  0.00  0.00    -0.060 C 
ENDBRANCH  22  23
ENDBRANCH  20  22
ENDBRANCH   1  19
TORSDOF 5
