REMARK  Name = ZINCqH0000003c2S.0
REMARK                            x       y       z     vdW  Elec       q    Type
REMARK                         _______ _______ _______ _____ _____    ______ ____
ROOT
ATOM      1  N   LIG    1       -2.214  -8.866  -0.556  0.00  0.00    -0.740 N 
ATOM      2  H   LIG    1       -1.714  -9.695  -0.618  0.00  0.00    +0.400 HD
ATOM      3  C   LIG    1       -1.562  -7.692  -0.450  0.00  0.00    +0.710 C 
ATOM      4  N   LIG    1       -0.214  -7.669  -0.430  0.00  0.00    -0.570 N 
ATOM      5  C   LIG    1        0.647  -8.851  -0.516  0.00  0.00    +0.260 C 
ATOM      6  C   LIG    1        2.084  -8.309  -0.452  0.00  0.00    +0.100 C 
ATOM      7  C   LIG    1        1.921  -6.810  -0.331  0.00  0.00    -0.150 A 
ATOM      8  C   LIG    1        2.862  -5.802  -0.235  0.00  0.00    +0.070 A 
ATOM      9  C   LIG    1        2.462  -4.484  -0.132  0.00  0.00    +0.000 A 
ATOM     10  C   LIG    1        1.108  -4.173  -0.125  0.00  0.00    +0.170 A 
ATOM     11  C   LIG    1        0.164  -5.182  -0.216  0.00  0.00    +0.000 A 
ATOM     12  C   LIG    1        0.567  -6.513  -0.325  0.00  0.00    +0.190 A 
ATOM     13  O   LIG    1       -2.188  -6.653  -0.373  0.00  0.00    -0.570 OA
ENDROOT
BRANCH  10  14
ATOM     14  N   LIG    1        0.698  -2.840  -0.021  0.00  0.00    -0.660 N 
ATOM     15  H   LIG    1       -0.108  -2.544  -0.471  0.00  0.00    +0.420 HD
ATOM     16  C   LIG    1        1.424  -1.967   0.706  0.00  0.00    +0.600 C 
ATOM     17  O   LIG    1        2.380  -2.357   1.349  0.00  0.00    -0.490 OA
BRANCH  16  18
ATOM     18  C   LIG    1        1.059  -0.544   0.722  0.00  0.00    -0.030 A 
ATOM     19  C   LIG    1        1.715   0.423   1.414  0.00  0.00    +0.070 A 
ATOM     20  C   LIG    1        1.008   1.672   1.135  0.00  0.00    -0.150 A 
ATOM     21  C   LIG    1        1.180   2.999   1.535  0.00  0.00    +0.070 A 
ATOM     22  C   LIG    1        0.320   3.960   1.082  0.00  0.00    -0.010 A 
ATOM     23  C   LIG    1       -0.721   3.626   0.227  0.00  0.00    +0.060 A 
ATOM     24  C   LIG    1       -0.910   2.322  -0.176  0.00  0.00    +0.030 A 
ATOM     25  C   LIG    1       -0.046   1.328   0.268  0.00  0.00    +0.070 A 
ATOM     26  O   LIG    1        0.023   0.000   0.050  0.00  0.00    -0.190 OA
ENDBRANCH  16  18
ENDBRANCH  10  14
BRANCH   1  28
ATOM     27  C   LIG    1       -4.162 -10.337  -0.704  0.00  0.00    +0.030 C 
ATOM     28  C   LIG    1       -3.679  -8.891  -0.578  0.00  0.00    +0.270 C 
ENDBRANCH   1  28
TORSDOF 3
