REMARK  Name = ZINCrH00000lmjCn.0
REMARK                            x       y       z     vdW  Elec       q    Type
REMARK                         _______ _______ _______ _____ _____    ______ ____
ROOT
ATOM      1  C   LIG    1        6.755   3.709  -7.449  0.00  0.00    +0.040 A 
ATOM      2  C   LIG    1        6.602   4.912  -8.062  0.00  0.00    -0.100 A 
ATOM      3  C   LIG    1        6.056   5.998  -7.348  0.00  0.00    +0.510 A 
ATOM      4  O   LIG    1        5.677   5.881  -6.066  0.00  0.00    -0.270 OA
ATOM      5  C   LIG    1        5.803   4.714  -5.398  0.00  0.00    +0.190 A 
ATOM      6  C   LIG    1        5.403   4.608  -4.075  0.00  0.00    -0.020 A 
ATOM      7  C   LIG    1        5.546   3.402  -3.407  0.00  0.00    +0.190 A 
ATOM      8  C   LIG    1        6.079   2.292  -4.057  0.00  0.00    -0.090 A 
ATOM      9  C   LIG    1        6.473   2.377  -5.361  0.00  0.00    +0.130 A 
ATOM     10  O   LIG    1        5.924   7.071  -7.910  0.00  0.00    -0.460 OA
ATOM     11  C   LIG    1        6.340   3.588  -6.050  0.00  0.00    -0.190 A 
ENDROOT
BRANCH   1  12
ATOM     12  C   LIG    1        7.337   2.532  -8.188  0.00  0.00    +0.090 C 
BRANCH  12  14
ATOM     13  C   LIG    1        9.430   1.252  -8.662  0.00  0.00    +0.030 C 
ATOM     14  C   LIG    1        8.839   2.447  -7.912  0.00  0.00    +0.020 C 
ENDBRANCH  12  14
ENDBRANCH   1  12
BRANCH   7  15
ATOM     15  O   LIG    1        5.158   3.301  -2.110  0.00  0.00    -0.290 OA
BRANCH  15  16
ATOM     16  C   LIG    1        5.326   2.030  -1.480  0.00  0.00    +0.200 C 
BRANCH  16  17
ATOM     17  C   LIG    1        4.837   2.110  -0.032  0.00  0.00    +0.360 C 
BRANCH  17  18
ATOM     18  N   LIG    1        3.394   2.362  -0.017  0.00  0.00    -0.550 N 
ATOM     19  C   LIG    1        2.796   3.570  -0.005  0.00  0.00    +0.640 A 
ATOM     20  O   LIG    1        1.464   3.409   0.006  0.00  0.00    -0.240 OA
ATOM     21  C   LIG    1        1.175   2.085   0.002  0.00  0.00    +0.040 A 
ATOM     22  C   LIG    1       -0.017   1.377   0.010  0.00  0.00    +0.060 A 
ATOM     23  C   LIG    1        0.002  -0.004   0.002  0.00  0.00    +0.030 A 
ATOM     24  C   LIG    1        1.206  -0.686  -0.013  0.00  0.00    +0.040 A 
ATOM     25  C   LIG    1        2.399   0.011  -0.020  0.00  0.00    +0.030 A 
ATOM     26  O   LIG    1        3.375   4.640  -0.005  0.00  0.00    -0.470 OA
ATOM     27  C   LIG    1        2.388   1.396  -0.013  0.00  0.00    +0.070 A 
ENDBRANCH  17  18
ENDBRANCH  16  17
ENDBRANCH  15  16
ENDBRANCH   7  15
TORSDOF 6
