REMARK  Name = ZINCpk00000xIi3i.0
REMARK                            x       y       z     vdW  Elec       q    Type
REMARK                         _______ _______ _______ _____ _____    ______ ____
ROOT
ATOM      1  N   LIG    1        4.807   0.127  -0.043  0.00  0.00    -0.540 N 
ATOM      2  C   LIG    1        3.702  -0.653  -0.036  0.00  0.00    +0.560 A 
ATOM      3  C   LIG    1        2.396   0.022  -0.020  0.00  0.00    -0.190 A 
ATOM      4  C   LIG    1        1.198  -0.689  -0.013  0.00  0.00    +0.100 A 
ATOM      5  C   LIG    1        0.002  -0.004   0.002  0.00  0.00    +0.010 A 
ATOM      6  C   LIG    1       -0.017   1.384   0.010  0.00  0.00    +0.070 A 
ATOM      7  C   LIG    1        1.156   2.106   0.002  0.00  0.00    +0.040 A 
ATOM      8  C   LIG    1        2.380   1.435  -0.013  0.00  0.00    +0.150 A 
ATOM      9  N   LIG    1        3.559   2.106  -0.021  0.00  0.00    -0.500 NA
ATOM     10  O   LIG    1        3.785  -1.868  -0.043  0.00  0.00    -0.490 OA
ATOM     11  C   LIG    1        4.698   1.481  -0.035  0.00  0.00    +0.410 A 
ENDROOT
BRANCH   1  12
ATOM     12  C   LIG    1        6.134  -0.494  -0.059  0.00  0.00    +0.490 C 
BRANCH  12  14
ATOM     13  N   LIG    1        6.944  -0.875   2.390  0.00  0.00    -0.380 NA
ATOM     14  C   LIG    1        6.591  -0.709   1.323  0.00  0.00    +0.180 C 
ENDBRANCH  12  14
ENDBRANCH   1  12
BRANCH  11  15
ATOM     15  C   LIG    1        5.963   2.301  -0.044  0.00  0.00    +0.170 C 
BRANCH  15  16
ATOM     16  S   LIG    1        5.541   4.061  -0.032  0.00  0.00    +0.150 S 
BRANCH  16  17
ATOM     17  C   LIG    1        7.157   4.762  -0.045  0.00  0.00    +0.340 A 
ATOM     18  N   LIG    1        7.285   6.082  -0.040  0.00  0.00    -0.560 NA
ATOM     19  C   LIG    1        8.486   6.648  -0.049  0.00  0.00    +0.500 A 
ATOM     20  C   LIG    1        9.629   5.820  -0.065  0.00  0.00    -0.220 A 
ATOM     21  C   LIG    1        9.440   4.433  -0.069  0.00  0.00    +0.440 A 
ATOM     22  N   LIG    1        8.210   3.953  -0.054  0.00  0.00    -0.570 NA
BRANCH  19  23
ATOM     23  N   LIG    1        8.614   8.022  -0.044  0.00  0.00    -0.820 N 
ATOM     24  H   LIG    1        9.495   8.427  -0.051  0.00  0.00    +0.420 HD
ATOM     25  H   LIG    1        7.823   8.583  -0.034  0.00  0.00    +0.420 HD
ENDBRANCH  19  23
BRANCH  20  26
ATOM     26  C   LIG    1       10.945   6.383  -0.074  0.00  0.00    +0.260 C 
ATOM     27  N   LIG    1       11.990   6.830  -0.083  0.00  0.00    -0.410 NA
ENDBRANCH  20  26
ENDBRANCH  16  17
ENDBRANCH  15  16
ENDBRANCH  11  15
TORSDOF 7
