REMARK  Name = ZINCkj000005iFr4.0
REMARK                            x       y       z     vdW  Elec       q    Type
REMARK                         _______ _______ _______ _____ _____    ______ ____
ROOT
ATOM      1  C   LIG    1       -3.125   3.733  -1.950  0.00  0.00    +0.580 C 
ATOM      2  N   LIG    1       -2.596   3.272  -0.800  0.00  0.00    -0.740 N 
ATOM      3  H   LIG    1       -2.454   3.877  -0.055  0.00  0.00    +0.400 HD
ATOM      4  O   LIG    1       -3.303   2.975  -2.884  0.00  0.00    -0.510 OA
ENDROOT
BRANCH   1   8
ATOM      5  C   LIG    1       -4.133   7.803  -2.234  0.00  0.00    +0.360 A 
ATOM      6  C   LIG    1       -4.363   6.989  -3.339  0.00  0.00    -0.030 A 
ATOM      7  C   LIG    1       -4.034   5.650  -3.271  0.00  0.00    +0.180 A 
ATOM      8  C   LIG    1       -3.488   5.158  -2.077  0.00  0.00    -0.250 A 
ATOM      9  C   LIG    1       -3.288   6.037  -1.011  0.00  0.00    +0.340 A 
ATOM     10  N   LIG    1       -3.611   7.309  -1.121  0.00  0.00    -0.540 NA
BRANCH   5  12
ATOM     11  C   LIG    1       -4.190   9.904  -1.131  0.00  0.00    +0.270 C 
ATOM     12  O   LIG    1       -4.448   9.119  -2.297  0.00  0.00    -0.300 OA
ENDBRANCH   5  12
ENDBRANCH   1   8
BRANCH   2  13
ATOM     13  C   LIG    1       -2.235   1.858  -0.674  0.00  0.00    +0.270 C 
ATOM     14  C   LIG    1       -0.806   1.620  -1.204  0.00  0.00    +0.060 C 
ATOM     15  C   LIG    1       -0.013   1.086   0.008  0.00  0.00    +0.280 C 
ATOM     16  N   LIG    1       -0.753   1.587   1.194  0.00  0.00    -0.400 N 
ATOM     17  H   LIG    1       -0.528   2.555   1.368  0.00  0.00    +0.430 HD
ATOM     18  C   LIG    1       -2.185   1.447   0.813  0.00  0.00    +0.280 C 
BRANCH  16  19
ATOM     19  C   LIG    1       -0.450   0.767   2.374  0.00  0.00    +0.290 C 
BRANCH  19  20
ATOM     20  C   LIG    1        1.019   0.952   2.760  0.00  0.00    -0.090 C 
ATOM     21  C   LIG    1        1.933  -0.272   2.671  0.00  0.00    +0.050 C 
ATOM     22  C   LIG    1        1.506   0.268   4.038  0.00  0.00    +0.070 C 
ENDBRANCH  19  20
ENDBRANCH  16  19
ENDBRANCH   2  13
TORSDOF 5
