REMARK  Name = ZINCkj000005iFr4.1
REMARK                            x       y       z     vdW  Elec       q    Type
REMARK                         _______ _______ _______ _____ _____    ______ ____
ROOT
ATOM      1  C   LIG    1        1.152   3.515   0.009  0.00  0.00    +0.580 C 
ATOM      2  N   LIG    1       -0.025   4.171   0.024  0.00  0.00    -0.730 N 
ATOM      3  H   LIG    1       -0.858   3.672   0.029  0.00  0.00    +0.400 HD
ATOM      4  O   LIG    1        2.195   4.140   0.003  0.00  0.00    -0.520 OA
ENDROOT
BRANCH   1   8
ATOM      5  C   LIG    1        1.137  -0.687  -0.013  0.00  0.00    +0.360 A 
ATOM      6  C   LIG    1        2.365  -0.033  -0.021  0.00  0.00    -0.030 A 
ATOM      7  C   LIG    1        2.395   1.347  -0.013  0.00  0.00    +0.180 A 
ATOM      8  C   LIG    1        1.175   2.039   0.002  0.00  0.00    -0.250 A 
ATOM      9  C   LIG    1       -0.016   1.312   0.009  0.00  0.00    +0.340 A 
ATOM     10  N   LIG    1        0.002  -0.004   0.002  0.00  0.00    -0.540 NA
BRANCH   5  12
ATOM     11  C   LIG    1       -0.188  -2.656  -0.009  0.00  0.00    +0.270 C 
ATOM     12  O   LIG    1        1.101  -2.041  -0.019  0.00  0.00    -0.300 OA
ENDBRANCH   5  12
ENDBRANCH   1   8
BRANCH   2  13
ATOM     13  C   LIG    1       -0.049   5.636   0.031  0.00  0.00    +0.260 C 
ATOM     14  C   LIG    1       -0.053   6.179  -1.416  0.00  0.00    +0.070 C 
ATOM     15  C   LIG    1       -1.555   6.449  -1.681  0.00  0.00    +0.260 C 
ATOM     16  N   LIG    1       -2.045   6.957  -0.373  0.00  0.00    -0.390 N 
ATOM     17  H   LIG    1       -1.805   7.931  -0.266  0.00  0.00    +0.430 HD
ATOM     18  C   LIG    1       -1.360   6.146   0.656  0.00  0.00    +0.270 C 
BRANCH  16  19
ATOM     19  C   LIG    1       -3.499   6.779  -0.274  0.00  0.00    +0.290 C 
BRANCH  19  20
ATOM     20  C   LIG    1       -4.197   7.718  -1.261  0.00  0.00    -0.090 C 
ATOM     21  C   LIG    1       -5.102   8.807  -0.681  0.00  0.00    +0.050 C 
ATOM     22  C   LIG    1       -5.716   7.600  -1.394  0.00  0.00    +0.070 C 
ENDBRANCH  19  20
ENDBRANCH  16  19
ENDBRANCH   2  13
TORSDOF 5
