REMARK  Name = ZINCqH0000004Zs2.0
REMARK                            x       y       z     vdW  Elec       q    Type
REMARK                         _______ _______ _______ _____ _____    ______ ____
ROOT
ATOM      1  C   LIG    1        1.184   6.799  -0.399  0.00  0.00    -0.080 A 
ATOM      2  C   LIG    1       -0.190   6.978  -0.568  0.00  0.00    +0.070 A 
ATOM      3  C   LIG    1       -1.050   5.916  -0.380  0.00  0.00    +0.130 A 
ATOM      4  C   LIG    1       -0.553   4.675  -0.024  0.00  0.00    -0.660 A 
ATOM      5  C   LIG    1        0.807   4.491   0.151  0.00  0.00    +0.130 A 
ATOM      6  C   LIG    1        1.678   5.544  -0.040  0.00  0.00    +0.030 A 
ENDROOT
BRANCH   1   9
ATOM      7  C   LIG    1        3.661   6.870   0.952  0.00  0.00    +0.320 C 
ATOM      8  N   LIG    1        3.263   7.992   0.099  0.00  0.00    -0.540 N 
ATOM      9  C   LIG    1        2.111   7.933  -0.598  0.00  0.00    +0.550 C 
ATOM     10  O   LIG    1        1.834   8.812  -1.391  0.00  0.00    -0.500 OA
BRANCH   8  11
ATOM     11  C   LIG    1        4.078   9.124   0.007  0.00  0.00    +0.140 A 
ATOM     12  C   LIG    1        3.629  10.253  -0.667  0.00  0.00    +0.010 A 
ATOM     13  C   LIG    1        4.435  11.371  -0.752  0.00  0.00    +0.030 A 
ATOM     14  C   LIG    1        5.692  11.364  -0.176  0.00  0.00    -0.020 A 
ATOM     15  C   LIG    1        6.144  10.241   0.491  0.00  0.00    +0.030 A 
ATOM     16  C   LIG    1        5.341   9.121   0.584  0.00  0.00    -0.030 A 
ENDBRANCH   8  11
ENDBRANCH   1   9
BRANCH   4  17
ATOM     17  S   LIG    1       -1.658   3.323   0.214  0.00  0.00    +2.690 S 
ATOM     18  O   LIG    1       -1.039   2.460   1.159  0.00  0.00    -0.940 OA
ATOM     19  O   LIG    1       -2.947   3.888   0.406  0.00  0.00    -0.950 OA
BRANCH  17  20
ATOM     20  N   LIG    1       -1.722   2.485  -1.212  0.00  0.00    -1.060 N 
ATOM     21  H   LIG    1       -2.550   2.450  -1.718  0.00  0.00    +0.430 HD
BRANCH  20  22
ATOM     22  C   LIG    1       -0.585   1.828  -1.689  0.00  0.00    +0.120 A 
ATOM     23  C   LIG    1        0.122   2.352  -2.763  0.00  0.00    +0.020 A 
ATOM     24  C   LIG    1        1.243   1.698  -3.235  0.00  0.00    +0.020 A 
ATOM     25  C   LIG    1        1.661   0.522  -2.640  0.00  0.00    +0.020 A 
ATOM     26  C   LIG    1        0.959  -0.003  -1.570  0.00  0.00    +0.020 A 
ATOM     27  C   LIG    1       -0.163   0.647  -1.093  0.00  0.00    +0.040 A 
ENDBRANCH  20  22
ENDBRANCH  17  20
ENDBRANCH   4  17
TORSDOF 5
