REMARK  Name = ZINCnE000001TDM5.0
REMARK                            x       y       z     vdW  Elec       q    Type
REMARK                         _______ _______ _______ _____ _____    ______ ____
ROOT
ATOM      1  C   LIG    1       -0.013   1.086   0.008  0.00  0.00    +0.190 C 
ATOM      2  C   LIG    1        1.428   1.630  -0.003  0.00  0.00    +0.030 C 
ATOM      3  C   LIG    1        1.569   2.424   1.316  0.00  0.00    +0.030 C 
ATOM      4  C   LIG    1        0.457   1.816   2.207  0.00  0.00    +0.160 C 
ATOM      5  N   LIG    1       -0.652   1.574   1.249  0.00  0.00    -0.500 NA
ENDROOT
BRANCH   1  10
ATOM      6  C   LIG    1       -1.665   1.296  -3.389  0.00  0.00    -0.180 A 
ATOM      7  C   LIG    1       -2.134   2.610  -3.328  0.00  0.00    +0.280 A 
ATOM      8  N   LIG    1       -1.919   3.349  -2.260  0.00  0.00    -0.500 NA
ATOM      9  C   LIG    1       -1.260   2.887  -1.214  0.00  0.00    +0.270 A 
ATOM     10  C   LIG    1       -0.763   1.595  -1.195  0.00  0.00    -0.150 A 
ATOM     11  C   LIG    1       -0.957   0.779  -2.295  0.00  0.00    +0.090 A 
BRANCH   6  13
ATOM     12  O   LIG    1       -2.521   0.931  -5.536  0.00  0.00    -0.680 OA
ATOM     13  C   LIG    1       -1.906   0.468  -4.586  0.00  0.00    +0.530 C 
ATOM     14  O   LIG    1       -1.490  -0.682  -4.628  0.00  0.00    -0.690 OA
ENDBRANCH   6  13
ENDBRANCH   1  10
BRANCH   5  15
ATOM     15  C   LIG    1       -1.598   0.584   1.779  0.00  0.00    +0.290 C 
BRANCH  15  16
ATOM     16  C   LIG    1       -2.042   1.000   3.157  0.00  0.00    +0.070 A 
ATOM     17  N   LIG    1       -3.064   1.747   3.410  0.00  0.00    -0.450 NA
ATOM     18  C   LIG    1       -3.314   2.015   4.676  0.00  0.00    +0.110 A 
ATOM     19  C   LIG    1       -2.454   1.465   5.539  0.00  0.00    -0.100 A 
ATOM     20  S   LIG    1       -1.270   0.546   4.614  0.00  0.00    +0.110 S 
BRANCH  18  21
ATOM     21  C   LIG    1       -4.472   2.874   5.114  0.00  0.00    +0.030 C 
ATOM     22  C   LIG    1       -4.275   3.747   6.355  0.00  0.00    +0.030 C 
ATOM     23  C   LIG    1       -5.167   2.506   6.426  0.00  0.00    +0.030 C 
ENDBRANCH  18  21
ENDBRANCH  15  16
ENDBRANCH   5  15
TORSDOF 5
