REMARK  Name = ZINCwl0000000E7a.2
REMARK                            x       y       z     vdW  Elec       q    Type
REMARK                         _______ _______ _______ _____ _____    ______ ____
ROOT
ATOM      1  C   LIG    1        1.254   5.470   0.658  0.00  0.00    +0.370 A 
ATOM      2  N   LIG    1        1.802   6.041  -0.403  0.00  0.00    -0.470 NA
ATOM      3  C   LIG    1        1.931   7.357  -0.496  0.00  0.00    +0.330 A 
ATOM      4  C   LIG    1        1.502   8.195   0.531  0.00  0.00    -0.060 A 
ATOM      5  C   LIG    1        0.929   7.647   1.660  0.00  0.00    +0.150 A 
ATOM      6  C   LIG    1        0.799   6.253   1.733  0.00  0.00    -0.030 A 
ENDROOT
BRANCH   3   7
ATOM      7  N   LIG    1        2.506   7.907  -1.631  0.00  0.00    -0.490 N 
ATOM      8  C   LIG    1        3.660   8.747  -1.281  0.00  0.00    +0.230 C 
ATOM      9  C   LIG    1        4.301   9.286  -2.562  0.00  0.00    +0.280 C 
ATOM     10  N   LIG    1        3.311  10.071  -3.312  0.00  0.00    -0.380 N 
ATOM     11  C   LIG    1        2.176   9.212  -3.675  0.00  0.00    +0.180 C 
ATOM     12  H   LIG    1        3.738  10.436  -4.150  0.00  0.00    +0.430 HD
ATOM     13  C   LIG    1        1.518   8.672  -2.404  0.00  0.00    +0.240 C 
BRANCH  11  14
ATOM     14  C   LIG    1        1.155  10.026  -4.472  0.00  0.00    +0.060 C 
ATOM     15  C   LIG    1        1.775  10.461  -5.802  0.00  0.00    +0.050 C 
ENDBRANCH  11  14
BRANCH  10  16
ATOM     16  C   LIG    1        2.836  11.184  -2.480  0.00  0.00    +0.210 C 
BRANCH  16  17
ATOM     17  C   LIG    1        3.994  12.146  -2.207  0.00  0.00    +0.200 C 
ATOM     18  C   LIG    1        3.532  13.238  -1.239  0.00  0.00    +0.050 C 
BRANCH  17  19
ATOM     19  O   LIG    1        4.415  12.745  -3.434  0.00  0.00    -0.550 OA
ATOM     20  H   LIG    1        3.723  13.251  -3.883  0.00  0.00    +0.390 HD
ENDBRANCH  17  19
ENDBRANCH  16  17
ENDBRANCH  10  16
ENDBRANCH   3   7
BRANCH   1  23
ATOM     21  C   LIG    1        2.283   1.932   0.782  0.00  0.00    +0.140 C 
ATOM     22  C   LIG    1        2.452   3.446   0.640  0.00  0.00    +0.220 C 
ATOM     23  N   LIG    1        1.134   4.092   0.711  0.00  0.00    -0.500 N 
ATOM     24  C   LIG    1        0.250   3.599  -0.353  0.00  0.00    +0.220 C 
ATOM     25  C   LIG    1        0.081   2.084  -0.211  0.00  0.00    +0.190 C 
ATOM     26  N   LIG    1        1.399   1.438  -0.283  0.00  0.00    -0.520 NA
BRANCH  21  28
ATOM     27  C   LIG    1        4.528   1.671   1.847  0.00  0.00    +0.020 C 
ATOM     28  C   LIG    1        3.649   1.252   0.667  0.00  0.00    +0.020 C 
ENDBRANCH  21  28
BRANCH  26  29
ATOM     29  C   LIG    1        1.272  -0.025  -0.226  0.00  0.00    +0.150 C 
BRANCH  29  30
ATOM     30  C   LIG    1        0.260  -0.490  -1.275  0.00  0.00    +0.200 C 
ATOM     31  C   LIG    1        0.159  -2.016  -1.245  0.00  0.00    +0.010 C 
BRANCH  30  32
ATOM     32  O   LIG    1        0.688  -0.066  -2.571  0.00  0.00    -0.550 OA
ATOM     33  H   LIG    1        1.552  -0.414  -2.833  0.00  0.00    +0.380 HD
ENDBRANCH  30  32
ENDBRANCH  29  30
ENDBRANCH  26  29
ENDBRANCH   1  23
BRANCH   6  34
ATOM     34  C   LIG    1        0.211   5.637   2.884  0.00  0.00    +0.250 C 
ATOM     35  N   LIG    1       -0.254   5.148   3.798  0.00  0.00    -0.380 NA
ENDBRANCH   6  34
TORSDOF 11
