REMARK  Name = ZINCwl0000000E7a.1
REMARK                            x       y       z     vdW  Elec       q    Type
REMARK                         _______ _______ _______ _____ _____    ______ ____
ROOT
ATOM      1  C   LIG    1        0.697   6.368   0.773  0.00  0.00    +0.370 A 
ATOM      2  N   LIG    1        1.116   7.047  -0.282  0.00  0.00    -0.480 NA
ATOM      3  C   LIG    1        1.335   8.353  -0.228  0.00  0.00    +0.330 A 
ATOM      4  C   LIG    1        1.141   9.066   0.954  0.00  0.00    -0.080 A 
ATOM      5  C   LIG    1        0.710   8.402   2.083  0.00  0.00    +0.160 A 
ATOM      6  C   LIG    1        0.479   7.021   1.999  0.00  0.00    -0.060 A 
ENDROOT
BRANCH   3   7
ATOM      7  N   LIG    1        1.769   9.020  -1.363  0.00  0.00    -0.500 N 
ATOM      8  C   LIG    1        3.028   9.733  -1.105  0.00  0.00    +0.240 C 
ATOM      9  C   LIG    1        3.502  10.405  -2.396  0.00  0.00    +0.290 C 
ATOM     10  N   LIG    1        2.475  11.343  -2.866  0.00  0.00    -0.380 N 
ATOM     11  C   LIG    1        1.231  10.612  -3.142  0.00  0.00    +0.180 C 
ATOM     12  H   LIG    1        2.305  12.040  -2.156  0.00  0.00    +0.420 HD
ATOM     13  C   LIG    1        0.738   9.942  -1.858  0.00  0.00    +0.240 C 
BRANCH  11  14
ATOM     14  C   LIG    1        0.168  11.588  -3.650  0.00  0.00    +0.030 C 
ATOM     15  C   LIG    1       -1.100  10.814  -4.018  0.00  0.00    +0.060 C 
ENDBRANCH  11  14
BRANCH  10  16
ATOM     16  C   LIG    1        2.939  12.001  -4.095  0.00  0.00    +0.230 C 
BRANCH  16  17
ATOM     17  C   LIG    1        4.142  12.890  -3.774  0.00  0.00    +0.210 C 
ATOM     18  C   LIG    1        4.507  13.719  -5.008  0.00  0.00    +0.050 C 
BRANCH  17  19
ATOM     19  O   LIG    1        5.254  12.072  -3.405  0.00  0.00    -0.550 OA
ATOM     20  H   LIG    1        5.532  11.452  -4.093  0.00  0.00    +0.390 HD
ENDBRANCH  17  19
ENDBRANCH  16  17
ENDBRANCH  10  16
ENDBRANCH   3   7
BRANCH   1  23
ATOM     21  C   LIG    1        1.343   2.749   1.056  0.00  0.00    +0.140 C 
ATOM     22  C   LIG    1        1.655   4.247   1.108  0.00  0.00    +0.210 C 
ATOM     23  N   LIG    1        0.476   5.006   0.671  0.00  0.00    -0.490 N 
ATOM     24  C   LIG    1        0.093   4.636  -0.699  0.00  0.00    +0.220 C 
ATOM     25  C   LIG    1       -0.219   3.139  -0.752  0.00  0.00    +0.180 C 
ATOM     26  N   LIG    1        0.961   2.379  -0.314  0.00  0.00    -0.520 NA
BRANCH  21  28
ATOM     27  C   LIG    1        2.922   2.265   2.931  0.00  0.00    +0.010 C 
ATOM     28  C   LIG    1        2.583   1.955   1.472  0.00  0.00    +0.020 C 
ENDBRANCH  21  28
BRANCH  26  29
ATOM     29  C   LIG    1        0.726   0.933  -0.423  0.00  0.00    +0.190 C 
BRANCH  29  30
ATOM     30  C   LIG    1        0.564   0.552  -1.896  0.00  0.00    +0.160 C 
ATOM     31  C   LIG    1        0.197  -0.929  -2.002  0.00  0.00    +0.010 C 
BRANCH  30  32
ATOM     32  O   LIG    1        1.792   0.789  -2.587  0.00  0.00    -0.550 OA
ATOM     33  H   LIG    1        1.762   0.569  -3.528  0.00  0.00    +0.370 HD
ENDBRANCH  30  32
ENDBRANCH  29  30
ENDBRANCH  26  29
ENDBRANCH   1  23
BRANCH   6  34
ATOM     34  C   LIG    1        0.030   6.287   3.144  0.00  0.00    +0.250 C 
ATOM     35  N   LIG    1       -0.326   5.705   4.053  0.00  0.00    -0.380 NA
ENDBRANCH   6  34
TORSDOF 11
