REMARK  Name = ZINCvU00000003Vq.0
REMARK                            x       y       z     vdW  Elec       q    Type
REMARK                         _______ _______ _______ _____ _____    ______ ____
ROOT
ATOM      1  C   LIG    1       -4.042   1.207   7.340  0.00  0.00    +0.070 A 
ATOM      2  C   LIG    1       -3.613   2.451   6.969  0.00  0.00    +0.020 A 
ATOM      3  C   LIG    1       -2.764   2.241   5.860  0.00  0.00    -0.010 A 
ATOM      4  N   LIG    1       -2.721   0.942   5.638  0.00  0.00    -0.250 NA
ATOM      5  N   LIG    1       -3.457   0.317   6.485  0.00  0.00    -0.230 N 
ENDROOT
BRANCH   1   9
ATOM      6  C   LIG    1       -6.676   0.288  10.546  0.00  0.00    +0.140 A 
ATOM      7  C   LIG    1       -5.907   1.443  10.591  0.00  0.00    -0.010 A 
ATOM      8  C   LIG    1       -5.051   1.744   9.553  0.00  0.00    +0.090 A 
ATOM      9  C   LIG    1       -4.959   0.887   8.456  0.00  0.00    -0.070 A 
ATOM     10  C   LIG    1       -5.737  -0.270   8.412  0.00  0.00    +0.070 A 
ATOM     11  C   LIG    1       -6.587  -0.568   9.456  0.00  0.00    -0.070 A 
BRANCH   6  13
ATOM     12  C   LIG    1       -8.280  -1.210  11.460  0.00  0.00    +0.240 C 
ATOM     13  O   LIG    1       -7.519  -0.006  11.571  0.00  0.00    -0.310 OA
ENDBRANCH   6  13
ENDBRANCH   1   9
BRANCH   5  14
ATOM     14  C   LIG    1       -3.633  -1.072   6.527  0.00  0.00    +0.120 A 
ATOM     15  C   LIG    1       -3.555  -1.748   7.737  0.00  0.00    +0.030 A 
ATOM     16  C   LIG    1       -3.735  -3.116   7.775  0.00  0.00    +0.030 A 
ATOM     17  C   LIG    1       -3.981  -3.816   6.608  0.00  0.00    +0.030 A 
ATOM     18  C   LIG    1       -4.053  -3.147   5.400  0.00  0.00    +0.030 A 
ATOM     19  C   LIG    1       -3.880  -1.777   5.356  0.00  0.00    +0.040 A 
ENDBRANCH   5  14
BRANCH   3  20
ATOM     20  C   LIG    1       -2.051   3.283   5.095  0.00  0.00    +0.610 C 
ATOM     21  N   LIG    1       -1.264   2.938   4.056  0.00  0.00    -0.650 N 
ATOM     22  H   LIG    1       -1.230   2.014   3.761  0.00  0.00    +0.420 HD
ATOM     23  O   LIG    1       -2.173   4.454   5.402  0.00  0.00    -0.510 OA
BRANCH  21  24
ATOM     24  C   LIG    1       -0.497   3.911   3.404  0.00  0.00    +0.120 A 
ATOM     25  C   LIG    1       -0.213   5.112   4.037  0.00  0.00    +0.060 A 
ATOM     26  C   LIG    1        0.544   6.071   3.392  0.00  0.00    +0.000 A 
ATOM     27  C   LIG    1        1.020   5.837   2.115  0.00  0.00    -0.070 A 
ATOM     28  C   LIG    1        0.746   4.640   1.480  0.00  0.00    -0.060 A 
ATOM     29  C   LIG    1        1.845   6.887   1.417  0.00  0.00    +0.100 C 
ATOM     30  C   LIG    1       -0.017   3.676   2.118  0.00  0.00    +0.100 A 
BRANCH  30  31
ATOM     31  O   LIG    1       -0.292   2.500   1.492  0.00  0.00    -0.320 OA
ATOM     32  C   LIG    1        0.233   2.329   0.174  0.00  0.00    +0.250 C 
ENDBRANCH  30  31
ENDBRANCH  21  24
ENDBRANCH   3  20
TORSDOF 6
