REMARK  Name = ZINCrD0000072Slf.0
REMARK                            x       y       z     vdW  Elec       q    Type
REMARK                         _______ _______ _______ _____ _____    ______ ____
ROOT
ATOM      1  C   LIG    1       -1.266  -0.762   0.010  0.00  0.00    +0.520 C 
ATOM      2  O   LIG    1       -2.327  -0.170   0.022  0.00  0.00    -0.480 OA
ENDROOT
BRANCH   1   5
ATOM      3  C   LIG    1        1.184   2.096   0.002  0.00  0.00    -0.130 A 
ATOM      4  C   LIG    1       -0.017   1.389   0.010  0.00  0.00    +0.230 A 
ATOM      5  C   LIG    1        0.002  -0.004   0.002  0.00  0.00    -0.130 A 
ATOM      6  C   LIG    1        1.223  -0.683  -0.013  0.00  0.00    +0.210 A 
ATOM      7  C   LIG    1        2.410   0.024  -0.020  0.00  0.00    -0.060 A 
ATOM      8  C   LIG    1        2.398   1.404  -0.013  0.00  0.00    +0.210 A 
BRANCH   7   9
ATOM      9  N   LIG    1        3.699  -0.702  -0.037  0.00  0.00    +0.030 N 
ATOM     10  O   LIG    1        4.747  -0.082  -0.043  0.00  0.00    -0.140 OA
ATOM     11  O   LIG    1        3.713  -1.920  -0.044  0.00  0.00    -0.140 OA
ENDBRANCH   7   9
BRANCH   3  12
ATOM     12  C   LIG    1        1.174   3.574   0.010  0.00  0.00    +0.510 C 
ATOM     13  O   LIG    1        0.118   4.173   0.022  0.00  0.00    -0.480 OA
BRANCH  12  15
ATOM     14  C   LIG    1        2.249   5.705   0.010  0.00  0.00    +0.290 C 
ATOM     15  O   LIG    1        2.336   4.255   0.002  0.00  0.00    -0.350 OA
ENDBRANCH  12  15
ENDBRANCH   3  12
ENDBRANCH   1   5
BRANCH   1  16
ATOM     16  O   LIG    1       -1.246  -2.109   0.002  0.00  0.00    -0.350 OA
BRANCH  16  17
ATOM     17  C   LIG    1       -2.530  -2.787   0.010  0.00  0.00    +0.300 C 
BRANCH  17  18
ATOM     18  C   LIG    1       -2.310  -4.278   0.000  0.00  0.00    -0.110 A 
ATOM     19  C   LIG    1       -1.026  -4.787  -0.014  0.00  0.00    +0.070 A 
ATOM     20  C   LIG    1       -0.824  -6.155  -0.024  0.00  0.00    -0.010 A 
ATOM     21  C   LIG    1       -1.906  -7.016  -0.018  0.00  0.00    +0.050 A 
ATOM     22  C   LIG    1       -3.192  -6.512  -0.004  0.00  0.00    -0.050 A 
ATOM     23  C   LIG    1       -3.397  -5.140   0.011  0.00  0.00    +0.110 A 
BRANCH  23  24
ATOM     24  O   LIG    1       -4.661  -4.641   0.031  0.00  0.00    -0.320 OA
BRANCH  24  25
ATOM     25  C   LIG    1       -5.732  -5.588   0.042  0.00  0.00    +0.600 C 
ATOM     26  F   LIG    1       -5.629  -6.396   1.179  0.00  0.00    -0.200 F 
ATOM     27  F   LIG    1       -5.661  -6.385  -1.105  0.00  0.00    -0.200 F 
ENDBRANCH  24  25
ENDBRANCH  23  24
ENDBRANCH  17  18
ENDBRANCH  16  17
ENDBRANCH   1  16
TORSDOF 9
