REMARK  Name = ZINCkj00000hcPWr.0
REMARK                            x       y       z     vdW  Elec       q    Type
REMARK                         _______ _______ _______ _____ _____    ______ ____
ROOT
ATOM      1  N   LIG    1        4.447  -1.651  -1.932  0.00  0.00    -0.730 N 
ATOM      2  H   LIG    1        4.237  -2.182  -1.149  0.00  0.00    +0.400 HD
ATOM      3  C   LIG    1        3.804  -0.486  -2.150  0.00  0.00    +0.730 C 
ATOM      4  N   LIG    1        2.868  -0.061  -1.278  0.00  0.00    -0.640 N 
ATOM      5  C   LIG    1        2.459  -0.768  -0.060  0.00  0.00    +0.260 C 
ATOM      6  C   LIG    1        1.393   0.083   0.647  0.00  0.00    +0.040 C 
ATOM      7  C   LIG    1        0.002  -0.004   0.002  0.00  0.00    +0.080 C 
ATOM      8  C   LIG    1       -0.019   1.533   0.011  0.00  0.00    +0.100 C 
ATOM      9  C   LIG    1        1.518   1.483  -0.004  0.00  0.00    -0.010 C 
ATOM     10  C   LIG    1        2.099   1.183  -1.399  0.00  0.00    +0.350 C 
ATOM     11  O   LIG    1        4.068   0.180  -3.132  0.00  0.00    -0.570 OA
ENDROOT
BRANCH   9  12
ATOM     12  N   LIG    1        2.213   2.521   0.768  0.00  0.00    -0.620 N 
ATOM     13  H   LIG    1        2.212   3.385   0.246  0.00  0.00    +0.440 HD
ATOM     14  H   LIG    1        3.165   2.233   0.939  0.00  0.00    +0.440 HD
ATOM     15  H   LIG    1        1.740   2.659   1.648  0.00  0.00    +0.440 HD
ENDBRANCH   9  12
BRANCH   1  16
ATOM     16  C   LIG    1        5.465  -2.114  -2.879  0.00  0.00    +0.360 C 
BRANCH  16  20
ATOM     17  C   LIG    1        5.381  -7.126  -2.779  0.00  0.00    +0.130 C 
ATOM     18  C   LIG    1        5.996  -5.817  -2.354  0.00  0.00    +0.140 A 
ATOM     19  C   LIG    1        5.453  -4.629  -2.805  0.00  0.00    -0.020 A 
ATOM     20  C   LIG    1        6.027  -3.430  -2.409  0.00  0.00    -0.060 A 
ATOM     21  C   LIG    1        7.133  -3.472  -1.575  0.00  0.00    -0.020 A 
ATOM     22  C   LIG    1        7.617  -4.698  -1.160  0.00  0.00    +0.140 A 
ATOM     23  C   LIG    1        8.816  -4.756  -0.247  0.00  0.00    +0.130 C 
ATOM     24  N   LIG    1        7.046  -5.819  -1.557  0.00  0.00    -0.480 NA
ENDBRANCH  16  20
ENDBRANCH   1  16
TORSDOF 3
