REMARK  Name = ZINCrg00000fSva4.0
REMARK                            x       y       z     vdW  Elec       q    Type
REMARK                         _______ _______ _______ _____ _____    ______ ____
ROOT
ATOM      1  C   LIG    1       -4.476  -0.245   3.010  0.00  0.00    +0.270 C 
ATOM      2  C   LIG    1       -5.816  -0.982   2.806  0.00  0.00    +0.090 C 
ATOM      3  C   LIG    1       -6.308  -0.441   1.437  0.00  0.00    +0.190 C 
ATOM      4  C   LIG    1       -4.972  -0.277   0.669  0.00  0.00    +0.240 C 
ATOM      5  N   LIG    1       -4.008   0.186   1.684  0.00  0.00    -0.600 N 
ATOM      6  C   LIG    1       -2.881   0.883   1.437  0.00  0.00    +0.540 C 
ATOM      7  O   LIG    1       -2.158   1.212   2.353  0.00  0.00    -0.520 OA
ENDROOT
BRANCH   1   8
ATOM      8  C   LIG    1       -3.466  -1.174   3.632  0.00  0.00    +0.460 C 
ATOM      9  O   LIG    1       -2.639  -1.720   2.940  0.00  0.00    -0.490 OA
BRANCH   8  10
ATOM     10  O   LIG    1       -3.485  -1.397   4.956  0.00  0.00    -0.350 OA
BRANCH  10  11
ATOM     11  C   LIG    1       -2.483  -2.304   5.487  0.00  0.00    +0.280 C 
BRANCH  11  14
ATOM     12  C   LIG    1       -2.186  -1.720   9.213  0.00  0.00    +0.400 A 
ATOM     13  C   LIG    1       -1.995  -1.577   7.843  0.00  0.00    -0.090 A 
ATOM     14  C   LIG    1       -2.658  -2.429   6.978  0.00  0.00    -0.010 A 
ATOM     15  C   LIG    1       -3.485  -3.406   7.516  0.00  0.00    -0.080 A 
ATOM     16  C   LIG    1       -3.624  -3.495   8.887  0.00  0.00    +0.310 A 
ATOM     17  N   LIG    1       -2.983  -2.665   9.687  0.00  0.00    -0.540 NA
BRANCH  12  18
ATOM     18  N   LIG    1       -1.530  -0.867  10.093  0.00  0.00    -0.850 N 
ATOM     19  H   LIG    1       -0.945  -0.173   9.750  0.00  0.00    +0.410 HD
ATOM     20  H   LIG    1       -1.657  -0.965  11.049  0.00  0.00    +0.410 HD
ENDBRANCH  12  18
ENDBRANCH  11  14
ENDBRANCH  10  11
ENDBRANCH   8  10
ENDBRANCH   1   8
BRANCH   3  21
ATOM     21  O   LIG    1       -7.159  -1.387   0.788  0.00  0.00    -0.550 OA
ATOM     22  H   LIG    1       -7.413  -1.136  -0.111  0.00  0.00    +0.390 HD
ENDBRANCH   3  21
BRANCH   6  23
ATOM     23  C   LIG    1       -2.520   1.253   0.021  0.00  0.00    +0.130 C 
BRANCH  23  24
ATOM     24  C   LIG    1       -1.224   2.023   0.019  0.00  0.00    -0.110 A 
ATOM     25  C   LIG    1       -1.242   3.405   0.031  0.00  0.00    +0.050 A 
ATOM     26  C   LIG    1       -0.054   4.112   0.024  0.00  0.00    +0.000 A 
ATOM     27  C   LIG    1        1.153   3.438   0.009  0.00  0.00    +0.040 A 
ATOM     28  C   LIG    1        1.173   2.056   0.002  0.00  0.00    -0.010 A 
ATOM     29  C   LIG    1       -0.016   1.347   0.009  0.00  0.00    +0.120 A 
ATOM     30  F   LIG    1        0.002  -0.004   0.002  0.00  0.00    -0.140 F 
ENDBRANCH  23  24
ENDBRANCH   6  23
TORSDOF 8
