REMARK  Name = ZINCvU0000000I7Q.0
REMARK                            x       y       z     vdW  Elec       q    Type
REMARK                         _______ _______ _______ _____ _____    ______ ____
ROOT
ATOM      1  N   LIG    1        0.319   5.707  -0.088  0.00  0.00    -0.690 N 
ATOM      2  H   LIG    1       -0.456   6.286  -0.018  0.00  0.00    +0.430 HD
ENDROOT
BRANCH   1   7
ATOM      3  C   LIG    1        1.133   2.289  -1.172  0.00  0.00    -0.650 A 
ATOM      4  C   LIG    1       -0.133   1.766  -1.358  0.00  0.00    +0.090 A 
ATOM      5  C   LIG    1       -1.250   2.549  -1.128  0.00  0.00    +0.040 A 
ATOM      6  C   LIG    1       -1.103   3.854  -0.702  0.00  0.00    -0.070 A 
ATOM      7  C   LIG    1        0.167   4.383  -0.514  0.00  0.00    +0.190 A 
ATOM      8  C   LIG    1       -2.320   4.705  -0.446  0.00  0.00    +0.100 C 
ATOM      9  C   LIG    1        1.286   3.596  -0.751  0.00  0.00    +0.070 A 
BRANCH   3  10
ATOM     10  S   LIG    1        2.552   1.289  -1.473  0.00  0.00    +2.690 S 
ATOM     11  O   LIG    1        2.127  -0.060  -1.340  0.00  0.00    -0.950 OA
ATOM     12  O   LIG    1        3.608   1.851  -0.706  0.00  0.00    -0.950 OA
BRANCH  10  13
ATOM     13  N   LIG    1        2.968   1.494  -3.063  0.00  0.00    -0.990 NA
BRANCH  13  15
ATOM     14  C   LIG    1        5.319   1.980  -3.527  0.00  0.00    +0.020 C 
ATOM     15  C   LIG    1        3.903   2.554  -3.445  0.00  0.00    +0.280 C 
ENDBRANCH  13  15
BRANCH  13  16
ATOM     16  C   LIG    1        2.400   0.614  -4.088  0.00  0.00    +0.290 C 
ATOM     17  C   LIG    1        1.167   1.278  -4.704  0.00  0.00    +0.010 C 
ENDBRANCH  13  16
ENDBRANCH  10  13
ENDBRANCH   3  10
ENDBRANCH   1   7
BRANCH   1  18
ATOM     18  C   LIG    1        1.542   6.178   0.227  0.00  0.00    +0.560 C 
ATOM     19  S   LIG    1        2.406   7.135  -0.899  0.00  0.00    -0.560 S 
BRANCH  18  20
ATOM     20  N   LIG    1        2.085   5.894   1.427  0.00  0.00    -0.510 N 
BRANCH  20  21
ATOM     21  C   LIG    1        1.341   5.084   2.395  0.00  0.00    +0.260 C 
ATOM     22  C   LIG    1       -0.072   5.648   2.553  0.00  0.00    +0.050 C 
BRANCH  21  23
ATOM     23  C   LIG    1        1.261   3.640   1.896  0.00  0.00    -0.070 C 
ATOM     24  C   LIG    1       -0.131   3.047   1.668  0.00  0.00    +0.030 C 
ATOM     25  C   LIG    1        0.710   2.588   2.861  0.00  0.00    +0.030 C 
ENDBRANCH  21  23
ENDBRANCH  20  21
BRANCH  20  26
ATOM     26  C   LIG    1        3.419   6.397   1.765  0.00  0.00    +0.360 C 
BRANCH  26  27
ATOM     27  C   LIG    1        3.296   7.748   2.421  0.00  0.00    -0.110 A 
ATOM     28  C   LIG    1        3.317   8.896   1.651  0.00  0.00    +0.060 A 
ATOM     29  C   LIG    1        3.199  10.134   2.252  0.00  0.00    -0.010 A 
ATOM     30  C   LIG    1        3.070  10.227   3.626  0.00  0.00    +0.010 A 
ATOM     31  C   LIG    1        3.053   9.079   4.397  0.00  0.00    -0.010 A 
ATOM     32  C   LIG    1        3.166   7.840   3.795  0.00  0.00    +0.020 A 
ENDBRANCH  26  27
ENDBRANCH  20  26
ENDBRANCH  18  20
ENDBRANCH   1  18
TORSDOF 11
