REMARK  Name = ZINCrD00000F5Lqv.0
REMARK                            x       y       z     vdW  Elec       q    Type
REMARK                         _______ _______ _______ _____ _____    ______ ____
ROOT
ATOM      1  C   LIG    1        4.000  -4.188   0.745  0.00  0.00    +0.350 C 
ATOM      2  N   LIG    1        2.739  -3.988   0.469  0.00  0.00    -0.480 NA
ATOM      3  C   LIG    1        2.474  -2.653   0.538  0.00  0.00    -0.090 C 
ATOM      4  C   LIG    1        3.750  -2.016   0.894  0.00  0.00    +0.480 C 
ATOM      5  O   LIG    1        3.963  -0.828   1.054  0.00  0.00    -0.410 OA
ATOM      6  C   LIG    1        1.255  -2.025   0.313  0.00  0.00    +0.250 C 
ATOM      7  O   LIG    1        4.635  -3.030   1.008  0.00  0.00    -0.290 OA
ENDROOT
BRANCH   6   8
ATOM      8  C   LIG    1        1.120  -0.653   0.552  0.00  0.00    -0.210 C 
ATOM      9  C   LIG    1        1.417  -0.137   1.783  0.00  0.00    +0.140 C 
ATOM     10  C   LIG    1        1.239   1.305   1.982  0.00  0.00    -0.180 A 
ATOM     11  C   LIG    1        1.821   1.969   3.064  0.00  0.00    +0.120 A 
ATOM     12  C   LIG    1        1.630   3.314   3.216  0.00  0.00    -0.100 A 
ATOM     13  C   LIG    1        0.867   4.026   2.294  0.00  0.00    +0.180 A 
ATOM     14  C   LIG    1        0.285   3.381   1.210  0.00  0.00    -0.030 A 
ATOM     15  C   LIG    1        0.465   2.022   1.047  0.00  0.00    +0.180 A 
ATOM     16  O   LIG    1       -0.089   1.359   0.002  0.00  0.00    -0.300 OA
ATOM     17  C   LIG    1        0.648   0.265  -0.545  0.00  0.00    +0.320 C 
BRANCH  13  18
ATOM     18  O   LIG    1        0.691   5.362   2.456  0.00  0.00    -0.310 OA
ATOM     19  C   LIG    1        1.316   5.967   3.590  0.00  0.00    +0.240 C 
ENDBRANCH  13  18
ENDBRANCH   6   8
BRANCH   1  23
ATOM     20  C   LIG    1        5.859  -8.005   0.805  0.00  0.00    +0.160 A 
ATOM     21  C   LIG    1        6.603  -6.867   1.091  0.00  0.00    -0.020 A 
ATOM     22  C   LIG    1        6.004  -5.627   1.073  0.00  0.00    +0.110 A 
ATOM     23  C   LIG    1        4.646  -5.514   0.765  0.00  0.00    -0.090 A 
ATOM     24  C   LIG    1        3.899  -6.662   0.483  0.00  0.00    +0.140 A 
ATOM     25  C   LIG    1        4.508  -7.897   0.498  0.00  0.00    -0.080 A 
BRANCH  20  27
ATOM     26  C   LIG    1        5.630 -10.353   0.520  0.00  0.00    +0.240 C 
ATOM     27  O   LIG    1        6.453  -9.226   0.824  0.00  0.00    -0.310 OA
ENDBRANCH  20  27
ENDBRANCH   1  23
TORSDOF 4
