REMARK  Name = ZINCpe00000MJMmu.0
REMARK                            x       y       z     vdW  Elec       q    Type
REMARK                         _______ _______ _______ _____ _____    ______ ____
ROOT
ATOM      1  N   LIG    1       -1.378  -6.424   4.263  0.00  0.00    -0.570 N 
ATOM      2  C   LIG    1       -0.277  -6.566   5.014  0.00  0.00    +0.700 C 
ATOM      3  N   LIG    1        0.784  -5.910   4.501  0.00  0.00    -0.700 N 
ATOM      4  H   LIG    1        1.680  -5.869   4.870  0.00  0.00    +0.450 HD
ATOM      5  C   LIG    1        0.309  -5.271   3.277  0.00  0.00    +0.110 C 
ATOM      6  C   LIG    1        1.106  -5.718   2.046  0.00  0.00    +0.070 C 
ATOM      7  C   LIG    1        2.100  -4.568   1.781  0.00  0.00    +0.190 C 
ATOM      8  N   LIG    1        1.892  -3.562   2.846  0.00  0.00    -0.490 NA
ATOM      9  C   LIG    1        0.493  -3.746   3.317  0.00  0.00    +0.230 C 
ATOM     10  O   LIG    1       -0.240  -7.213   6.042  0.00  0.00    -0.530 OA
ATOM     11  C   LIG    1       -1.141  -5.654   3.176  0.00  0.00    +0.540 C 
ATOM     12  O   LIG    1       -1.928  -5.341   2.309  0.00  0.00    -0.460 OA
ENDROOT
BRANCH   1  14
ATOM     13  C   LIG    1       -2.530  -8.549   4.629  0.00  0.00    +0.050 C 
ATOM     14  C   LIG    1       -2.675  -7.027   4.578  0.00  0.00    +0.250 C 
ATOM     15  C   LIG    1       -3.159  -6.515   5.936  0.00  0.00    +0.050 C 
ENDBRANCH   1  14
BRANCH   8  16
ATOM     16  C   LIG    1        2.099  -2.201   2.332  0.00  0.00    +0.210 C 
BRANCH  16  17
ATOM     17  C   LIG    1        1.799  -1.202   3.420  0.00  0.00    +0.520 C 
ATOM     18  N   LIG    1        1.801   0.117   3.143  0.00  0.00    -0.730 N 
ATOM     19  H   LIG    1        1.996   0.423   2.243  0.00  0.00    +0.410 HD
ATOM     20  O   LIG    1        1.555  -1.585   4.544  0.00  0.00    -0.520 OA
BRANCH  18  21
ATOM     21  C   LIG    1        1.509   1.088   4.200  0.00  0.00    +0.350 C 
ATOM     22  C   LIG    1       -0.005   1.266   4.325  0.00  0.00    +0.040 C 
BRANCH  21  23
ATOM     23  C   LIG    1        2.144   2.410   3.856  0.00  0.00    -0.030 A 
ATOM     24  C   LIG    1        2.753   3.239   4.723  0.00  0.00    -0.040 A 
ATOM     25  C   LIG    1        3.202   4.354   3.978  0.00  0.00    -0.060 A 
ATOM     26  C   LIG    1        2.833   4.143   2.701  0.00  0.00    +0.180 A 
ATOM     27  O   LIG    1        2.193   2.965   2.634  0.00  0.00    -0.180 OA
ENDBRANCH  21  23
ENDBRANCH  18  21
ENDBRANCH  16  17
ENDBRANCH   8  16
TORSDOF 5
