REMARK  Name = ZINCrg000000s4to.0
REMARK                            x       y       z     vdW  Elec       q    Type
REMARK                         _______ _______ _______ _____ _____    ______ ____
ROOT
ATOM      1  C   LIG    1        1.654  -1.795  -0.023  0.00  0.00    +0.610 C 
ATOM      2  N   LIG    1        1.390  -0.473  -0.014  0.00  0.00    -0.710 N 
ATOM      3  H   LIG    1        2.118   0.167  -0.017  0.00  0.00    +0.410 HD
ATOM      4  O   LIG    1        0.740  -2.598  -0.019  0.00  0.00    -0.560 OA
ENDROOT
BRANCH   1  12
ATOM      5  C   LIG    1        2.717  -7.269  -0.064  0.00  0.00    +0.170 C 
ATOM      6  C   LIG    1        3.469  -5.964  -0.064  0.00  0.00    +0.210 A 
ATOM      7  C   LIG    1        4.822  -5.961  -0.077  0.00  0.00    -0.120 A 
ATOM      8  C   LIG    1        5.518  -4.734  -0.077  0.00  0.00    +0.560 A 
ATOM      9  N   LIG    1        4.830  -3.574  -0.064  0.00  0.00    -0.360 N 
ATOM     10  N   LIG    1        5.250  -2.239  -0.061  0.00  0.00    -0.260 NA
ATOM     11  C   LIG    1        4.205  -1.459  -0.052  0.00  0.00    +0.340 A 
ATOM     12  C   LIG    1        3.045  -2.266  -0.039  0.00  0.00    -0.320 A 
ATOM     13  C   LIG    1        3.471  -3.592  -0.050  0.00  0.00    +0.390 A 
ATOM     14  O   LIG    1        6.736  -4.723  -0.089  0.00  0.00    -0.480 OA
ATOM     15  N   LIG    1        2.789  -4.782  -0.050  0.00  0.00    -0.590 N 
ATOM     16  H   LIG    1        1.819  -4.784  -0.040  0.00  0.00    +0.450 HD
ENDBRANCH   1  12
BRANCH   2  17
ATOM     17  C   LIG    1        0.002  -0.004   0.002  0.00  0.00    +0.300 C 
BRANCH  17  18
ATOM     18  C   LIG    1       -0.018   1.503   0.010  0.00  0.00    +0.520 C 
ATOM     19  N   LIG    1       -1.195   2.161   0.019  0.00  0.00    -0.610 N 
ATOM     20  C   LIG    1       -1.249   3.632   0.034  0.00  0.00    +0.290 C 
ATOM     21  C   LIG    1       -1.902   4.085  -1.276  0.00  0.00    +0.070 C 
ATOM     22  C   LIG    1       -3.158   3.300  -1.548  0.00  0.00    -0.070 A 
ATOM     23  C   LIG    1       -4.078   3.843  -2.436  0.00  0.00    +0.000 A 
ATOM     24  C   LIG    1       -5.243   3.169  -2.739  0.00  0.00    +0.010 A 
ATOM     25  C   LIG    1       -5.500   1.943  -2.155  0.00  0.00    +0.010 A 
ATOM     26  C   LIG    1       -4.590   1.403  -1.269  0.00  0.00    +0.020 A 
ATOM     27  C   LIG    1       -3.419   2.081  -0.961  0.00  0.00    -0.100 A 
ATOM     28  C   LIG    1       -2.472   1.440   0.022  0.00  0.00    +0.340 C 
ATOM     29  O   LIG    1        1.024   2.123   0.004  0.00  0.00    -0.530 OA
ENDBRANCH  17  18
ENDBRANCH   2  17
TORSDOF 3
