REMARK  Name = ZINCqH0000000vWP.0
REMARK                            x       y       z     vdW  Elec       q    Type
REMARK                         _______ _______ _______ _____ _____    ______ ____
ROOT
ATOM      1  C   LIG    1       -0.701   1.779  -3.707  0.00  0.00    +0.300 C 
ATOM      2  C   LIG    1        0.005   1.171  -2.491  0.00  0.00    +0.030 C 
ATOM      3  C   LIG    1       -0.755   1.594  -1.230  0.00  0.00    +0.130 C 
ATOM      4  O   LIG    1       -2.064   1.030  -1.273  0.00  0.00    -0.300 OA
ATOM      5  C   LIG    1       -2.782   1.168  -2.418  0.00  0.00    +0.140 A 
ATOM      6  C   LIG    1       -4.153   0.940  -2.374  0.00  0.00    -0.020 A 
ATOM      7  C   LIG    1       -4.914   1.057  -3.520  0.00  0.00    +0.050 A 
ATOM      8  C   LIG    1       -4.312   1.402  -4.715  0.00  0.00    -0.040 A 
ATOM      9  C   LIG    1       -2.950   1.631  -4.763  0.00  0.00    +0.060 A 
ATOM     10  C   LIG    1       -0.013   1.086   0.008  0.00  0.00    +0.040 C 
ATOM     11  C   LIG    1       -0.732   1.581   1.266  0.00  0.00    +0.220 C 
ATOM     12  O   LIG    1       -0.804   3.008   1.240  0.00  0.00    -0.380 OA
ATOM     13  C   LIG    1       -1.533   3.537   0.130  0.00  0.00    +0.230 C 
ATOM     14  C   LIG    1       -0.847   3.120  -1.174  0.00  0.00    -0.010 C 
ATOM     15  C   LIG    1       -2.183   1.517  -3.616  0.00  0.00    -0.180 A 
ENDROOT
BRANCH   1  17
ATOM     16  C   LIG    1       -0.236   1.844  -6.097  0.00  0.00    +0.580 C 
ATOM     17  N   LIG    1       -0.172   1.172  -4.931  0.00  0.00    -0.720 N 
ATOM     18  H   LIG    1        0.223   0.287  -4.902  0.00  0.00    +0.400 HD
ATOM     19  O   LIG    1       -0.732   2.954  -6.134  0.00  0.00    -0.520 OA
BRANCH  16  22
ATOM     20  C   LIG    1        0.806   1.130  -9.568  0.00  0.00    -0.320 A 
ATOM     21  C   LIG    1        0.262   1.871  -8.561  0.00  0.00    +0.170 A 
ATOM     22  C   LIG    1        0.296   1.234  -7.329  0.00  0.00    -0.170 A 
ATOM     23  C   LIG    1        0.871  -0.007  -7.355  0.00  0.00    -0.020 A 
ATOM     24  S   LIG    1        1.373  -0.408  -8.935  0.00  0.00    +0.290 S 
BRANCH  20  26
ATOM     25  C   LIG    1        1.526   0.624 -11.941  0.00  0.00    +0.060 C 
ATOM     26  C   LIG    1        0.900   1.538 -10.919  0.00  0.00    +0.420 C 
ATOM     27  O   LIG    1        0.476   2.625 -11.256  0.00  0.00    -0.450 OA
ENDBRANCH  20  26
ENDBRANCH  16  22
ENDBRANCH   1  17
TORSDOF 3
