REMARK  Name = ZINCkj000005jubQ.1
REMARK                            x       y       z     vdW  Elec       q    Type
REMARK                         _______ _______ _______ _____ _____    ______ ____
ROOT
ATOM      1  C   LIG    1        2.655  -1.081   0.461  0.00  0.00    +0.100 C 
ATOM      2  C   LIG    1        2.271  -0.195  -0.726  0.00  0.00    +0.230 C 
ATOM      3  C   LIG    1        2.459   1.250  -0.346  0.00  0.00    -0.110 A 
ATOM      4  C   LIG    1        3.743   1.773  -0.348  0.00  0.00    +0.020 A 
ATOM      5  C   LIG    1        3.959   3.097  -0.002  0.00  0.00    +0.130 A 
ATOM      6  C   LIG    1        2.885   3.902   0.347  0.00  0.00    +0.020 A 
ATOM      7  C   LIG    1        1.608   3.379   0.347  0.00  0.00    +0.050 A 
ATOM      8  C   LIG    1        1.393   2.054  -0.000  0.00  0.00    -0.100 A 
ATOM      9  C   LIG    1       -0.019   1.525   0.010  0.00  0.00    +0.130 C 
ATOM     10  C   LIG    1        0.002  -0.004   0.002  0.00  0.00    +0.260 C 
ATOM     11  N   LIG    1        0.876  -0.455  -1.092  0.00  0.00    -0.380 N 
ATOM     12  H   LIG    1        0.648   0.049  -1.936  0.00  0.00    +0.430 HD
ENDROOT
BRANCH   5  13
ATOM     13  O   LIG    1        5.219   3.606  -0.005  0.00  0.00    -0.490 OA
ATOM     14  H   LIG    1        5.682   3.516   0.839  0.00  0.00    +0.400 HD
ENDBRANCH   5  13
BRANCH  11  15
ATOM     15  C   LIG    1        0.685  -1.895  -1.312  0.00  0.00    +0.240 C 
BRANCH  15  16
ATOM     16  C   LIG    1       -0.741  -2.151  -1.802  0.00  0.00    +0.340 C 
BRANCH  16  17
ATOM     17  N   LIG    1       -0.931  -3.587  -2.022  0.00  0.00    -0.630 N 
ATOM     18  C   LIG    1       -1.409  -4.547  -1.015  0.00  0.00    +0.270 C 
ATOM     19  C   LIG    1       -1.421  -5.893  -1.765  0.00  0.00    +0.270 C 
ATOM     20  N   LIG    1       -0.949  -5.549  -3.115  0.00  0.00    -0.730 N 
ATOM     21  H   LIG    1       -0.837  -6.175  -3.848  0.00  0.00    +0.440 HD
ATOM     22  C   LIG    1       -0.702  -4.234  -3.172  0.00  0.00    +0.700 C 
ATOM     23  O   LIG    1       -0.303  -3.678  -4.177  0.00  0.00    -0.580 OA
ENDBRANCH  16  17
ENDBRANCH  15  16
ENDBRANCH  11  15
TORSDOF 4
