REMARK  Name = ZINCkj000005jubQ.0
REMARK                            x       y       z     vdW  Elec       q    Type
REMARK                         _______ _______ _______ _____ _____    ______ ____
ROOT
ATOM      1  C   LIG    1        1.360   1.952  -2.401  0.00  0.00    +0.110 C 
ATOM      2  C   LIG    1        0.026   1.202  -2.386  0.00  0.00    +0.220 C 
ATOM      3  C   LIG    1       -0.754   1.555  -3.625  0.00  0.00    -0.110 A 
ATOM      4  C   LIG    1       -0.076   1.648  -4.830  0.00  0.00    +0.020 A 
ATOM      5  C   LIG    1       -0.757   1.968  -5.993  0.00  0.00    +0.130 A 
ATOM      6  C   LIG    1       -2.125   2.196  -5.950  0.00  0.00    +0.020 A 
ATOM      7  C   LIG    1       -2.797   2.103  -4.749  0.00  0.00    +0.050 A 
ATOM      8  C   LIG    1       -2.114   1.784  -3.586  0.00  0.00    -0.100 A 
ATOM      9  C   LIG    1       -2.887   1.699  -2.294  0.00  0.00    +0.140 C 
ATOM     10  C   LIG    1       -2.059   0.960  -1.243  0.00  0.00    +0.260 C 
ATOM     11  N   LIG    1       -0.723   1.572  -1.182  0.00  0.00    -0.380 N 
ATOM     12  H   LIG    1       -0.812   2.576  -1.135  0.00  0.00    +0.430 HD
ENDROOT
BRANCH   5  13
ATOM     13  O   LIG    1       -0.087   2.059  -7.173  0.00  0.00    -0.490 OA
ATOM     14  H   LIG    1       -0.041   1.227  -7.663  0.00  0.00    +0.400 HD
ENDBRANCH   5  13
BRANCH  11  15
ATOM     15  C   LIG    1       -0.013   1.086   0.008  0.00  0.00    +0.230 C 
BRANCH  15  16
ATOM     16  C   LIG    1       -0.729   1.579   1.267  0.00  0.00    +0.340 C 
BRANCH  16  17
ATOM     17  N   LIG    1       -0.020   1.094   2.454  0.00  0.00    -0.640 N 
ATOM     18  C   LIG    1       -0.291  -0.173   3.149  0.00  0.00    +0.270 C 
ATOM     19  C   LIG    1        0.727  -0.185   4.306  0.00  0.00    +0.270 C 
ATOM     20  N   LIG    1        1.457   1.082   4.145  0.00  0.00    -0.730 N 
ATOM     21  H   LIG    1        2.174   1.394   4.719  0.00  0.00    +0.440 HD
ATOM     22  C   LIG    1        0.973   1.737   3.082  0.00  0.00    +0.700 C 
ATOM     23  O   LIG    1        1.397   2.817   2.719  0.00  0.00    -0.580 OA
ENDBRANCH  16  17
ENDBRANCH  15  16
ENDBRANCH  11  15
TORSDOF 4
