REMARK  Name = ZINCrH00000tj1hY.0
REMARK                            x       y       z     vdW  Elec       q    Type
REMARK                         _______ _______ _______ _____ _____    ______ ____
ROOT
ATOM      1  O   LIG    1       -2.530   4.258  -2.168  0.00  0.00    -0.500 OA
ATOM      2  C   LIG    1       -2.784   5.423  -1.935  0.00  0.00    +0.540 C 
ENDROOT
BRANCH   2   3
ATOM      3  C   LIG    1       -2.082   6.125  -0.852  0.00  0.00    -0.210 A 
ATOM      4  C   LIG    1       -2.256   7.425  -0.466  0.00  0.00    +0.280 A 
ATOM      5  N   LIG    1       -1.422   7.688   0.558  0.00  0.00    -0.540 N 
ATOM      6  H   LIG    1       -1.352   8.544   1.008  0.00  0.00    +0.430 HD
ATOM      7  C   LIG    1       -0.689   6.582   0.875  0.00  0.00    +0.200 A 
ATOM      8  C   LIG    1       -1.048   5.569   0.042  0.00  0.00    -0.050 A 
BRANCH   8   9
ATOM      9  C   LIG    1       -0.508   4.194   0.029  0.00  0.00    -0.100 A 
ATOM     10  C   LIG    1        0.801   3.872   0.015  0.00  0.00    +0.020 A 
ATOM     11  C   LIG    1        1.061   2.515   0.005  0.00  0.00    +0.030 A 
ATOM     12  C   LIG    1       -0.021   1.732   0.012  0.00  0.00    -0.170 A 
ATOM     13 CL   LIG    1        0.002  -0.004   0.002  0.00  0.00    -0.020 Cl
ATOM     14  S   LIG    1       -1.474   2.724   0.023  0.00  0.00    +0.220 S 
ENDBRANCH   8   9
ENDBRANCH   2   3
BRANCH   2  15
ATOM     15  O   LIG    1       -3.710   6.072  -2.669  0.00  0.00    -0.330 OA
BRANCH  15  16
ATOM     16  C   LIG    1       -4.364   5.316  -3.722  0.00  0.00    +0.250 C 
BRANCH  16  17
ATOM     17  C   LIG    1       -5.360   6.198  -4.430  0.00  0.00    +0.520 C 
ATOM     18  N   LIG    1       -6.090   5.707  -5.450  0.00  0.00    -0.610 N 
ATOM     19  C   LIG    1       -5.935   4.313  -5.903  0.00  0.00    +0.260 C 
ATOM     20  C   LIG    1       -5.746   4.297  -7.418  0.00  0.00    +0.220 C 
ATOM     21  O   LIG    1       -6.776   5.068  -8.046  0.00  0.00    -0.370 OA
ATOM     22  C   LIG    1       -6.773   6.441  -7.662  0.00  0.00    +0.140 C 
ATOM     23  C   LIG    1       -7.820   7.244  -8.429  0.00  0.00    +0.040 C 
ATOM     24  C   LIG    1       -7.747   8.711  -7.994  0.00  0.00    +0.010 C 
ATOM     25  C   LIG    1       -7.999   8.824  -6.490  0.00  0.00    +0.000 C 
ATOM     26  C   LIG    1       -6.962   7.999  -5.723  0.00  0.00    +0.060 C 
ATOM     27  C   LIG    1       -7.068   6.540  -6.161  0.00  0.00    +0.200 C 
ATOM     28  O   LIG    1       -5.504   7.351  -4.081  0.00  0.00    -0.510 OA
ENDBRANCH  16  17
ENDBRANCH  15  16
ENDBRANCH   2  15
TORSDOF 5
