REMARK  Name = ZINCtV000002Ayxa.0
REMARK                            x       y       z     vdW  Elec       q    Type
REMARK                         _______ _______ _______ _____ _____    ______ ____
ROOT
ATOM      1  C   LIG    1        0.489  -2.829  -0.849  0.00  0.00    +0.090 A 
ATOM      2  C   LIG    1        1.535  -1.936  -0.977  0.00  0.00    +0.000 A 
ATOM      3  C   LIG    1        1.280  -0.567  -0.969  0.00  0.00    -0.100 A 
ATOM      4  C   LIG    1       -0.031  -0.090  -0.833  0.00  0.00    +0.070 A 
ATOM      5  O   LIG    1       -0.000   1.262  -0.856  0.00  0.00    -0.200 OA
ATOM      6  C   LIG    1        1.260   1.727  -1.002  0.00  0.00    +0.090 A 
ATOM      7  C   LIG    1        1.780   3.013  -1.078  0.00  0.00    +0.020 A 
ATOM      8  C   LIG    1        3.138   3.203  -1.230  0.00  0.00    +0.060 A 
ATOM      9  C   LIG    1        3.997   2.118  -1.309  0.00  0.00    -0.010 A 
ATOM     10  C   LIG    1        3.500   0.834  -1.234  0.00  0.00    +0.070 A 
ATOM     11  C   LIG    1       -1.075  -0.997  -0.705  0.00  0.00    +0.080 A 
ATOM     12  C   LIG    1        2.132   0.632  -1.081  0.00  0.00    -0.120 A 
ATOM     13  C   LIG    1       -0.818  -2.357  -0.713  0.00  0.00    +0.160 A 
ENDROOT
BRANCH  13  14
ATOM     14  N   LIG    1       -1.876  -3.266  -0.583  0.00  0.00    -0.660 N 
ATOM     15  H   LIG    1       -1.799  -4.157  -0.960  0.00  0.00    +0.420 HD
ATOM     16  C   LIG    1       -3.000  -2.903   0.065  0.00  0.00    +0.520 C 
ATOM     17  O   LIG    1       -3.105  -1.783   0.517  0.00  0.00    -0.510 OA
BRANCH  16  18
ATOM     18  C   LIG    1       -4.128  -3.890   0.228  0.00  0.00    +0.040 C 
BRANCH  18  19
ATOM     19  C   LIG    1       -5.442  -3.152   0.244  0.00  0.00    -0.070 A 
ATOM     20  C   LIG    1       -5.691  -2.204   1.218  0.00  0.00    +0.070 A 
ATOM     21  C   LIG    1       -6.894  -1.524   1.230  0.00  0.00    +0.020 A 
ATOM     22  C   LIG    1       -7.854  -1.799   0.273  0.00  0.00    -0.030 A 
ATOM     23  C   LIG    1       -7.606  -2.752  -0.699  0.00  0.00    +0.020 A 
ATOM     24 CL   LIG    1       -9.367  -0.950   0.291  0.00  0.00    -0.070 Cl
ATOM     25  C   LIG    1       -6.401  -3.429  -0.713  0.00  0.00    +0.030 A 
ENDBRANCH  18  19
BRANCH  18  26
ATOM     26  C   LIG    1       -3.954  -4.650   1.544  0.00  0.00    +0.000 C 
ATOM     27  C   LIG    1       -2.654  -5.456   1.499  0.00  0.00    +0.030 C 
ATOM     28  C   LIG    1       -5.136  -5.601   1.743  0.00  0.00    +0.030 C 
ENDBRANCH  18  26
ENDBRANCH  16  18
ENDBRANCH  13  14
BRANCH   1  30
ATOM     29  C   LIG    1        2.093  -4.579  -0.999  0.00  0.00    +0.250 C 
ATOM     30  O   LIG    1        0.732  -4.168  -0.856  0.00  0.00    -0.310 OA
ENDBRANCH   1  30
TORSDOF 5
