REMARK  Name = ZINCqH0000003CQY.0
REMARK                            x       y       z     vdW  Elec       q    Type
REMARK                         _______ _______ _______ _____ _____    ______ ____
ROOT
ATOM      1  C   LIG    1        0.147  -0.426   1.448  0.00  0.00    +0.350 A 
ATOM      2  N   LIG    1        1.359  -0.631   1.932  0.00  0.00    -0.570 NA
ATOM      3  C   LIG    1        1.537  -1.157   3.135  0.00  0.00    +0.500 A 
ATOM      4  C   LIG    1        0.398  -1.512   3.903  0.00  0.00    -0.220 A 
ATOM      5  C   LIG    1       -0.857  -1.280   3.343  0.00  0.00    +0.110 A 
ATOM      6  S   LIG    1       -2.106  -1.794   4.465  0.00  0.00    +0.180 S 
ATOM      7  C   LIG    1       -0.927  -2.307   5.661  0.00  0.00    -0.170 A 
ATOM      8  C   LIG    1       -1.282  -2.908   7.010  0.00  0.00    +0.130 C 
ATOM      9  C   LIG    1       -0.054  -2.838   7.920  0.00  0.00    -0.010 C 
ATOM     10  C   LIG    1       -0.309  -3.656   9.188  0.00  0.00    +0.030 C 
ATOM     11  C   LIG    1        1.153  -3.413   7.171  0.00  0.00    +0.040 C 
ATOM     12  C   LIG    1        1.555  -2.447   6.056  0.00  0.00    +0.090 C 
ATOM     13  C   LIG    1        0.320  -2.101   5.234  0.00  0.00    -0.070 A 
ATOM     14  N   LIG    1       -0.937  -0.739   2.120  0.00  0.00    -0.510 NA
ENDROOT
BRANCH   3  15
ATOM     15  N   LIG    1        2.812  -1.361   3.631  0.00  0.00    -0.830 N 
ATOM     16  H   LIG    1        3.582  -1.248   3.052  0.00  0.00    +0.410 HD
ATOM     17  H   LIG    1        2.936  -1.617   4.558  0.00  0.00    +0.410 HD
ENDBRANCH   3  15
BRANCH   1  18
ATOM     18  C   LIG    1        0.003   0.182   0.076  0.00  0.00    +0.430 C 
BRANCH  18  23
ATOM     19  C   LIG    1        0.991   2.486   0.262  0.00  0.00    +0.210 A 
ATOM     20  N   LIG    1        0.541   3.707   0.359  0.00  0.00    -0.460 NA
ATOM     21  C   LIG    1       -0.800   3.686   0.356  0.00  0.00    +0.140 A 
ATOM     22  C   LIG    1       -1.196   2.403   0.247  0.00  0.00    +0.140 A 
ATOM     23  N   LIG    1       -0.060   1.641   0.193  0.00  0.00    -0.450 N 
BRANCH  19  24
ATOM     24  C   LIG    1        2.444   2.084   0.232  0.00  0.00    +0.260 C 
ATOM     25  C   LIG    1        3.037   2.418  -1.138  0.00  0.00    +0.030 C 
BRANCH  24  26
ATOM     26  O   LIG    1        3.156   2.797   1.246  0.00  0.00    -0.360 OA
BRANCH  26  28
ATOM     27  C   LIG    1        4.960   2.942   2.846  0.00  0.00    +0.050 C 
ATOM     28  C   LIG    1        4.278   2.089   1.776  0.00  0.00    +0.160 C 
ENDBRANCH  26  28
ENDBRANCH  24  26
ENDBRANCH  19  24
ENDBRANCH  18  23
ENDBRANCH   1  18
TORSDOF 6
