REMARK  Name = ZINCrD00000eBvYc.0
REMARK                            x       y       z     vdW  Elec       q    Type
REMARK                         _______ _______ _______ _____ _____    ______ ____
ROOT
ATOM      1  C   LIG    1        1.309   1.879  -5.945  0.00  0.00    +0.030 C 
ATOM      2  C   LIG    1        1.971   2.273  -4.623  0.00  0.00    +0.240 C 
ATOM      3  C   LIG    1        3.183   1.371  -4.361  0.00  0.00    +0.290 C 
ATOM      4  N   LIG    1        2.701   0.019  -4.041  0.00  0.00    -0.600 N 
ATOM      5  C   LIG    1        1.743  -0.149  -2.939  0.00  0.00    +0.280 C 
ATOM      6  C   LIG    1        0.536   0.753  -3.199  0.00  0.00    +0.270 C 
ATOM      7  C   LIG    1        3.131  -1.046  -4.745  0.00  0.00    +0.600 C 
ATOM      8  O   LIG    1        3.997  -0.909  -5.589  0.00  0.00    -0.510 OA
ATOM      9  N   LIG    1        1.013   2.105  -3.522  0.00  0.00    -0.610 N 
ATOM     10  C   LIG    1        0.584   3.171  -2.817  0.00  0.00    +0.560 C 
ATOM     11  O   LIG    1        0.918   4.293  -3.147  0.00  0.00    -0.530 OA
ENDROOT
BRANCH   7  12
ATOM     12  C   LIG    1        2.553  -2.374  -4.495  0.00  0.00    -0.030 A 
ATOM     13  C   LIG    1        2.816  -3.491  -5.221  0.00  0.00    +0.090 A 
ATOM     14  C   LIG    1        2.029  -4.561  -4.614  0.00  0.00    -0.190 A 
ATOM     15  C   LIG    1        1.857  -5.923  -4.879  0.00  0.00    +0.140 A 
ATOM     16  C   LIG    1        0.997  -6.639  -4.067  0.00  0.00    -0.040 A 
ATOM     17  C   LIG    1        0.343  -5.990  -3.031  0.00  0.00    +0.340 A 
ATOM     18  N   LIG    1        0.521  -4.706  -2.799  0.00  0.00    -0.480 NA
ATOM     19  C   LIG    1        1.332  -3.968  -3.543  0.00  0.00    +0.260 A 
ATOM     20  O   LIG    1        1.675  -2.666  -3.512  0.00  0.00    -0.170 OA
ENDBRANCH   7  12
BRANCH  10  21
ATOM     21  C   LIG    1       -0.290   2.978  -1.650  0.00  0.00    -0.160 C 
ATOM     22  C   LIG    1       -1.577   2.771  -1.822  0.00  0.00    +0.000 C 
ATOM     23  C   LIG    1       -2.485   2.570  -0.627  0.00  0.00    +0.060 C 
ATOM     24  C   LIG    1       -2.644   3.909   0.096  0.00  0.00    +0.010 C 
ATOM     25  C   LIG    1       -1.511   4.126   1.083  0.00  0.00    +0.000 C 
ATOM     26  C   LIG    1       -0.154   4.309   0.429  0.00  0.00    +0.020 C 
ATOM     27  C   LIG    1        0.298   3.016  -0.255  0.00  0.00    +0.080 C 
ENDBRANCH  10  21
TORSDOF 2
