REMARK  Name = ZINCqH0000006G6k.0
REMARK                            x       y       z     vdW  Elec       q    Type
REMARK                         _______ _______ _______ _____ _____    ______ ____
ROOT
ATOM      1  C   LIG    1       -3.584   6.099  -1.013  0.00  0.00    +0.060 C 
ENDROOT
BRANCH   1   2
ATOM      2  C   LIG    1       -4.831   5.314  -1.426  0.00  0.00    +0.200 C 
BRANCH   2   3
ATOM      3  O   LIG    1       -5.878   6.227  -1.762  0.00  0.00    -0.290 OA
BRANCH   3   9
ATOM      4  C   LIG    1       -8.126   6.523  -2.494  0.00  0.00    +0.100 A 
ATOM      5  C   LIG    1       -9.332   5.978  -2.892  0.00  0.00    +0.020 A 
ATOM      6  C   LIG    1       -9.482   4.590  -2.951  0.00  0.00    -0.030 A 
ATOM      7  C   LIG    1       -8.412   3.760  -2.607  0.00  0.00    +0.080 A 
ATOM      8  C   LIG    1       -7.210   4.311  -2.216  0.00  0.00    -0.030 A 
ATOM      9  C   LIG    1       -7.063   5.689  -2.152  0.00  0.00    +0.140 A 
BRANCH   4  11
ATOM     10  C   LIG    1       -9.108   8.668  -2.799  0.00  0.00    +0.250 C 
ATOM     11  O   LIG    1       -7.977   7.874  -2.435  0.00  0.00    -0.300 OA
ENDBRANCH   4  11
BRANCH   6  12
ATOM     12  C   LIG    1      -10.729   4.019  -3.363  0.00  0.00    +0.250 C 
ATOM     13  N   LIG    1      -11.718   3.567  -3.690  0.00  0.00    -0.410 NA
ENDBRANCH   6  12
ENDBRANCH   3   9
ENDBRANCH   2   3
ENDBRANCH   1   2
BRANCH   1  14
ATOM     14  C   LIG    1       -2.463   5.122  -0.653  0.00  0.00    +0.060 C 
BRANCH  14  15
ATOM     15  C   LIG    1       -1.234   5.894  -0.247  0.00  0.00    +0.520 C 
ATOM     16  N   LIG    1       -0.082   5.243   0.008  0.00  0.00    -0.560 N 
ATOM     17  C   LIG    1       -0.042   3.775   0.025  0.00  0.00    +0.270 C 
ATOM     18  C   LIG    1        0.764   3.341   1.256  0.00  0.00    +0.020 C 
ATOM     19  C   LIG    1        2.199   3.849   1.111  0.00  0.00    +0.080 C 
ATOM     20  C   LIG    1        2.208   5.322   0.798  0.00  0.00    -0.120 A 
ATOM     21  C   LIG    1        3.357   6.053   1.048  0.00  0.00    +0.020 A 
ATOM     22  C   LIG    1        3.400   7.404   0.764  0.00  0.00    -0.020 A 
ATOM     23  C   LIG    1        2.292   8.037   0.232  0.00  0.00    +0.030 A 
ATOM     24  C   LIG    1        1.143   7.315  -0.024  0.00  0.00    +0.020 A 
ATOM     25  C   LIG    1        1.098   5.956   0.263  0.00  0.00    +0.150 A 
ATOM     26  O   LIG    1       -1.283   7.103  -0.149  0.00  0.00    -0.510 OA
ENDBRANCH  14  15
ENDBRANCH   1  14
TORSDOF 7
