REMARK  Name = ZINCrH000004okAA.0
REMARK                            x       y       z     vdW  Elec       q    Type
REMARK                         _______ _______ _______ _____ _____    ______ ____
ROOT
ATOM      1  C   LIG    1        0.090   1.035   0.568  0.00  0.00    +0.060 C 
ATOM      2  C   LIG    1       -0.818   1.760   1.563  0.00  0.00    +0.260 C 
ENDROOT
BRANCH   2   3
ATOM      3  C   LIG    1       -0.684   3.249   1.373  0.00  0.00    +0.520 C 
ATOM      4  N   LIG    1       -1.252   3.846   0.306  0.00  0.00    -0.610 N 
ATOM      5  C   LIG    1       -1.045   5.277   0.072  0.00  0.00    +0.290 C 
ATOM      6  O   LIG    1       -0.064   3.910   2.179  0.00  0.00    -0.520 OA
BRANCH   4   7
ATOM      7  C   LIG    1       -2.076   3.063  -0.618  0.00  0.00    +0.270 C 
ATOM      8  C   LIG    1       -2.432   3.920  -1.834  0.00  0.00    +0.070 C 
BRANCH   7   9
ATOM      9  C   LIG    1       -3.340   2.631   0.079  0.00  0.00    -0.100 A 
ATOM     10  C   LIG    1       -3.799   1.335  -0.065  0.00  0.00    +0.060 A 
ATOM     11  C   LIG    1       -4.958   0.935   0.574  0.00  0.00    +0.030 A 
ATOM     12  C   LIG    1       -5.660   1.833   1.358  0.00  0.00    +0.070 A 
ATOM     13  C   LIG    1       -5.200   3.134   1.503  0.00  0.00    +0.070 A 
ATOM     14  F   LIG    1       -5.884   4.012   2.268  0.00  0.00    -0.130 F 
ATOM     15  F   LIG    1       -6.793   1.444   1.983  0.00  0.00    -0.120 F 
ATOM     16  C   LIG    1       -4.036   3.529   0.867  0.00  0.00    +0.030 A 
ENDBRANCH   7   9
ENDBRANCH   4   7
ENDBRANCH   2   3
BRANCH   2  17
ATOM     17  N   LIG    1       -0.426   1.405   2.930  0.00  0.00    -0.700 N 
ATOM     18  H   LIG    1        0.183   1.977   3.424  0.00  0.00    +0.420 HD
ATOM     19  C   LIG    1       -0.912   0.285   3.501  0.00  0.00    +0.650 C 
ATOM     20  O   LIG    1       -1.674  -0.430   2.882  0.00  0.00    -0.570 OA
BRANCH  19  21
ATOM     21  O   LIG    1       -0.552  -0.041   4.757  0.00  0.00    -0.360 OA
BRANCH  21  22
ATOM     22  C   LIG    1       -1.114  -1.261   5.308  0.00  0.00    +0.290 C 
BRANCH  22  23
ATOM     23  C   LIG    1       -0.602  -1.461   6.711  0.00  0.00    -0.100 A 
ATOM     24  C   LIG    1        0.560  -2.178   6.927  0.00  0.00    +0.040 A 
ATOM     25  C   LIG    1        1.032  -2.357   8.214  0.00  0.00    +0.010 A 
ATOM     26  C   LIG    1        0.337  -1.828   9.285  0.00  0.00    +0.020 A 
ATOM     27  C   LIG    1       -0.828  -1.115   9.069  0.00  0.00    +0.010 A 
ATOM     28  C   LIG    1       -1.297  -0.931   7.782  0.00  0.00    +0.030 A 
ENDBRANCH  22  23
ENDBRANCH  21  22
ENDBRANCH  19  21
ENDBRANCH   2  17
TORSDOF 7
