REMARK  Name = ZINCrD000000CEZc.0
REMARK                            x       y       z     vdW  Elec       q    Type
REMARK                         _______ _______ _______ _____ _____    ______ ____
ROOT
ATOM      1  O   LIG    1        2.244   6.997   4.796  0.00  0.00    -0.530 OA
ATOM      2  C   LIG    1        1.387   6.203   4.460  0.00  0.00    +0.560 C 
ATOM      3  N   LIG    1        1.629   5.334   3.459  0.00  0.00    -0.610 N 
ATOM      4  C   LIG    1        2.890   5.383   2.704  0.00  0.00    +0.300 C 
ATOM      5  C   LIG    1        2.561   5.417   1.208  0.00  0.00    +0.190 C 
ATOM      6  N   LIG    1        1.684   4.286   0.877  0.00  0.00    -0.540 NA
ATOM      7  C   LIG    1        0.397   4.386   1.580  0.00  0.00    +0.170 C 
ATOM      8  C   LIG    1        0.637   4.311   3.091  0.00  0.00    +0.280 C 
ENDROOT
BRANCH   2   9
ATOM      9  C   LIG    1        0.079   6.191   5.150  0.00  0.00    -0.130 A 
ATOM     10  C   LIG    1       -0.624   7.382   5.339  0.00  0.00    +0.060 A 
ATOM     11  C   LIG    1       -1.846   7.363   5.979  0.00  0.00    +0.010 A 
ATOM     12  C   LIG    1       -2.370   6.169   6.442  0.00  0.00    +0.030 A 
ATOM     13  C   LIG    1       -1.675   4.986   6.262  0.00  0.00    +0.010 A 
ATOM     14  C   LIG    1       -0.455   4.990   5.619  0.00  0.00    +0.040 A 
ENDBRANCH   2   9
BRANCH   6  15
ATOM     15  C   LIG    1        1.484   4.181  -0.574  0.00  0.00    +0.350 C 
BRANCH  15  16
ATOM     16  C   LIG    1        0.790   2.882  -0.893  0.00  0.00    +0.200 A 
ATOM     17  N   LIG    1       -0.503   2.688  -0.964  0.00  0.00    -0.470 NA
ATOM     18  C   LIG    1       -0.658   1.381  -1.275  0.00  0.00    +0.210 A 
ATOM     19  N   LIG    1        0.539   0.864  -1.374  0.00  0.00    -0.370 NA
ATOM     20  O   LIG    1        1.379   1.712  -1.158  0.00  0.00    +0.100 OA
BRANCH  18  21
ATOM     21  C   LIG    1       -1.945   0.667  -1.467  0.00  0.00    -0.010 A 
ATOM     22  C   LIG    1       -1.951  -0.689  -1.787  0.00  0.00    +0.060 A 
ATOM     23  C   LIG    1       -3.151  -1.348  -1.965  0.00  0.00    +0.030 A 
ATOM     24  C   LIG    1       -4.346  -0.666  -1.827  0.00  0.00    +0.050 A 
ATOM     25  C   LIG    1       -4.346   0.682  -1.509  0.00  0.00    -0.040 A 
ATOM     26 CL   LIG    1       -5.850   1.532  -1.337  0.00  0.00    -0.060 Cl
ATOM     27  C   LIG    1       -3.151   1.350  -1.324  0.00  0.00    +0.080 A 
ENDBRANCH  18  21
ENDBRANCH  15  16
ENDBRANCH   6  15
TORSDOF 4
