REMARK  Name = ZINCvU0000000H5y.0
REMARK                            x       y       z     vdW  Elec       q    Type
REMARK                         _______ _______ _______ _____ _____    ______ ____
ROOT
ATOM      1  C   LIG    1        9.395  -0.174  -1.179  0.00  0.00    -0.010 C 
ATOM      2  C   LIG    1        9.496   0.905  -0.096  0.00  0.00    +0.030 C 
ATOM      3  C   LIG    1        8.331   1.885  -0.251  0.00  0.00    +0.160 C 
ATOM      4  N   LIG    1        7.060   1.161  -0.128  0.00  0.00    -0.500 NA
ATOM      5  C   LIG    1        6.920   0.151  -1.185  0.00  0.00    +0.180 C 
ATOM      6  C   LIG    1        8.043  -0.881  -1.059  0.00  0.00    +0.030 C 
ENDROOT
BRANCH   4   7
ATOM      7  C   LIG    1        5.922   2.089  -0.132  0.00  0.00    +0.180 C 
ATOM      8  C   LIG    1        4.616   1.296  -0.209  0.00  0.00    +0.070 C 
BRANCH   7   9
ATOM      9  C   LIG    1        6.025   3.004  -1.326  0.00  0.00    +0.490 C 
ATOM     10  N   LIG    1        5.512   4.249  -1.267  0.00  0.00    -0.670 N 
ATOM     11  H   LIG    1        5.149   4.585  -0.432  0.00  0.00    +0.410 HD
ATOM     12  O   LIG    1        6.569   2.620  -2.339  0.00  0.00    -0.510 OA
BRANCH  10  13
ATOM     13  C   LIG    1        5.503   5.057  -2.410  0.00  0.00    +0.160 A 
ATOM     14  C   LIG    1        5.628   4.484  -3.668  0.00  0.00    +0.030 A 
ATOM     15  C   LIG    1        5.619   5.284  -4.794  0.00  0.00    +0.040 A 
ATOM     16  C   LIG    1        5.484   6.655  -4.669  0.00  0.00    +0.000 A 
ATOM     17  C   LIG    1        5.359   7.229  -3.418  0.00  0.00    +0.050 A 
ATOM     18  C   LIG    1        5.367   6.435  -2.287  0.00  0.00    -0.070 A 
ATOM     19 CL   LIG    1        5.209   7.157  -0.716  0.00  0.00    -0.070 Cl
ENDBRANCH  10  13
ENDBRANCH   7   9
ENDBRANCH   4   7
BRANCH   1  20
ATOM     20  C   LIG    1       10.523  -1.192  -0.992  0.00  0.00    +0.060 C 
BRANCH  20  21
ATOM     21  C   LIG    1       10.422  -2.253  -2.058  0.00  0.00    -0.070 A 
ATOM     22  C   LIG    1       10.501  -1.901  -3.393  0.00  0.00    +0.000 A 
ATOM     23  C   LIG    1       10.413  -2.875  -4.370  0.00  0.00    +0.000 A 
ATOM     24  C   LIG    1       10.239  -4.199  -4.013  0.00  0.00    +0.000 A 
ATOM     25  C   LIG    1       10.155  -4.550  -2.678  0.00  0.00    +0.000 A 
ATOM     26  C   LIG    1       10.247  -3.576  -1.701  0.00  0.00    +0.030 A 
ENDBRANCH  20  21
BRANCH  20  27
ATOM     27  C   LIG    1       11.874  -0.482  -1.104  0.00  0.00    +0.110 C 
BRANCH  27  28
ATOM     28  C   LIG    1       12.980  -1.459  -0.799  0.00  0.00    +0.460 C 
ATOM     29  O   LIG    1       12.715  -2.605  -0.521  0.00  0.00    -0.500 OA
BRANCH  28  30
ATOM     30  O   LIG    1       14.260  -1.056  -0.837  0.00  0.00    -0.360 OA
BRANCH  30  32
ATOM     31  C   LIG    1       16.660  -1.411  -0.625  0.00  0.00    +0.070 C 
ATOM     32  C   LIG    1       15.273  -2.051  -0.532  0.00  0.00    +0.200 C 
ENDBRANCH  30  32
ENDBRANCH  28  30
ENDBRANCH  27  28
ENDBRANCH  20  27
ENDBRANCH   1  20
TORSDOF 9
