REMARK  Name = ZINCrD00000F5LBB.0
REMARK                            x       y       z     vdW  Elec       q    Type
REMARK                         _______ _______ _______ _____ _____    ______ ____
ROOT
ATOM      1  C   LIG    1       -1.311   3.330   0.026  0.00  0.00    +0.040 C 
ATOM      2  C   LIG    1       -1.253   1.981   0.019  0.00  0.00    -0.010 C 
ATOM      3  C   LIG    1       -0.015   1.295   0.009  0.00  0.00    +0.170 C 
ATOM      4  C   LIG    1        1.282   2.062   0.001  0.00  0.00    +0.120 C 
ATOM      5  C   LIG    1        1.073   3.405   0.706  0.00  0.00    +0.040 C 
ATOM      6  N   LIG    1        0.002  -0.004   0.002  0.00  0.00    -0.320 NA
ATOM      7  C   LIG    1       -0.057   4.163   0.006  0.00  0.00    +0.090 C 
ENDROOT
BRANCH   1   9
ATOM      8  C   LIG    1       -3.633   4.511   0.066  0.00  0.00    -0.100 C 
ATOM      9  C   LIG    1       -2.587   3.979   0.048  0.00  0.00    -0.090 C 
BRANCH   8  15
ATOM     10  C   LIG    1       -6.149   8.630   0.111  0.00  0.00    +0.130 C 
ATOM     11  C   LIG    1       -6.129   7.123   0.110  0.00  0.00    +0.130 A 
ATOM     12  C   LIG    1       -7.323   6.425   0.129  0.00  0.00    -0.020 A 
ATOM     13  C   LIG    1       -7.303   5.036   0.128  0.00  0.00    +0.070 A 
ATOM     14  C   LIG    1       -6.079   4.393   0.106  0.00  0.00    -0.010 A 
ATOM     15  C   LIG    1       -4.909   5.160   0.087  0.00  0.00    +0.230 A 
ATOM     16  N   LIG    1       -4.975   6.489   0.095  0.00  0.00    -0.470 NA
ENDBRANCH   8  15
ENDBRANCH   1   9
BRANCH   6  17
ATOM     17  O   LIG    1       -1.214  -0.729   0.010  0.00  0.00    -0.210 OA
BRANCH  17  18
ATOM     18  C   LIG    1       -1.046  -2.148   0.001  0.00  0.00    +0.180 C 
ATOM     19  C   LIG    1       -2.291  -2.837  -0.604  0.00  0.00    +0.070 C 
ATOM     20  C   LIG    1       -2.396  -4.112   0.262  0.00  0.00    +0.270 C 
ATOM     21  N   LIG    1       -1.744  -3.778   1.533  0.00  0.00    -0.610 N 
ATOM     22  C   LIG    1       -0.975  -2.682   1.414  0.00  0.00    +0.500 C 
ATOM     23  O   LIG    1       -0.320  -2.192   2.310  0.00  0.00    -0.510 OA
BRANCH  21  24
ATOM     24  C   LIG    1       -1.911  -4.540   2.773  0.00  0.00    +0.240 C 
ATOM     25  C   LIG    1       -2.002  -3.660   4.030  0.00  0.00    +0.020 C 
ATOM     26  C   LIG    1       -1.129  -4.715   4.735  0.00  0.00    +0.010 C 
ATOM     27  C   LIG    1       -0.590  -5.085   3.343  0.00  0.00    +0.010 C 
ENDBRANCH  21  24
ENDBRANCH  17  18
ENDBRANCH   6  17
TORSDOF 5
