REMARK  Name = ZINCqH0000037OZk.1
REMARK                            x       y       z     vdW  Elec       q    Type
REMARK                         _______ _______ _______ _____ _____    ______ ____
ROOT
ATOM      1  N   LIG    1        4.047  -0.085  -9.432  0.00  0.00    -0.730 N 
ATOM      2  H   LIG    1        5.015  -0.143  -9.432  0.00  0.00    +0.400 HD
ATOM      3  C   LIG    1        3.393   0.282  -8.312  0.00  0.00    +0.710 C 
ATOM      4  N   LIG    1        4.086   0.569  -7.191  0.00  0.00    -0.690 N 
ATOM      5  H   LIG    1        5.056   0.576  -7.209  0.00  0.00    +0.400 HD
ATOM      6  O   LIG    1        2.180   0.355  -8.312  0.00  0.00    -0.570 OA
ENDROOT
BRANCH   4   7
ATOM      7  C   LIG    1        3.404   0.856  -6.000  0.00  0.00    +0.140 A 
ATOM      8  C   LIG    1        2.199   1.544  -6.039  0.00  0.00    +0.050 A 
ATOM      9  C   LIG    1        1.528   1.828  -4.866  0.00  0.00    +0.010 A 
ATOM     10  C   LIG    1        2.058   1.424  -3.647  0.00  0.00    +0.100 A 
ATOM     11  C   LIG    1        3.267   0.741  -3.609  0.00  0.00    -0.020 A 
ATOM     12  C   LIG    1        3.935   0.453  -4.782  0.00  0.00    +0.000 A 
BRANCH  10  13
ATOM     13  N   LIG    1        1.379   1.712  -2.459  0.00  0.00    -0.490 N 
ATOM     14  C   LIG    1        2.112   1.198  -1.295  0.00  0.00    +0.170 C 
ATOM     15  C   LIG    1        1.418   1.654  -0.010  0.00  0.00    +0.030 C 
ATOM     16  C   LIG    1       -0.021   1.133  -0.001  0.00  0.00    -0.030 C 
ATOM     17  C   LIG    1       -0.749   1.643  -1.247  0.00  0.00    +0.030 C 
ATOM     18  C   LIG    1       -0.739   1.636   1.254  0.00  0.00    +0.020 C 
ATOM     19  C   LIG    1        0.008   1.187  -2.497  0.00  0.00    +0.180 C 
ENDBRANCH  10  13
ENDBRANCH   4   7
BRANCH   1  20
ATOM     20  C   LIG    1        3.294  -0.396 -10.650  0.00  0.00    +0.270 C 
ATOM     21  C   LIG    1        2.842  -1.857 -10.611  0.00  0.00    +0.020 C 
BRANCH  20  22
ATOM     22  C   LIG    1        4.186  -0.171 -11.872  0.00  0.00    +0.140 C 
BRANCH  22  26
ATOM     23  C   LIG    1        6.849   4.155 -12.230  0.00  0.00    +0.140 C 
ATOM     24  C   LIG    1        5.710   3.173 -12.136  0.00  0.00    +0.090 A 
ATOM     25  C   LIG    1        5.822   1.828 -12.043  0.00  0.00    -0.120 A 
ATOM     26  C   LIG    1        4.532   1.292 -11.979  0.00  0.00    +0.080 A 
ATOM     27  N   LIG    1        3.676   2.281 -12.024  0.00  0.00    -0.280 NA
ATOM     28  N   LIG    1        4.396   3.479 -12.123  0.00  0.00    -0.470 N 
ATOM     29  H   LIG    1        4.016   4.370 -12.173  0.00  0.00    +0.440 HD
ENDBRANCH  22  26
ENDBRANCH  20  22
ENDBRANCH   1  20
TORSDOF 5
