REMARK  Name = ZINCqH0000037OZk.0
REMARK                            x       y       z     vdW  Elec       q    Type
REMARK                         _______ _______ _______ _____ _____    ______ ____
ROOT
ATOM      1  N   LIG    1       -2.056   0.476  -1.846  0.00  0.00    -0.740 N 
ATOM      2  H   LIG    1       -2.230   0.013  -1.012  0.00  0.00    +0.390 HD
ATOM      3  C   LIG    1       -3.063   1.091  -2.497  0.00  0.00    +0.710 C 
ATOM      4  N   LIG    1       -4.311   1.062  -1.990  0.00  0.00    -0.690 N 
ATOM      5  H   LIG    1       -4.501   0.535  -1.198  0.00  0.00    +0.400 HD
ATOM      6  O   LIG    1       -2.845   1.672  -3.543  0.00  0.00    -0.570 OA
ENDROOT
BRANCH   4   7
ATOM      7  C   LIG    1       -5.336   1.794  -2.606  0.00  0.00    +0.140 A 
ATOM      8  C   LIG    1       -5.051   3.006  -3.221  0.00  0.00    +0.040 A 
ATOM      9  C   LIG    1       -6.059   3.723  -3.833  0.00  0.00    -0.020 A 
ATOM     10  C   LIG    1       -7.360   3.239  -3.825  0.00  0.00    +0.100 A 
ATOM     11  C   LIG    1       -7.646   2.029  -3.205  0.00  0.00    +0.010 A 
ATOM     12  C   LIG    1       -6.637   1.309  -2.597  0.00  0.00    +0.010 A 
BRANCH  10  13
ATOM     13  N   LIG    1       -8.383   3.968  -4.441  0.00  0.00    -0.490 N 
ATOM     14  C   LIG    1       -9.079   3.154  -5.445  0.00  0.00    +0.180 C 
ATOM     15  C   LIG    1      -10.278   3.931  -5.993  0.00  0.00    +0.030 C 
ATOM     16  C   LIG    1       -9.788   5.240  -6.620  0.00  0.00    -0.030 C 
ATOM     17  C   LIG    1       -9.025   6.047  -5.566  0.00  0.00    +0.030 C 
ATOM     18  C   LIG    1      -10.987   6.050  -7.116  0.00  0.00    +0.020 C 
ATOM     19  C   LIG    1       -7.862   5.208  -5.031  0.00  0.00    +0.180 C 
ENDBRANCH  10  13
ENDBRANCH   4   7
BRANCH   1  20
ATOM     20  C   LIG    1       -0.699   0.508  -2.397  0.00  0.00    +0.270 C 
ATOM     21  C   LIG    1       -0.536  -0.623  -3.415  0.00  0.00    +0.030 C 
BRANCH  20  22
ATOM     22  C   LIG    1        0.315   0.327  -1.267  0.00  0.00    +0.120 C 
BRANCH  22  28
ATOM     23  C   LIG    1        1.032   4.906   0.843  0.00  0.00    +0.150 C 
ATOM     24  C   LIG    1        0.541   3.501   0.606  0.00  0.00    +0.080 A 
ATOM     25  N   LIG    1       -0.277   2.833   1.378  0.00  0.00    -0.290 NA
ATOM     26  N   LIG    1       -0.483   1.570   0.809  0.00  0.00    -0.470 N 
ATOM     27  H   LIG    1       -1.045   0.867   1.169  0.00  0.00    +0.430 HD
ATOM     28  C   LIG    1        0.238   1.505  -0.330  0.00  0.00    +0.090 A 
ATOM     29  C   LIG    1        0.885   2.684  -0.476  0.00  0.00    -0.110 A 
ENDBRANCH  22  28
ENDBRANCH  20  22
ENDBRANCH   1  20
TORSDOF 5
