REMARK  Name = ZINCrg000000nDep.0
REMARK                            x       y       z     vdW  Elec       q    Type
REMARK                         _______ _______ _______ _____ _____    ______ ____
ROOT
ATOM      1  C   LIG    1       -1.364   3.124   0.159  0.00  0.00    -0.110 A 
ATOM      2  C   LIG    1       -0.645   3.266   1.315  0.00  0.00    +0.460 A 
ATOM      3  N   LIG    1        0.395   2.402   1.573  0.00  0.00    -0.540 N 
ATOM      4  C   LIG    1        0.703   1.427   0.698  0.00  0.00    +0.710 A 
ATOM      5  N   LIG    1        0.007   1.274  -0.443  0.00  0.00    -0.660 N 
ATOM      6  H   LIG    1        0.246   0.564  -1.059  0.00  0.00    +0.430 HD
ATOM      7  O   LIG    1        1.625   0.673   0.943  0.00  0.00    -0.540 OA
ATOM      8  C   LIG    1       -1.016   2.099  -0.740  0.00  0.00    +0.550 A 
ATOM      9  O   LIG    1       -1.638   1.956  -1.778  0.00  0.00    -0.500 OA
ENDROOT
BRANCH   2  10
ATOM     10  N   LIG    1       -0.959   4.263   2.210  0.00  0.00    -0.840 N 
ATOM     11  H   LIG    1       -1.701   4.862   2.029  0.00  0.00    +0.420 HD
ATOM     12  H   LIG    1       -0.439   4.367   3.022  0.00  0.00    +0.400 HD
ENDBRANCH   2  10
BRANCH   1  13
ATOM     13  N   LIG    1       -2.437   3.999  -0.131  0.00  0.00    -0.600 N 
BRANCH  13  14
ATOM     14  C   LIG    1       -3.808   3.484  -0.181  0.00  0.00    +0.280 C 
BRANCH  14  15
ATOM     15  C   LIG    1       -4.480   3.690   1.178  0.00  0.00    -0.020 C 
BRANCH  15  17
ATOM     16  C   LIG    1       -6.583   3.359   2.484  0.00  0.00    +0.000 C 
ATOM     17  C   LIG    1       -5.911   3.153   1.125  0.00  0.00    +0.000 C 
ENDBRANCH  15  17
ENDBRANCH  14  15
ENDBRANCH  13  14
BRANCH  13  18
ATOM     18  C   LIG    1       -2.178   5.419  -0.382  0.00  0.00    +0.310 C 
BRANCH  18  19
ATOM     19  C   LIG    1       -2.075   5.657  -1.866  0.00  0.00    +0.480 C 
ATOM     20  N   LIG    1       -1.838   6.898  -2.335  0.00  0.00    -0.740 N 
ATOM     21  H   LIG    1       -1.734   7.638  -1.717  0.00  0.00    +0.400 HD
ATOM     22  O   LIG    1       -2.205   4.731  -2.639  0.00  0.00    -0.490 OA
BRANCH  20  23
ATOM     23  C   LIG    1       -1.738   7.129  -3.778  0.00  0.00    +0.300 C 
BRANCH  23  24
ATOM     24  C   LIG    1       -1.468   8.612  -4.039  0.00  0.00    +0.450 C 
ATOM     25  F   LIG    1       -2.516   9.377  -3.516  0.00  0.00    -0.180 F 
ATOM     26  F   LIG    1       -1.372   8.833  -5.417  0.00  0.00    -0.170 F 
ATOM     27  F   LIG    1       -0.267   8.983  -3.423  0.00  0.00    -0.180 F 
ENDBRANCH  23  24
ENDBRANCH  20  23
ENDBRANCH  18  19
ENDBRANCH  13  18
ENDBRANCH   1  13
BRANCH   3  28
ATOM     28  C   LIG    1        1.170   2.545   2.808  0.00  0.00    +0.310 C 
BRANCH  28  29
ATOM     29  C   LIG    1        2.350   3.487   2.563  0.00  0.00    -0.040 C 
ATOM     30  C   LIG    1        3.309   2.853   1.554  0.00  0.00    +0.040 C 
ATOM     31  C   LIG    1        3.087   3.735   3.881  0.00  0.00    +0.030 C 
ENDBRANCH  28  29
ENDBRANCH   3  28
TORSDOF 11
