REMARK  Name = ZINCpk000005ZADQ.0
REMARK                            x       y       z     vdW  Elec       q    Type
REMARK                         _______ _______ _______ _____ _____    ______ ____
ROOT
ATOM      1  C   LIG    1       -5.995   2.297   0.056  0.00  0.00    +0.540 C 
ATOM      2  N   LIG    1       -4.794   1.724  -0.155  0.00  0.00    -0.600 N 
ATOM      3  C   LIG    1       -4.477   0.751  -1.219  0.00  0.00    +0.250 C 
ATOM      4  C   LIG    1       -2.948   0.878  -1.431  0.00  0.00    +0.050 C 
ATOM      5  C   LIG    1       -2.449   1.120   0.020  0.00  0.00    +0.260 C 
ATOM      6  C   LIG    1       -3.583   1.960   0.633  0.00  0.00    +0.150 C 
ATOM      7  C   LIG    1       -3.206   3.450   0.613  0.00  0.00    +0.010 C 
ATOM      8  C   LIG    1       -3.789   4.004   1.938  0.00  0.00    +0.030 C 
ATOM      9  C   LIG    1       -3.544   2.843   2.933  0.00  0.00    +0.010 C 
ATOM     10  C   LIG    1       -3.801   1.569   2.100  0.00  0.00    +0.030 C 
ATOM     11  O   LIG    1       -6.139   3.087   0.965  0.00  0.00    -0.510 OA
ENDROOT
BRANCH   1  15
ATOM     12  O   LIG    1       -9.455   4.594  -1.582  0.00  0.00    -0.440 OA
ATOM     13  C   LIG    1       -8.768   3.600  -1.601  0.00  0.00    +0.490 C 
ATOM     14  C   LIG    1       -8.424   2.734  -0.407  0.00  0.00    +0.070 C 
ATOM     15  C   LIG    1       -7.160   1.958  -0.839  0.00  0.00    -0.010 C 
ATOM     16  C   LIG    1       -6.912   2.468  -2.274  0.00  0.00    +0.280 C 
ATOM     17  O   LIG    1       -8.175   3.070  -2.687  0.00  0.00    -0.350 OA
ENDBRANCH   1  15
BRANCH   5  18
ATOM     18  N   LIG    1       -1.191   1.870   0.018  0.00  0.00    -0.720 N 
ATOM     19  H   LIG    1       -0.987   2.473  -0.714  0.00  0.00    +0.400 HD
ATOM     20  C   LIG    1       -0.316   1.721   1.033  0.00  0.00    +0.590 C 
ATOM     21  O   LIG    1       -0.572   0.965   1.950  0.00  0.00    -0.520 OA
BRANCH  20  22
ATOM     22  C   LIG    1        0.953   2.471   1.028  0.00  0.00    -0.240 A 
ATOM     23  C   LIG    1        1.386   3.352   0.081  0.00  0.00    +0.230 A 
ATOM     24  O   LIG    1        2.585   3.813   0.451  0.00  0.00    -0.170 OA
ATOM     25  C   LIG    1        2.969   3.269   1.616  0.00  0.00    +0.180 A 
ATOM     26  C   LIG    1        2.013   2.430   2.046  0.00  0.00    -0.010 A 
ENDBRANCH  20  22
ENDBRANCH   5  18
TORSDOF 3
