REMARK  Name = ZINCpk00000ebhRb.0
REMARK                            x       y       z     vdW  Elec       q    Type
REMARK                         _______ _______ _______ _____ _____    ______ ____
ROOT
ATOM      1  C   LIG    1        1.006  -0.660  -0.021  0.00  0.00    +0.580 A 
ATOM      2  N   LIG    1       -0.061   0.125  -0.017  0.00  0.00    -0.570 NA
ATOM      3  C   LIG    1        0.064   1.444  -0.002  0.00  0.00    +0.490 A 
ATOM      4  C   LIG    1        1.327   2.003   0.010  0.00  0.00    -0.250 A 
ATOM      5  C   LIG    1        2.433   1.150   0.005  0.00  0.00    +0.520 A 
ATOM      6  N   LIG    1        2.234  -0.164  -0.010  0.00  0.00    -0.580 NA
ENDROOT
BRANCH   1  11
ATOM      7  C   LIG    1       -0.745  -3.898  -0.217  0.00  0.00    +0.100 C 
ATOM      8  C   LIG    1       -0.039  -4.605   0.944  0.00  0.00    +0.030 C 
ATOM      9  C   LIG    1        1.433  -4.186   0.968  0.00  0.00    +0.050 C 
ATOM     10  C   LIG    1        1.522  -2.663   1.097  0.00  0.00    +0.220 C 
ATOM     11  N   LIG    1        0.834  -2.033  -0.036  0.00  0.00    -0.450 N 
ATOM     12  C   LIG    1       -0.592  -2.384  -0.053  0.00  0.00    +0.250 C 
BRANCH   7  18
ATOM     13  C   LIG    1       -2.346  -5.323  -2.497  0.00  0.00    +0.350 C 
ATOM     14  N   LIG    1       -2.885  -4.878  -1.210  0.00  0.00    -0.480 N 
ATOM     15  C   LIG    1       -4.163  -5.000  -0.775  0.00  0.00    +0.370 A 
ATOM     16  N   LIG    1       -4.218  -4.476   0.419  0.00  0.00    -0.290 NA
ATOM     17  N   LIG    1       -3.055  -4.041   0.756  0.00  0.00    -0.280 NA
ATOM     18  C   LIG    1       -2.208  -4.260  -0.212  0.00  0.00    +0.180 A 
ENDBRANCH   7  18
ENDBRANCH   1  11
BRANCH   4  19
ATOM     19  N   LIG    1        1.504   3.473   0.026  0.00  0.00    +0.060 N 
ATOM     20  O   LIG    1        2.620   3.952  -0.068  0.00  0.00    -0.200 OA
ATOM     21  O   LIG    1        0.535   4.202   0.134  0.00  0.00    -0.140 OA
ENDBRANCH   4  19
BRANCH   5  22
ATOM     22  N   LIG    1        3.719   1.666   0.016  0.00  0.00    -0.650 N 
ATOM     23  H   LIG    1        3.858   2.624  -0.053  0.00  0.00    +0.430 HD
BRANCH  22  24
ATOM     24  C   LIG    1        4.869   0.766   0.132  0.00  0.00    +0.220 C 
ATOM     25  C   LIG    1        5.994   1.176   1.085  0.00  0.00    +0.020 C 
ATOM     26  C   LIG    1        6.206   1.253  -0.428  0.00  0.00    +0.030 C 
ENDBRANCH  22  24
ENDBRANCH   5  22
TORSDOF 5
