REMARK  Name = ZINCrH00000No4Ss.0
REMARK                            x       y       z     vdW  Elec       q    Type
REMARK                         _______ _______ _______ _____ _____    ______ ____
ROOT
ATOM      1  C   LIG    1        6.984   4.911  -0.043  0.00  0.00    +0.210 A 
ATOM      2  N   LIG    1        7.356   6.181  -0.046  0.00  0.00    -0.440 NA
ATOM      3  C   LIG    1        8.705   6.161  -0.054  0.00  0.00    +0.240 A 
ATOM      4  N   LIG    1        9.078   4.904  -0.065  0.00  0.00    -0.380 NA
ATOM      5  O   LIG    1        8.109   4.176  -0.059  0.00  0.00    +0.080 OA
ENDROOT
BRANCH   3   6
ATOM      6  C   LIG    1        9.600   7.341  -0.057  0.00  0.00    -0.150 A 
ATOM      7  C   LIG    1       10.976   7.184  -0.067  0.00  0.00    +0.190 A 
ATOM      8  C   LIG    1       11.800   8.319  -0.075  0.00  0.00    -0.240 A 
ATOM      9  C   LIG    1       11.248   9.554  -0.070  0.00  0.00    +0.200 A 
ATOM     10  N   LIG    1        9.895   9.709  -0.048  0.00  0.00    -0.600 N 
ATOM     11  H   LIG    1        9.522  10.604  -0.036  0.00  0.00    +0.420 HD
ATOM     12  C   LIG    1       12.104  10.797  -0.095  0.00  0.00    +0.080 C 
ATOM     13  C   LIG    1       13.537  10.452   0.309  0.00  0.00    +0.240 C 
ATOM     14  O   LIG    1       13.960   9.317  -0.455  0.00  0.00    -0.370 OA
ATOM     15  C   LIG    1       13.293   8.114  -0.079  0.00  0.00    +0.300 C 
ATOM     16  C   LIG    1        9.065   8.652  -0.043  0.00  0.00    +0.530 A 
ATOM     17  O   LIG    1        7.858   8.821  -0.027  0.00  0.00    -0.500 OA
ENDBRANCH   3   6
BRANCH   1  19
ATOM     18  C   LIG    1        5.381   3.076  -0.036  0.00  0.00    +0.110 C 
ATOM     19  C   LIG    1        5.609   4.403  -0.031  0.00  0.00    +0.060 C 
BRANCH  18  23
ATOM     20  C   LIG    1        1.401   1.607  -0.003  0.00  0.00    -0.060 A 
ATOM     21  C   LIG    1        1.631   2.972  -0.003  0.00  0.00    +0.010 A 
ATOM     22  C   LIG    1        2.922   3.457  -0.008  0.00  0.00    +0.030 A 
ATOM     23  C   LIG    1        4.000   2.566  -0.024  0.00  0.00    -0.080 A 
ATOM     24  C   LIG    1        3.759   1.189  -0.028  0.00  0.00    +0.040 A 
ATOM     25  C   LIG    1        2.462   0.719  -0.018  0.00  0.00    +0.010 A 
BRANCH  20  27
ATOM     26  C   LIG    1       -0.753   1.593  -1.232  0.00  0.00    +0.030 C 
ATOM     27  C   LIG    1       -0.013   1.086   0.008  0.00  0.00    +0.020 C 
ATOM     28  C   LIG    1       -0.729   1.579   1.267  0.00  0.00    +0.030 C 
ENDBRANCH  20  27
ENDBRANCH  18  23
ENDBRANCH   1  19
TORSDOF 4
