REMARK  Name = ZINCtV00000L5M92.0
REMARK                            x       y       z     vdW  Elec       q    Type
REMARK                         _______ _______ _______ _____ _____    ______ ____
ROOT
ATOM      1  C   LIG    1       -6.375  -1.564   1.797  0.00  0.00    -0.020 A 
ATOM      2  C   LIG    1       -5.316  -2.373   2.209  0.00  0.00    +0.020 A 
ATOM      3  C   LIG    1       -4.030  -1.882   2.200  0.00  0.00    +0.090 A 
ATOM      4  C   LIG    1       -3.786  -0.572   1.778  0.00  0.00    -0.140 A 
ATOM      5  C   LIG    1       -4.848   0.239   1.371  0.00  0.00    +0.050 A 
ATOM      6  C   LIG    1       -6.133  -0.256   1.376  0.00  0.00    +0.010 A 
ENDROOT
BRANCH   1  10
ATOM      7  C   LIG    1      -10.346  -3.084   1.825  0.00  0.00    +0.090 A 
ATOM      8  C   LIG    1      -10.106  -1.782   1.407  0.00  0.00    +0.010 A 
ATOM      9  C   LIG    1       -8.820  -1.286   1.396  0.00  0.00    +0.050 A 
ATOM     10  C   LIG    1       -7.759  -2.094   1.808  0.00  0.00    -0.050 A 
ATOM     11  C   LIG    1       -8.004  -3.402   2.223  0.00  0.00    +0.050 A 
ATOM     12  C   LIG    1       -9.293  -3.891   2.236  0.00  0.00    +0.030 A 
BRANCH   7  13
ATOM     13  O   LIG    1      -11.615  -3.571   1.834  0.00  0.00    -0.290 OA
BRANCH  13  15
ATOM     14  C   LIG    1      -13.645  -4.188   0.570  0.00  0.00    +0.180 C 
ATOM     15  C   LIG    1      -12.197  -3.775   0.641  0.00  0.00    +0.460 C 
ATOM     16  O   LIG    1      -11.561  -3.627  -0.375  0.00  0.00    -0.490 OA
ENDBRANCH  13  15
ENDBRANCH   7  13
ENDBRANCH   1  10
BRANCH   4  17
ATOM     17  C   LIG    1       -2.407  -0.044   1.768  0.00  0.00    +0.560 C 
ATOM     18  N   LIG    1       -2.172   1.219   1.360  0.00  0.00    -0.720 N 
ATOM     19  H   LIG    1       -2.908   1.781   1.074  0.00  0.00    +0.400 HD
ATOM     20  O   LIG    1       -1.483  -0.749   2.126  0.00  0.00    -0.530 OA
BRANCH  18  21
ATOM     21  C   LIG    1       -0.803   1.742   1.350  0.00  0.00    +0.280 C 
ATOM     22  C   LIG    1       -0.116   1.348   0.041  0.00  0.00    +0.040 C 
BRANCH  21  23
ATOM     23  C   LIG    1       -0.840   3.244   1.466  0.00  0.00    -0.080 A 
ATOM     24  C   LIG    1       -1.797   3.967   0.780  0.00  0.00    +0.040 A 
ATOM     25  C   LIG    1       -1.835   5.345   0.889  0.00  0.00    +0.060 A 
ATOM     26  C   LIG    1       -0.907   6.001   1.678  0.00  0.00    -0.030 A 
ATOM     27  C   LIG    1        0.056   5.277   2.361  0.00  0.00    -0.030 A 
ATOM     28 CL   LIG    1        1.220   6.100   3.352  0.00  0.00    -0.040 Cl
ATOM     29 CL   LIG    1       -0.950   7.732   1.811  0.00  0.00    -0.040 Cl
ATOM     30  C   LIG    1        0.088   3.899   2.255  0.00  0.00    +0.060 A 
ENDBRANCH  21  23
ENDBRANCH  18  21
ENDBRANCH   4  17
TORSDOF 6
