REMARK  Name = ZINCpk000000oFBM.0
REMARK                            x       y       z     vdW  Elec       q    Type
REMARK                         _______ _______ _______ _____ _____    ______ ____
ROOT
ATOM      1  N   LIG    1       -4.444  -0.209   2.920  0.00  0.00    -0.630 N 
ATOM      2  C   LIG    1       -4.065   0.028   1.649  0.00  0.00    +0.710 C 
ATOM      3  N   LIG    1       -2.929   0.710   1.401  0.00  0.00    -0.740 N 
ATOM      4  H   LIG    1       -2.384   1.029   2.138  0.00  0.00    +0.400 HD
ATOM      5  O   LIG    1       -4.747  -0.372   0.726  0.00  0.00    -0.580 OA
ENDROOT
BRANCH   1   7
ATOM      6  C   LIG    1       -4.076   1.679   4.430  0.00  0.00    +0.020 C 
ATOM      7  C   LIG    1       -3.622   0.273   4.033  0.00  0.00    +0.250 C 
ENDBRANCH   1   7
BRANCH   3   8
ATOM      8  C   LIG    1       -2.516   0.968   0.019  0.00  0.00    +0.350 C 
BRANCH   8   9
ATOM      9  C   LIG    1       -1.222   1.741   0.017  0.00  0.00    -0.190 A 
ATOM     10  C   LIG    1       -1.235   3.129   0.030  0.00  0.00    +0.110 A 
ATOM     11  C   LIG    1       -0.026   3.801   0.022  0.00  0.00    -0.050 A 
ATOM     12  C   LIG    1        1.155   3.066   0.007  0.00  0.00    +0.320 A 
ATOM     13  N   LIG    1        1.126   1.742   0.001  0.00  0.00    -0.520 NA
ATOM     14  C   LIG    1       -0.013   1.076   0.008  0.00  0.00    +0.310 A 
BRANCH  12  15
ATOM     15  N   LIG    1        2.378   3.728  -0.001  0.00  0.00    -0.480 N 
ATOM     16  C   LIG    1        2.469   4.653  -1.139  0.00  0.00    +0.180 C 
ATOM     17  C   LIG    1        3.802   5.403  -1.076  0.00  0.00    +0.230 C 
ATOM     18  O   LIG    1        4.875   4.457  -1.060  0.00  0.00    -0.380 OA
ATOM     19  C   LIG    1        4.818   3.541   0.037  0.00  0.00    +0.230 C 
ATOM     20  C   LIG    1        3.494   2.772  -0.015  0.00  0.00    +0.190 C 
ENDBRANCH  12  15
ENDBRANCH   8   9
ENDBRANCH   3   8
BRANCH   1  21
ATOM     21  C   LIG    1       -5.679  -0.950   3.190  0.00  0.00    +0.310 C 
BRANCH  21  22
ATOM     22  C   LIG    1       -5.369  -2.446   3.273  0.00  0.00    -0.060 C 
ATOM     23  C   LIG    1       -6.662  -3.264   3.541  0.00  0.00    +0.010 C 
ATOM     24  C   LIG    1       -6.293  -4.619   2.886  0.00  0.00    +0.200 C 
ATOM     25  O   LIG    1       -5.520  -4.276   1.725  0.00  0.00    -0.390 OA
ATOM     26  C   LIG    1       -4.915  -2.990   1.902  0.00  0.00    +0.200 C 
ENDBRANCH  21  22
ENDBRANCH   1  21
TORSDOF 6
