REMARK  Name = ZINCrH000004r3Y1.0
REMARK                            x       y       z     vdW  Elec       q    Type
REMARK                         _______ _______ _______ _____ _____    ______ ____
ROOT
ATOM      1  C   LIG    1        3.679  -0.695   0.110  0.00  0.00    +0.560 C 
ATOM      2  N   LIG    1        4.826  -0.003  -0.036  0.00  0.00    -0.610 N 
ATOM      3  C   LIG    1        4.818   1.467  -0.035  0.00  0.00    +0.270 C 
ATOM      4  C   LIG    1        5.793   1.957   1.050  0.00  0.00    +0.270 C 
ATOM      5  N   LIG    1        7.073   1.255   0.881  0.00  0.00    -0.610 N 
ATOM      6  C   LIG    1        7.080  -0.214   0.875  0.00  0.00    +0.290 C 
ATOM      7  C   LIG    1        8.220   1.948   0.735  0.00  0.00    +0.570 C 
ATOM      8  O   LIG    1        9.260   1.360   0.507  0.00  0.00    -0.520 OA
ATOM      9  C   LIG    1        6.107  -0.704  -0.205  0.00  0.00    +0.290 C 
ATOM     10  O   LIG    1        3.708  -1.907   0.202  0.00  0.00    -0.530 OA
ENDROOT
BRANCH   7  11
ATOM     11  C   LIG    1        8.214   3.418   0.852  0.00  0.00    -0.120 A 
ATOM     12  C   LIG    1        7.670   4.037   1.969  0.00  0.00    +0.050 A 
ATOM     13  C   LIG    1        7.671   5.422   2.079  0.00  0.00    +0.000 A 
ATOM     14  C   LIG    1        8.188   6.219   1.105  0.00  0.00    +0.050 A 
ATOM     15  C   LIG    1        8.749   5.660  -0.056  0.00  0.00    -0.060 A 
ATOM     16  C   LIG    1        9.287   6.470  -1.071  0.00  0.00    +0.030 A 
ATOM     17  C   LIG    1        9.823   5.892  -2.181  0.00  0.00    +0.020 A 
ATOM     18  C   LIG    1        9.847   4.507  -2.327  0.00  0.00    +0.020 A 
ATOM     19  C   LIG    1        9.335   3.692  -1.362  0.00  0.00    +0.030 A 
ATOM     20  C   LIG    1        8.775   4.252  -0.208  0.00  0.00    -0.020 A 
ENDBRANCH   7  11
BRANCH   1  25
ATOM     21  C   LIG    1       -1.357   2.084   0.298  0.00  0.00    +0.100 C 
ATOM     22  C   LIG    1       -0.036   1.359   0.252  0.00  0.00    -0.060 A 
ATOM     23  C   LIG    1        0.991   1.847  -0.535  0.00  0.00    +0.000 A 
ATOM     24  C   LIG    1        2.200   1.185  -0.586  0.00  0.00    +0.050 A 
ATOM     25  C   LIG    1        2.386   0.020   0.159  0.00  0.00    -0.140 A 
ATOM     26  C   LIG    1        1.345  -0.468   0.952  0.00  0.00    +0.070 A 
ATOM     27  C   LIG    1        0.141   0.204   0.993  0.00  0.00    +0.000 A 
ENDBRANCH   1  25
TORSDOF 2
