REMARK  Name = ZINCpe00000gMONb.0
REMARK                            x       y       z     vdW  Elec       q    Type
REMARK                         _______ _______ _______ _____ _____    ______ ____
ROOT
ATOM      1  C   LIG    1        1.552   5.983   0.285  0.00  0.00    +0.520 C 
ATOM      2  N   LIG    1        1.427   4.759  -0.265  0.00  0.00    -0.690 N 
ATOM      3  H   LIG    1        1.814   4.577  -1.136  0.00  0.00    +0.420 HD
ATOM      4  O   LIG    1        1.068   6.211   1.374  0.00  0.00    -0.500 OA
ENDROOT
BRANCH   2   5
ATOM      5  C   LIG    1        0.705   3.704   0.451  0.00  0.00    +0.250 C 
ATOM      6  C   LIG    1       -0.786   3.675   0.039  0.00  0.00    +0.050 C 
ATOM      7  C   LIG    1       -1.138   2.204   0.019  0.00  0.00    +0.520 C 
ATOM      8  N   LIG    1       -0.018   1.461   0.010  0.00  0.00    -0.610 N 
ATOM      9  O   LIG    1       -2.266   1.760   0.014  0.00  0.00    -0.520 OA
ATOM     10  C   LIG    1        1.183   2.305   0.003  0.00  0.00    +0.270 C 
BRANCH   8  11
ATOM     11  C   LIG    1        0.002  -0.004   0.002  0.00  0.00    +0.360 C 
BRANCH  11  12
ATOM     12  C   LIG    1        0.022  -0.514   1.420  0.00  0.00    -0.120 A 
ATOM     13  C   LIG    1        1.229  -0.737   2.057  0.00  0.00    +0.010 A 
ATOM     14  C   LIG    1        1.248  -1.200   3.359  0.00  0.00    +0.000 A 
ATOM     15  C   LIG    1        0.060  -1.450   4.021  0.00  0.00    +0.010 A 
ATOM     16  C   LIG    1       -1.147  -1.232   3.382  0.00  0.00    +0.000 A 
ATOM     17  C   LIG    1       -1.165  -0.764   2.082  0.00  0.00    +0.030 A 
ENDBRANCH  11  12
ENDBRANCH   8  11
ENDBRANCH   2   5
BRANCH   1  20
ATOM     18  N   LIG    1        2.414   8.282   0.106  0.00  0.00    -0.600 N 
ATOM     19  H   LIG    1        2.027   8.464   0.976  0.00  0.00    +0.430 HD
ATOM     20  C   LIG    1        2.289   7.058  -0.445  0.00  0.00    +0.520 C 
ATOM     21  O   LIG    1        2.773   6.830  -1.534  0.00  0.00    -0.490 OA
BRANCH  18  25
ATOM     22  C   LIG    1        5.019  10.864  -3.270  0.00  0.00    +0.190 C 
ATOM     23  C   LIG    1        4.243  10.410  -2.060  0.00  0.00    -0.010 A 
ATOM     24  C   LIG    1        3.722   9.180  -1.849  0.00  0.00    -0.040 A 
ATOM     25  C   LIG    1        3.101   9.285  -0.575  0.00  0.00    +0.240 A 
ATOM     26  N   LIG    1        3.299  10.513  -0.173  0.00  0.00    -0.380 NA
ATOM     27  O   LIG    1        3.935  11.147  -0.983  0.00  0.00    +0.110 OA
ENDBRANCH  18  25
ENDBRANCH   1  20
TORSDOF 5
