REMARK  Name = ZINCvU000000073n.0
REMARK                            x       y       z     vdW  Elec       q    Type
REMARK                         _______ _______ _______ _____ _____    ______ ____
ROOT
ATOM      1  C   LIG    1        3.707   3.122  -2.414  0.00  0.00    +0.290 C 
ATOM      2  N   LIG    1        2.874   4.019  -1.610  0.00  0.00    -0.600 N 
ATOM      3  C   LIG    1        2.444   5.186  -2.130  0.00  0.00    +0.550 C 
ATOM      4  O   LIG    1        1.755   5.930  -1.463  0.00  0.00    -0.510 OA
ENDROOT
BRANCH   3   5
ATOM      5  C   LIG    1        2.820   5.567  -3.538  0.00  0.00    +0.050 C 
BRANCH   5   6
ATOM      6  C   LIG    1        4.221   6.121  -3.553  0.00  0.00    -0.080 A 
ATOM      7  C   LIG    1        4.541   7.214  -2.769  0.00  0.00    +0.040 A 
ATOM      8  C   LIG    1        5.827   7.719  -2.779  0.00  0.00    +0.010 A 
ATOM      9  C   LIG    1        6.792   7.136  -3.580  0.00  0.00    +0.010 A 
ATOM     10  C   LIG    1        6.471   6.046  -4.367  0.00  0.00    +0.000 A 
ATOM     11  C   LIG    1        5.186   5.539  -4.354  0.00  0.00    +0.010 A 
ENDBRANCH   5   6
BRANCH   5  12
ATOM     12  S   LIG    1        1.666   6.825  -4.152  0.00  0.00    -0.070 S 
BRANCH  12  13
ATOM     13  C   LIG    1        2.110   6.976  -5.851  0.00  0.00    -0.140 A 
ATOM     14  C   LIG    1        3.116   7.856  -6.232  0.00  0.00    +0.070 A 
ATOM     15  C   LIG    1        3.464   7.967  -7.564  0.00  0.00    +0.000 A 
ATOM     16  C   LIG    1        2.807   7.212  -8.518  0.00  0.00    +0.040 A 
ATOM     17  C   LIG    1        1.802   6.339  -8.142  0.00  0.00    +0.000 A 
ATOM     18  C   LIG    1        1.452   6.219  -6.812  0.00  0.00    +0.060 A 
ENDBRANCH  12  13
ENDBRANCH   5  12
ENDBRANCH   3   5
BRANCH   2  19
ATOM     19  C   LIG    1        2.510   3.649  -0.240  0.00  0.00    +0.340 C 
BRANCH  19  20
ATOM     20  C   LIG    1        1.217   2.875  -0.256  0.00  0.00    -0.080 A 
ATOM     21  C   LIG    1        1.240   1.497  -0.377  0.00  0.00    +0.020 A 
ATOM     22  C   LIG    1        0.060   0.783  -0.393  0.00  0.00    +0.080 A 
ATOM     23  C   LIG    1       -1.159   1.454  -0.292  0.00  0.00    -0.130 A 
ATOM     24  C   LIG    1       -1.176   2.843  -0.164  0.00  0.00    +0.040 A 
ATOM     25  C   LIG    1        0.011   3.546  -0.151  0.00  0.00    +0.040 A 
BRANCH  23  26
ATOM     26  C   LIG    1       -2.428   0.695  -0.315  0.00  0.00    +0.560 C 
ATOM     27  N   LIG    1       -3.604   1.346  -0.218  0.00  0.00    -0.700 N 
ATOM     28  H   LIG    1       -3.618   2.312  -0.133  0.00  0.00    +0.400 HD
ATOM     29  O   LIG    1       -2.410  -0.516  -0.422  0.00  0.00    -0.530 OA
BRANCH  27  30
ATOM     30  C   LIG    1       -4.861   0.594  -0.241  0.00  0.00    +0.220 C 
ATOM     31  C   LIG    1       -6.003   1.152  -1.093  0.00  0.00    +0.010 C 
ATOM     32  C   LIG    1       -6.078   1.232   0.433  0.00  0.00    +0.020 C 
ENDBRANCH  27  30
ENDBRANCH  23  26
ENDBRANCH  19  20
ENDBRANCH   2  19
TORSDOF 8
