REMARK  Name = ZINCkj000005iIY5.0
REMARK                            x       y       z     vdW  Elec       q    Type
REMARK                         _______ _______ _______ _____ _____    ______ ____
ROOT
ATOM      1  S   LIG    1       -4.405   2.053   0.551  0.00  0.00    +2.710 S 
ATOM      2  O   LIG    1       -4.712   3.428   0.737  0.00  0.00    -0.940 OA
ATOM      3  O   LIG    1       -4.914   1.023   1.388  0.00  0.00    -0.950 OA
ENDROOT
BRANCH   1   7
ATOM      4  C   LIG    1       -5.676   1.017  -3.670  0.00  0.00    +0.190 A 
ATOM      5  C   LIG    1       -6.047   0.200  -2.612  0.00  0.00    -0.090 A 
ATOM      6  C   LIG    1       -5.653   0.515  -1.326  0.00  0.00    +0.170 A 
ATOM      7  C   LIG    1       -4.899   1.650  -1.091  0.00  0.00    -0.730 A 
ATOM      8  C   LIG    1       -4.528   2.466  -2.144  0.00  0.00    +0.060 A 
ATOM      9  C   LIG    1       -3.701   3.699  -1.885  0.00  0.00    +0.110 C 
ATOM     10  C   LIG    1       -4.915   2.153  -3.432  0.00  0.00    -0.040 A 
BRANCH   4  12
ATOM     11  C   LIG    1       -6.840  -0.477  -5.106  0.00  0.00    +0.250 C 
ATOM     12  O   LIG    1       -6.057   0.706  -4.936  0.00  0.00    -0.310 OA
ENDBRANCH   4  12
ENDBRANCH   1   7
BRANCH   1  13
ATOM     13  N   LIG    1       -2.754   1.930   0.611  0.00  0.00    -1.010 NA
ATOM     14  C   LIG    1       -1.804   3.050   0.480  0.00  0.00    +0.290 C 
ATOM     15  C   LIG    1       -0.519   2.565   1.197  0.00  0.00    +0.040 C 
ATOM     16  C   LIG    1       -0.497   1.062   0.814  0.00  0.00    -0.100 C 
ATOM     17  C   LIG    1        0.122   0.866  -0.571  0.00  0.00    +0.070 C 
ATOM     18  C   LIG    1       -1.993   0.682   0.802  0.00  0.00    +0.300 C 
BRANCH  16  19
ATOM     19  C   LIG    1        0.260   0.247   1.864  0.00  0.00    +0.280 C 
BRANCH  19  20
ATOM     20  N   LIG    1        1.666   0.671   1.893  0.00  0.00    -0.640 N 
ATOM     21  H   LIG    1        2.166   0.134   2.585  0.00  0.00    +0.440 HD
ATOM     22  H   LIG    1        1.717   1.651   2.127  0.00  0.00    +0.430 HD
ATOM     23  H   LIG    1        2.082   0.520   0.986  0.00  0.00    +0.430 HD
ENDBRANCH  19  20
ENDBRANCH  16  19
ENDBRANCH   1  13
TORSDOF 5
