REMARK  Name = ZINCrD00000hQ5OQ.0
REMARK                            x       y       z     vdW  Elec       q    Type
REMARK                         _______ _______ _______ _____ _____    ______ ____
ROOT
ATOM      1  C   LIG    1        0.340   1.827   0.385  0.00  0.00    +0.260 C 
ATOM      2  C   LIG    1        0.992   1.847  -0.998  0.00  0.00    +0.060 C 
ENDROOT
BRANCH   1   3
ATOM      3  N   LIG    1       -0.848   0.970   0.353  0.00  0.00    -0.680 N 
ATOM      4  H   LIG    1       -1.722   1.359   0.197  0.00  0.00    +0.400 HD
BRANCH   3   5
ATOM      5  C   LIG    1       -0.724  -0.359   0.535  0.00  0.00    +0.550 C 
ATOM      6  S   LIG    1        0.821  -1.047   0.803  0.00  0.00    -0.600 S 
BRANCH   5   7
ATOM      7  N   LIG    1       -1.817  -1.148   0.505  0.00  0.00    -0.620 N 
ATOM      8  H   LIG    1       -2.698  -0.752   0.420  0.00  0.00    +0.410 HD
BRANCH   7   9
ATOM      9  C   LIG    1       -1.679  -2.539   0.599  0.00  0.00    +0.070 A 
ATOM     10  C   LIG    1       -2.393  -3.366  -0.258  0.00  0.00    +0.050 A 
ATOM     11  C   LIG    1       -2.254  -4.737  -0.169  0.00  0.00    -0.080 A 
ATOM     12  C   LIG    1       -1.409  -5.288   0.783  0.00  0.00    +0.140 A 
ATOM     13  C   LIG    1       -0.700  -4.463   1.643  0.00  0.00    -0.010 A 
ATOM     14  C   LIG    1       -0.834  -3.091   1.551  0.00  0.00    +0.120 A 
BRANCH  12  15
ATOM     15  O   LIG    1       -1.276  -6.639   0.874  0.00  0.00    -0.310 OA
ATOM     16  C   LIG    1       -2.036  -7.428  -0.043  0.00  0.00    +0.250 C 
ENDBRANCH  12  15
ENDBRANCH   7   9
ENDBRANCH   5   7
ENDBRANCH   3   5
ENDBRANCH   1   3
BRANCH   1  17
ATOM     17  C   LIG    1       -0.067   3.249   0.777  0.00  0.00    +0.320 C 
BRANCH  17  18
ATOM     18  N   LIG    1       -0.798   3.215   2.047  0.00  0.00    -0.680 N 
ATOM     19  H   LIG    1       -0.950   2.369   2.496  0.00  0.00    +0.400 HD
BRANCH  18  20
ATOM     20  C   LIG    1       -1.258   4.359   2.591  0.00  0.00    +0.550 C 
ATOM     21  S   LIG    1       -0.988   5.853   1.797  0.00  0.00    -0.600 S 
BRANCH  20  22
ATOM     22  N   LIG    1       -1.930   4.328   3.758  0.00  0.00    -0.630 N 
ATOM     23  H   LIG    1       -2.005   3.497   4.253  0.00  0.00    +0.410 HD
BRANCH  22  27
ATOM     24  C   LIG    1       -3.687   7.805   5.247  0.00  0.00    +0.140 A 
ATOM     25  C   LIG    1       -3.718   7.540   3.885  0.00  0.00    +0.000 A 
ATOM     26  C   LIG    1       -3.136   6.389   3.392  0.00  0.00    +0.120 A 
ATOM     27  C   LIG    1       -2.520   5.497   4.258  0.00  0.00    +0.080 A 
ATOM     28  C   LIG    1       -2.494   5.759   5.622  0.00  0.00    +0.050 A 
ATOM     29  C   LIG    1       -3.072   6.913   6.113  0.00  0.00    -0.070 A 
BRANCH  24  31
ATOM     30  C   LIG    1       -4.191   9.147   7.144  0.00  0.00    +0.250 C 
ATOM     31  O   LIG    1       -4.260   8.938   5.732  0.00  0.00    -0.320 OA
ENDBRANCH  24  31
ENDBRANCH  22  27
ENDBRANCH  20  22
ENDBRANCH  18  20
ENDBRANCH  17  18
ENDBRANCH   1  17
TORSDOF 11
