REMARK  Name = ZINCrH000004pVvd.0
REMARK                            x       y       z     vdW  Elec       q    Type
REMARK                         _______ _______ _______ _____ _____    ______ ____
ROOT
ATOM      1  C   LIG    1        0.964   2.860   1.395  0.00  0.00    +0.500 C 
ATOM      2  N   LIG    1        1.616   3.369   0.330  0.00  0.00    -0.660 N 
ATOM      3  H   LIG    1        1.135   3.546  -0.493  0.00  0.00    +0.420 HD
ATOM      4  O   LIG    1        1.570   2.615   2.417  0.00  0.00    -0.480 OA
ENDROOT
BRANCH   1  15
ATOM      5  C   LIG    1       -0.224   1.595  -0.965  0.00  0.00    +0.100 C 
ATOM      6  C   LIG    1       -0.774   1.357   0.443  0.00  0.00    +0.160 C 
ATOM      7  O   LIG    1       -0.107   0.240   1.040  0.00  0.00    -0.300 OA
ATOM      8  C   LIG    1       -0.263   0.081   2.383  0.00  0.00    +0.060 A 
ATOM      9  C   LIG    1        0.042  -1.141   2.964  0.00  0.00    +0.020 A 
ATOM     10  C   LIG    1       -0.109  -1.317   4.327  0.00  0.00    +0.020 A 
ATOM     11  C   LIG    1       -0.564  -0.276   5.114  0.00  0.00    +0.020 A 
ATOM     12  C   LIG    1       -0.870   0.945   4.541  0.00  0.00    +0.030 A 
ATOM     13  C   LIG    1       -0.723   1.127   3.175  0.00  0.00    +0.060 A 
ATOM     14  O   LIG    1       -1.032   2.333   2.625  0.00  0.00    -0.280 OA
ATOM     15  C   LIG    1       -0.517   2.594   1.315  0.00  0.00    +0.200 C 
ENDBRANCH   1  15
BRANCH   2  16
ATOM     16  C   LIG    1        2.987   3.643   0.414  0.00  0.00    +0.200 A 
ATOM     17  C   LIG    1        3.569   3.902   1.648  0.00  0.00    -0.010 A 
ATOM     18  C   LIG    1        4.924   4.168   1.732  0.00  0.00    +0.180 A 
ATOM     19  C   LIG    1        5.701   4.186   0.580  0.00  0.00    -0.010 A 
ATOM     20  C   LIG    1        5.117   3.932  -0.655  0.00  0.00    +0.120 A 
ATOM     21  F   LIG    1        5.871   3.949  -1.776  0.00  0.00    -0.120 F 
ATOM     22  F   LIG    1        5.491   4.414   2.933  0.00  0.00    -0.110 F 
ATOM     23  C   LIG    1        3.763   3.662  -0.737  0.00  0.00    -0.040 A 
BRANCH  19  24
ATOM     24  N   LIG    1        7.074   4.460   0.664  0.00  0.00    -0.470 N 
ATOM     25  C   LIG    1        7.876   3.320   0.150  0.00  0.00    +0.180 C 
ATOM     26  C   LIG    1        9.246   3.969  -0.173  0.00  0.00    +0.040 C 
ATOM     27  C   LIG    1        8.849   5.355  -0.730  0.00  0.00    +0.020 C 
ATOM     28  C   LIG    1        7.435   5.620  -0.180  0.00  0.00    +0.160 C 
ENDBRANCH  19  24
ENDBRANCH   2  16
TORSDOF 3
