REMARK  Name = ZINCqH0000038maz.0
REMARK                            x       y       z     vdW  Elec       q    Type
REMARK                         _______ _______ _______ _____ _____    ______ ____
ROOT
ATOM      1  N   LIG    1       -2.428   1.040   0.013  0.00  0.00    -0.690 N 
ATOM      2  H   LIG    1       -2.419   0.074  -0.073  0.00  0.00    +0.410 HD
ATOM      3  C   LIG    1       -3.600   1.696   0.130  0.00  0.00    +0.710 C 
ATOM      4  N   LIG    1       -4.752   1.004   0.233  0.00  0.00    -0.620 N 
ATOM      5  C   LIG    1       -4.739  -0.462   0.330  0.00  0.00    +0.270 C 
ATOM      6  C   LIG    1       -5.539  -0.876   1.574  0.00  0.00    +0.030 C 
ATOM      7  C   LIG    1       -6.939  -0.265   1.500  0.00  0.00    +0.040 C 
ATOM      8  C   LIG    1       -6.831   1.262   1.484  0.00  0.00    +0.080 C 
ATOM      9  C   LIG    1       -6.045   1.701   0.245  0.00  0.00    +0.320 C 
ATOM     10  O   LIG    1       -3.618   2.912   0.142  0.00  0.00    -0.570 OA
ENDROOT
BRANCH   8  11
ATOM     11  C   LIG    1       -8.212   1.864   1.444  0.00  0.00    +0.180 A 
ATOM     12  N   LIG    1       -9.110   1.683   0.512  0.00  0.00    -0.280 NA
ATOM     13  N   LIG    1      -10.178   2.342   0.805  0.00  0.00    -0.290 NA
ATOM     14  C   LIG    1      -10.005   2.973   1.931  0.00  0.00    +0.180 A 
ATOM     15  C   LIG    1      -11.002   3.846   2.647  0.00  0.00    +0.150 C 
ATOM     16  C   LIG    1      -10.311   5.142   3.082  0.00  0.00    +0.030 C 
ATOM     17  C   LIG    1       -9.680   4.949   4.457  0.00  0.00    +0.020 C 
ATOM     18  C   LIG    1       -9.186   3.513   4.623  0.00  0.00    +0.030 C 
ATOM     19  C   LIG    1       -8.114   3.211   3.573  0.00  0.00    +0.280 C 
ATOM     20  N   LIG    1       -8.752   2.697   2.361  0.00  0.00    -0.460 N 
ENDBRANCH   8  11
BRANCH   1  26
ATOM     21  C   LIG    1        2.203   1.532  -1.562  0.00  0.00    +0.090 C 
ATOM     22  C   LIG    1        1.037   2.014  -0.738  0.00  0.00    -0.070 A 
ATOM     23  C   LIG    1        1.155   3.167   0.018  0.00  0.00    -0.020 A 
ATOM     24  C   LIG    1        0.087   3.613   0.775  0.00  0.00    +0.030 A 
ATOM     25  C   LIG    1       -1.101   2.908   0.778  0.00  0.00    +0.000 A 
ATOM     26  C   LIG    1       -1.224   1.754   0.016  0.00  0.00    +0.170 A 
ATOM     27  C   LIG    1       -0.148   1.305  -0.738  0.00  0.00    -0.030 A 
ENDBRANCH   1  26
TORSDOF 2
