REMARK  Name = ZINCrH00000No57u.0
REMARK                            x       y       z     vdW  Elec       q    Type
REMARK                         _______ _______ _______ _____ _____    ______ ____
ROOT
ATOM      1  C   LIG    1       -1.500   3.312   3.011  0.00  0.00    +0.100 A 
ATOM      2  C   LIG    1       -0.866   2.945   1.833  0.00  0.00    +0.170 A 
ATOM      3  C   LIG    1       -1.079   1.689   1.296  0.00  0.00    -0.690 A 
ATOM      4  C   LIG    1       -1.913   0.792   1.936  0.00  0.00    +0.140 A 
ATOM      5  C   LIG    1       -2.544   1.149   3.114  0.00  0.00    -0.070 A 
ATOM      6  C   LIG    1       -2.341   2.407   3.656  0.00  0.00    +0.160 A 
ENDROOT
BRANCH   1   8
ATOM      7  C   LIG    1       -0.161   5.262   3.269  0.00  0.00    +0.540 C 
ATOM      8  N   LIG    1       -1.291   4.585   3.553  0.00  0.00    -0.660 N 
ATOM      9  H   LIG    1       -1.960   4.981   4.134  0.00  0.00    +0.420 HD
ATOM     10  O   LIG    1        0.725   4.726   2.627  0.00  0.00    -0.520 OA
BRANCH   7  12
ATOM     11  C   LIG    1        1.136   7.319   3.445  0.00  0.00    +0.120 C 
ATOM     12  C   LIG    1        0.003   6.640   3.730  0.00  0.00    -0.100 C 
BRANCH  11  15
ATOM     13  C   LIG    1        2.587  10.787   4.101  0.00  0.00    +0.070 C 
ATOM     14  C   LIG    1        2.419   9.367   3.625  0.00  0.00    +0.020 C 
ATOM     15  C   LIG    1        1.300   8.697   3.907  0.00  0.00    -0.050 C 
ENDBRANCH  11  15
ENDBRANCH   7  12
ENDBRANCH   1   8
BRANCH   3  16
ATOM     16  S   LIG    1       -0.278   1.227  -0.204  0.00  0.00    +2.690 S 
ATOM     17  O   LIG    1        0.871   2.055  -0.317  0.00  0.00    -0.950 OA
ATOM     18  O   LIG    1       -0.216  -0.192  -0.206  0.00  0.00    -0.960 OA
BRANCH  16  19
ATOM     19  N   LIG    1       -1.285   1.653  -1.448  0.00  0.00    -1.000 NA
ATOM     20  C   LIG    1       -2.286   0.706  -1.958  0.00  0.00    +0.290 C 
ATOM     21  C   LIG    1       -3.662   1.389  -1.932  0.00  0.00    +0.010 C 
ATOM     22  C   LIG    1       -3.587   2.704  -2.710  0.00  0.00    +0.010 C 
ATOM     23  C   LIG    1       -2.574   3.637  -2.042  0.00  0.00    +0.010 C 
ATOM     24  C   LIG    1       -1.190   2.982  -2.067  0.00  0.00    +0.290 C 
ENDBRANCH  16  19
ENDBRANCH   3  16
BRANCH   6  25
ATOM     25  O   LIG    1       -2.961   2.759   4.814  0.00  0.00    -0.310 OA
BRANCH  25  26
ATOM     26  C   LIG    1       -3.902   1.829   5.354  0.00  0.00    +0.150 C 
ATOM     27  C   LIG    1       -5.044   2.593   6.028  0.00  0.00    +0.070 C 
ATOM     28  C   LIG    1       -3.206   0.940   6.386  0.00  0.00    +0.030 C 
ENDBRANCH  25  26
ENDBRANCH   6  25
TORSDOF 7
