REMARK  Name = ZINCrD0000072qu7.0
REMARK                            x       y       z     vdW  Elec       q    Type
REMARK                         _______ _______ _______ _____ _____    ______ ____
ROOT
ATOM      1  N   LIG    1        3.602  -0.671  -0.037  0.00  0.00    -0.480 N 
ATOM      2  C   LIG    1        4.786  -0.047  -0.046  0.00  0.00    +0.440 A 
ATOM      3  C   LIG    1        4.893   1.329  -0.039  0.00  0.00    -0.330 A 
ATOM      4  C   LIG    1        3.663   2.138  -0.022  0.00  0.00    +0.430 A 
ATOM      5  C   LIG    1        2.380   1.411  -0.013  0.00  0.00    -0.170 A 
ATOM      6  C   LIG    1        1.165   2.095   0.002  0.00  0.00    +0.130 A 
ATOM      7  C   LIG    1       -0.017   1.384   0.010  0.00  0.00    -0.070 A 
ATOM      8  C   LIG    1        0.002  -0.004   0.002  0.00  0.00    +0.100 A 
ATOM      9  C   LIG    1        1.196  -0.692  -0.013  0.00  0.00    +0.000 A 
ATOM     10 CL   LIG    1       -1.534   2.228   0.021  0.00  0.00    -0.050 Cl
ATOM     11  O   LIG    1        3.704   3.356  -0.017  0.00  0.00    -0.440 OA
ATOM     12  C   LIG    1        2.401   0.006  -0.021  0.00  0.00    +0.180 A 
ENDROOT
BRANCH   1  14
ATOM     13  C   LIG    1        3.558  -2.638  -1.490  0.00  0.00    +0.040 C 
ATOM     14  C   LIG    1        3.580  -2.136  -0.045  0.00  0.00    +0.280 C 
ENDBRANCH   1  14
BRANCH   3  15
ATOM     15  C   LIG    1        6.213   1.976  -0.050  0.00  0.00    +0.540 C 
ATOM     16  O   LIG    1        7.222   1.299  -0.065  0.00  0.00    -0.530 OA
BRANCH  15  17
ATOM     17  O   LIG    1        6.304   3.321  -0.044  0.00  0.00    -0.300 OA
BRANCH  17  18
ATOM     18  C   LIG    1        7.639   3.892  -0.055  0.00  0.00    +0.250 C 
BRANCH  18  19
ATOM     19  C   LIG    1        7.543   5.395  -0.046  0.00  0.00    +0.510 C 
ATOM     20  N   LIG    1        8.665   6.142  -0.053  0.00  0.00    -0.730 N 
ATOM     21  H   LIG    1        9.534   5.712  -0.065  0.00  0.00    +0.400 HD
ATOM     22  O   LIG    1        6.457   5.934  -0.031  0.00  0.00    -0.500 OA
BRANCH  20  23
ATOM     23  C   LIG    1        8.572   7.604  -0.044  0.00  0.00    +0.260 C 
BRANCH  23  24
ATOM     24  C   LIG    1        9.979   8.205  -0.056  0.00  0.00    +0.020 C 
BRANCH  24  25
ATOM     25  C   LIG    1        9.882   9.732  -0.047  0.00  0.00    -0.070 C 
ATOM     26  C   LIG    1        9.116  10.202  -1.286  0.00  0.00    +0.030 C 
ATOM     27  C   LIG    1       11.289  10.333  -0.059  0.00  0.00    +0.040 C 
ATOM     28  C   LIG    1        9.143  10.188   1.213  0.00  0.00    +0.030 C 
ENDBRANCH  24  25
ENDBRANCH  23  24
ENDBRANCH  20  23
ENDBRANCH  18  19
ENDBRANCH  17  18
ENDBRANCH  15  17
ENDBRANCH   3  15
TORSDOF 8
