REMARK  Name = ZINCah0000002xvP.0
REMARK                            x       y       z     vdW  Elec       q    Type
REMARK                         _______ _______ _______ _____ _____    ______ ____
ROOT
ATOM      1  C   LIG    1       -0.965   2.135  -1.038  0.00  0.00    +0.100 C 
ATOM      2  C   LIG    1       -1.355   3.170   0.031  0.00  0.00    -0.030 C 
ATOM      3  C   LIG    1       -0.945   2.123   1.083  0.00  0.00    +0.170 C 
ATOM      4  C   LIG    1       -2.113   1.207  -1.439  0.00  0.00    +0.050 C 
ATOM      5  C   LIG    1       -0.019   1.526   0.010  0.00  0.00    -0.060 C 
ATOM      6  C   LIG    1        1.383   2.139   0.000  0.00  0.00    +0.070 C 
ATOM      7  C   LIG    1        0.002  -0.004   0.002  0.00  0.00    +0.050 C 
ENDROOT
BRANCH   1   9
ATOM      8  C   LIG    1       -1.159   3.266  -3.142  0.00  0.00    +0.190 C 
ATOM      9  O   LIG    1       -0.287   2.698  -2.163  0.00  0.00    -0.370 OA
ENDBRANCH   1   9
BRANCH   3  10
ATOM     10  O   LIG    1       -2.010   1.253   1.469  0.00  0.00    -0.540 OA
ATOM     11  H   LIG    1       -2.596   1.623   2.143  0.00  0.00    +0.380 HD
ENDBRANCH   3  10
TORSDOF 2
