REMARK  Name = ZINCpe00000xRrGT.1
REMARK                            x       y       z     vdW  Elec       q    Type
REMARK                         _______ _______ _______ _____ _____    ______ ____
ROOT
ATOM      1  C   LIG    1       -4.302   2.061   1.419  0.00  0.00    +0.540 C 
ATOM      2  N   LIG    1       -5.072   2.245   2.509  0.00  0.00    -0.590 N 
ATOM      3  C   LIG    1       -4.715   3.054   3.690  0.00  0.00    +0.270 C 
ATOM      4  C   LIG    1       -5.567   2.471   4.844  0.00  0.00    +0.040 C 
ATOM      5  C   LIG    1       -6.892   2.126   4.112  0.00  0.00    +0.290 C 
ATOM      6  C   LIG    1       -6.409   1.678   2.719  0.00  0.00    +0.080 C 
ATOM      7  C   LIG    1       -6.769   0.293   2.186  0.00  0.00    +0.040 C 
ATOM      8  C   LIG    1       -7.396   1.542   1.562  0.00  0.00    +0.050 C 
ATOM      9  O   LIG    1       -4.700   1.372   0.504  0.00  0.00    -0.520 OA
ENDROOT
BRANCH   5  10
ATOM     10  N   LIG    1       -7.595   1.038   4.795  0.00  0.00    -0.710 N 
ATOM     11  H   LIG    1       -7.459   0.120   4.514  0.00  0.00    +0.410 HD
ATOM     12  C   LIG    1       -8.432   1.313   5.816  0.00  0.00    +0.520 C 
ATOM     13  O   LIG    1       -8.602   2.461   6.168  0.00  0.00    -0.530 OA
BRANCH  12  14
ATOM     14  C   LIG    1       -9.155   0.193   6.520  0.00  0.00    +0.320 C 
BRANCH  14  15
ATOM     15  N   LIG    1       -9.996   0.748   7.583  0.00  0.00    -0.690 N 
ATOM     16  H   LIG    1      -10.018   1.706   7.735  0.00  0.00    +0.420 HD
ATOM     17  C   LIG    1      -10.741  -0.073   8.351  0.00  0.00    +0.490 C 
ATOM     18  O   LIG    1      -10.714  -1.270   8.161  0.00  0.00    -0.470 OA
BRANCH  17  19
ATOM     19  C   LIG    1      -11.606   0.498   9.444  0.00  0.00    +0.460 C 
ATOM     20  F   LIG    1      -12.539   1.379   8.889  0.00  0.00    -0.160 F 
ATOM     21  F   LIG    1      -10.805   1.185  10.363  0.00  0.00    -0.160 F 
ATOM     22  F   LIG    1      -12.278  -0.541  10.097  0.00  0.00    -0.150 F 
ENDBRANCH  17  19
ENDBRANCH  14  15
ENDBRANCH  12  14
ENDBRANCH   5  10
BRANCH   1  23
ATOM     23  C   LIG    1       -2.945   2.713   1.336  0.00  0.00    +0.040 C 
ATOM     24  C   LIG    1       -3.103   4.232   1.426  0.00  0.00    +0.060 C 
BRANCH  23  27
ATOM     25  C   LIG    1       -0.013   1.076   0.008  0.00  0.00    +0.120 C 
ATOM     26  C   LIG    1       -1.153   1.714   0.017  0.00  0.00    -0.190 C 
ATOM     27  C   LIG    1       -2.294   2.352   0.026  0.00  0.00    +0.050 C 
ENDBRANCH  23  27
ENDBRANCH   1  23
TORSDOF 6
