REMARK  Name = ZINCkj000005lK9O.0
REMARK                            x       y       z     vdW  Elec       q    Type
REMARK                         _______ _______ _______ _____ _____    ______ ____
ROOT
ATOM      1  C   LIG    1        4.816   3.909   0.252  0.00  0.00    +0.260 C 
ENDROOT
BRANCH   1   2
ATOM      2  N   LIG    1        3.572   3.146   0.414  0.00  0.00    -0.380 N 
ATOM      3  C   LIG    1        3.623   1.937  -0.422  0.00  0.00    +0.270 C 
ATOM      4  C   LIG    1        2.476   1.012  -0.013  0.00  0.00    +0.110 C 
ATOM      5  C   LIG    1        1.180   1.782   0.000  0.00  0.00    -0.090 A 
ATOM      6  C   LIG    1       -0.013   1.076   0.008  0.00  0.00    +0.040 A 
ATOM      7  C   LIG    1       -1.220   1.747   0.017  0.00  0.00    +0.050 A 
ATOM      8  C   LIG    1       -1.238   3.129   0.031  0.00  0.00    +0.040 A 
ATOM      9  C   LIG    1       -0.050   3.833   0.024  0.00  0.00    +0.050 A 
ATOM     10  C   LIG    1        1.163   3.161   0.007  0.00  0.00    -0.130 A 
ATOM     11  C   LIG    1        2.433   3.969  -0.005  0.00  0.00    +0.320 C 
ATOM     12  H   LIG    1        3.461   2.882   1.382  0.00  0.00    +0.430 HD
ENDBRANCH   1   2
BRANCH   1  13
ATOM     13  C   LIG    1        4.815   5.098   1.215  0.00  0.00    +0.280 C 
BRANCH  13  16
ATOM     14  O   LIG    1        5.447   7.314   2.613  0.00  0.00    -0.500 OA
ATOM     15  C   LIG    1        6.276   6.957   1.804  0.00  0.00    +0.530 C 
ATOM     16  N   LIG    1        6.056   5.859   1.053  0.00  0.00    -0.730 N 
ATOM     17  H   LIG    1        6.720   5.573   0.406  0.00  0.00    +0.410 HD
BRANCH  15  18
ATOM     18  C   LIG    1        7.553   7.740   1.637  0.00  0.00    +0.160 C 
ATOM     19  C   LIG    1        8.764   6.899   2.099  0.00  0.00    +0.030 C 
ATOM     20  C   LIG    1        9.698   7.926   2.777  0.00  0.00    +0.010 C 
ATOM     21  C   LIG    1        8.941   9.266   2.645  0.00  0.00    +0.210 C 
ATOM     22  O   LIG    1        7.551   8.895   2.504  0.00  0.00    -0.340 OA
ENDBRANCH  15  18
ENDBRANCH  13  16
ENDBRANCH   1  13
TORSDOF 4
