REMARK  Name = ZINCkj000005lK9O.1
REMARK                            x       y       z     vdW  Elec       q    Type
REMARK                         _______ _______ _______ _____ _____    ______ ____
ROOT
ATOM      1  C   LIG    1       -4.879   1.003  -0.220  0.00  0.00    +0.260 C 
ENDROOT
BRANCH   1   2
ATOM      2  N   LIG    1       -3.634   1.765  -0.384  0.00  0.00    -0.380 N 
ATOM      3  C   LIG    1       -3.684   2.976   0.449  0.00  0.00    +0.270 C 
ATOM      4  C   LIG    1       -2.536   3.899   0.038  0.00  0.00    +0.120 C 
ATOM      5  C   LIG    1       -1.241   3.128   0.027  0.00  0.00    -0.090 A 
ATOM      6  C   LIG    1       -0.048   3.833   0.021  0.00  0.00    +0.040 A 
ATOM      7  C   LIG    1        1.159   3.161   0.007  0.00  0.00    +0.050 A 
ATOM      8  C   LIG    1        1.176   1.779   0.000  0.00  0.00    +0.040 A 
ATOM      9  C   LIG    1       -0.013   1.076   0.008  0.00  0.00    +0.040 A 
ATOM     10  C   LIG    1       -1.225   1.749   0.017  0.00  0.00    -0.140 A 
ATOM     11  C   LIG    1       -2.496   0.943   0.037  0.00  0.00    +0.320 C 
ATOM     12  H   LIG    1       -3.521   2.026  -1.352  0.00  0.00    +0.430 HD
ENDBRANCH   1   2
BRANCH   1  13
ATOM     13  C   LIG    1       -4.878  -0.188  -1.179  0.00  0.00    +0.270 C 
BRANCH  13  16
ATOM     14  O   LIG    1       -5.512  -2.408  -2.571  0.00  0.00    -0.500 OA
ATOM     15  C   LIG    1       -6.341  -2.048  -1.762  0.00  0.00    +0.510 C 
ATOM     16  N   LIG    1       -6.120  -0.948  -1.015  0.00  0.00    -0.730 N 
ATOM     17  H   LIG    1       -6.784  -0.659  -0.369  0.00  0.00    +0.410 HD
BRANCH  15  18
ATOM     18  C   LIG    1       -7.619  -2.829  -1.594  0.00  0.00    +0.180 C 
ATOM     19  C   LIG    1       -7.667  -3.457  -0.184  0.00  0.00    +0.030 C 
ATOM     20  C   LIG    1       -8.289  -4.852  -0.466  0.00  0.00    +0.020 C 
ATOM     21  C   LIG    1       -7.696  -5.162  -1.863  0.00  0.00    +0.220 C 
ATOM     22  O   LIG    1       -7.663  -3.899  -2.546  0.00  0.00    -0.350 OA
ENDBRANCH  15  18
ENDBRANCH  13  16
ENDBRANCH   1  13
TORSDOF 4
