REMARK  Name = ZINCrH000004v5x6.0
REMARK                            x       y       z     vdW  Elec       q    Type
REMARK                         _______ _______ _______ _____ _____    ______ ____
ROOT
ATOM      1  C   LIG    1        0.905  -1.416  -7.243  0.00  0.00    -0.080 A 
ATOM      2  C   LIG    1        2.263  -1.214  -6.988  0.00  0.00    +0.080 A 
ATOM      3  C   LIG    1        2.816  -1.673  -5.811  0.00  0.00    +0.130 A 
ATOM      4  C   LIG    1        2.029  -2.332  -4.883  0.00  0.00    -0.650 A 
ATOM      5  C   LIG    1        0.684  -2.540  -5.132  0.00  0.00    +0.120 A 
ATOM      6  C   LIG    1        0.117  -2.082  -6.303  0.00  0.00    +0.030 A 
ENDROOT
BRANCH   1   8
ATOM      7  O   LIG    1        0.995  -0.349  -9.320  0.00  0.00    -0.500 OA
ATOM      8  C   LIG    1        0.306  -0.928  -8.503  0.00  0.00    +0.560 C 
ATOM      9  N   LIG    1       -1.005  -1.125  -8.746  0.00  0.00    -0.660 N 
ATOM     10  H   LIG    1       -1.541  -1.644  -8.126  0.00  0.00    +0.420 HD
BRANCH   9  11
ATOM     11  C   LIG    1       -1.593  -0.582  -9.894  0.00  0.00    +0.160 A 
ATOM     12  C   LIG    1       -0.866  -0.494 -11.073  0.00  0.00    +0.060 A 
ATOM     13  C   LIG    1       -1.449   0.043 -12.205  0.00  0.00    +0.070 A 
ATOM     14  C   LIG    1       -2.757   0.493 -12.164  0.00  0.00    -0.040 A 
ATOM     15  C   LIG    1       -3.485   0.407 -10.990  0.00  0.00    +0.070 A 
ATOM     16 CL   LIG    1       -3.486   1.166 -13.589  0.00  0.00    -0.050 Cl
ATOM     17  C   LIG    1       -2.909  -0.135  -9.857  0.00  0.00    -0.050 A 
ATOM     18 CL   LIG    1       -3.825  -0.250  -8.387  0.00  0.00    -0.050 Cl
ENDBRANCH   9  11
ENDBRANCH   1   8
BRANCH   4  19
ATOM     19  S   LIG    1        2.744  -2.915  -3.382  0.00  0.00    +2.690 S 
ATOM     20  O   LIG    1        1.911  -3.972  -2.925  0.00  0.00    -0.950 OA
ATOM     21  O   LIG    1        4.133  -3.073  -3.635  0.00  0.00    -0.950 OA
BRANCH  19  22
ATOM     22  N   LIG    1        2.607  -1.697  -2.269  0.00  0.00    -1.110 NA
ATOM     23  H   LIG    1        3.403  -1.270  -1.916  0.00  0.00    +0.430 HD
BRANCH  22  24
ATOM     24  C   LIG    1        1.282  -1.263  -1.816  0.00  0.00    +0.280 C 
BRANCH  24  25
ATOM     25  C   LIG    1        1.428  -0.418  -0.549  0.00  0.00    +0.150 C 
ATOM     26  C   LIG    1        0.035  -0.062   0.005  0.00  0.00    +0.010 C 
ATOM     27  C   LIG    1        0.018   1.486   0.024  0.00  0.00    +0.000 C 
ATOM     28  C   LIG    1        1.530   1.827   0.008  0.00  0.00    +0.210 C 
ATOM     29  O   LIG    1        2.094   0.818  -0.857  0.00  0.00    -0.370 OA
ENDBRANCH  24  25
ENDBRANCH  22  24
ENDBRANCH  19  22
ENDBRANCH   4  19
TORSDOF 6
