REMARK  Name = ZINCAx0000000aDV.0
REMARK                            x       y       z     vdW  Elec       q    Type
REMARK                         _______ _______ _______ _____ _____    ______ ____
ROOT
ATOM      1  C   LIG    1        1.221   2.204   0.023  0.00  0.00    -0.020 C 
ATOM      2  C   LIG    1        1.991   2.011  -1.285  0.00  0.00    +0.030 C 
ATOM      3  C   LIG    1        3.247   2.885  -1.271  0.00  0.00    +0.030 C 
ATOM      4  C   LIG    1        2.844   4.354  -1.129  0.00  0.00    -0.020 C 
ATOM      5  C   LIG    1        2.074   4.547   0.179  0.00  0.00    +0.030 C 
ATOM      6  C   LIG    1        0.818   3.674   0.165  0.00  0.00    +0.050 C 
ENDROOT
BRANCH   1  12
ATOM      7  C   LIG    1       -1.166  -1.462   1.857  0.00  0.00    +0.280 C 
ATOM      8  C   LIG    1       -1.154  -0.779   0.485  0.00  0.00    +0.280 C 
ATOM      9  N   LIG    1        0.057   0.053   0.391  0.00  0.00    -0.620 N 
ATOM     10  C   LIG    1        1.350  -0.568   0.720  0.00  0.00    +0.250 C 
ATOM     11  C   LIG    1        1.215  -1.260   2.086  0.00  0.00    +0.230 C 
ATOM     12  C   LIG    1       -0.016   1.344   0.009  0.00  0.00    +0.520 C 
ATOM     13  O   LIG    1       -1.076   1.811  -0.349  0.00  0.00    -0.530 OA
ATOM     14  O   LIG    1        0.082  -2.131   2.061  0.00  0.00    -0.370 OA
BRANCH   7  17
ATOM     15  C   LIG    1       -4.127  -3.422   2.341  0.00  0.00    +0.190 A 
ATOM     16  N   LIG    1       -3.455  -2.318   2.565  0.00  0.00    -0.470 NA
ATOM     17  C   LIG    1       -2.290  -2.464   1.910  0.00  0.00    +0.170 A 
ATOM     18  N   LIG    1       -2.313  -3.625   1.328  0.00  0.00    -0.350 NA
ATOM     19  O   LIG    1       -3.358  -4.194   1.567  0.00  0.00    +0.090 OA
BRANCH  15  21
ATOM     20  C   LIG    1       -6.447  -3.992   1.676  0.00  0.00    +0.060 C 
ATOM     21  C   LIG    1       -5.503  -3.757   2.857  0.00  0.00    +0.120 C 
ATOM     22  C   LIG    1       -5.432  -5.023   3.713  0.00  0.00    +0.060 C 
ENDBRANCH  15  21
ENDBRANCH   7  17
ENDBRANCH   1  12
BRANCH   4  23
ATOM     23  C   LIG    1        4.100   5.228  -1.115  0.00  0.00    +0.260 C 
BRANCH  23  24
ATOM     24  N   LIG    1        4.774   5.134  -2.413  0.00  0.00    -0.720 N 
ATOM     25  H   LIG    1        4.403   4.575  -3.113  0.00  0.00    +0.400 HD
ATOM     26  C   LIG    1        5.911   5.824  -2.633  0.00  0.00    +0.550 C 
ATOM     27  O   LIG    1        6.376   6.525  -1.755  0.00  0.00    -0.510 OA
BRANCH  26  28
ATOM     28  C   LIG    1        6.590   5.730  -3.940  0.00  0.00    -0.100 A 
ATOM     29  C   LIG    1        6.062   4.923  -4.949  0.00  0.00    +0.070 A 
ATOM     30  C   LIG    1        6.694   4.842  -6.173  0.00  0.00    +0.050 A 
ATOM     31  C   LIG    1        7.861   5.547  -6.406  0.00  0.00    +0.070 A 
ATOM     32  C   LIG    1        8.401   6.348  -5.412  0.00  0.00    +0.060 A 
ATOM     33  N   LIG    1        9.534   7.159  -5.347  0.00  0.00    -0.650 N 
ATOM     34  H   LIG    1       10.181   7.300  -6.056  0.00  0.00    +0.450 HD
ATOM     35  C   LIG    1        9.566   7.711  -4.118  0.00  0.00    +0.640 A 
ATOM     36  O   LIG    1       10.420   8.476  -3.713  0.00  0.00    -0.480 OA
ATOM     37  O   LIG    1        8.508   7.285  -3.410  0.00  0.00    -0.210 OA
ATOM     38  C   LIG    1        7.770   6.446  -4.173  0.00  0.00    +0.100 A 
ENDBRANCH  26  28
ENDBRANCH  23  24
ENDBRANCH   4  23
TORSDOF 6
