REMARK  Name = ZINCqH0000038xjI.0
REMARK                            x       y       z     vdW  Elec       q    Type
REMARK                         _______ _______ _______ _____ _____    ______ ____
ROOT
ATOM      1  C   LIG    1       -3.696   3.648   0.058  0.00  0.00    +0.600 C 
ATOM      2  N   LIG    1       -4.609   4.639   0.073  0.00  0.00    -0.720 N 
ATOM      3  H   LIG    1       -4.320   5.565   0.076  0.00  0.00    +0.400 HD
ATOM      4  O   LIG    1       -4.059   2.486   0.055  0.00  0.00    -0.510 OA
ENDROOT
BRANCH   1  11
ATOM      5  C   LIG    1        2.509   1.062  -0.016  0.00  0.00    +0.140 C 
ATOM      6  C   LIG    1        1.190   1.791   0.000  0.00  0.00    -0.180 A 
ATOM      7  C   LIG    1        1.158   3.148   0.008  0.00  0.00    +0.340 A 
ATOM      8  N   LIG    1       -0.048   3.784   0.023  0.00  0.00    -0.300 N 
ATOM      9  N   LIG    1       -0.395   5.139   0.034  0.00  0.00    -0.310 NA
ATOM     10  C   LIG    1       -1.697   5.256   0.047  0.00  0.00    +0.330 A 
ATOM     11  C   LIG    1       -2.266   3.970   0.045  0.00  0.00    -0.300 A 
ATOM     12  C   LIG    1       -1.200   3.050   0.030  0.00  0.00    +0.320 A 
ATOM     13  N   LIG    1       -1.161   1.717   0.017  0.00  0.00    -0.440 NA
ATOM     14  C   LIG    1       -0.013   1.076   0.008  0.00  0.00    +0.380 A 
ENDBRANCH   1  11
BRANCH   2  15
ATOM     15  C   LIG    1       -6.039   4.318   0.086  0.00  0.00    +0.230 C 
ATOM     16  C   LIG    1       -6.391   3.510  -1.165  0.00  0.00    +0.040 C 
ATOM     17  C   LIG    1       -6.064   4.333  -2.412  0.00  0.00    +0.010 C 
ATOM     18  C   LIG    1       -6.878   5.629  -2.396  0.00  0.00    +0.000 C 
ATOM     19  C   LIG    1       -6.526   6.436  -1.145  0.00  0.00    +0.010 C 
ATOM     20  C   LIG    1       -6.853   5.613   0.102  0.00  0.00    +0.030 C 
BRANCH  15  21
ATOM     21  C   LIG    1       -6.360   3.507   1.315  0.00  0.00    -0.110 A 
ATOM     22  C   LIG    1       -5.359   3.181   2.210  0.00  0.00    +0.070 A 
ATOM     23  C   LIG    1       -5.655   2.442   3.340  0.00  0.00    -0.010 A 
ATOM     24  C   LIG    1       -6.950   2.018   3.571  0.00  0.00    +0.040 A 
ATOM     25  C   LIG    1       -7.953   2.338   2.674  0.00  0.00    -0.030 A 
ATOM     26  C   LIG    1       -7.659   3.083   1.545  0.00  0.00    +0.100 A 
ATOM     27  F   LIG    1       -8.637   3.397   0.668  0.00  0.00    -0.140 F 
ENDBRANCH  15  21
ENDBRANCH   2  15
TORSDOF 3
