REMARK  Name = ZINCrD000000B1vo.0
REMARK                            x       y       z     vdW  Elec       q    Type
REMARK                         _______ _______ _______ _____ _____    ______ ____
ROOT
ATOM      1  O   LIG    1        2.521  -0.101   0.071  0.00  0.00    -0.540 OA
ATOM      2  C   LIG    1        2.478   1.112  -0.016  0.00  0.00    +0.590 C 
ATOM      3  N   LIG    1        3.619   1.821  -0.124  0.00  0.00    -0.720 N 
ATOM      4  H   LIG    1        3.590   2.790  -0.119  0.00  0.00    +0.420 HD
ENDROOT
BRANCH   2   5
ATOM      5  C   LIG    1        1.183   1.803  -0.002  0.00  0.00    -0.350 A 
ATOM      6  C   LIG    1       -0.013   1.076  -0.013  0.00  0.00    +0.480 A 
ATOM      7  N   LIG    1       -1.159   1.730  -0.005  0.00  0.00    -0.510 NA
ATOM      8  C   LIG    1       -1.209   3.055   0.022  0.00  0.00    +0.290 A 
ATOM      9  S   LIG    1       -2.558   4.125   0.043  0.00  0.00    +0.260 S 
ATOM     10  C   LIG    1       -1.579   5.600   0.066  0.00  0.00    +0.010 A 
ATOM     11  C   LIG    1       -0.323   5.189   0.058  0.00  0.00    +0.250 A 
ATOM     12  N   LIG    1       -0.095   3.834   0.034  0.00  0.00    -0.460 N 
ATOM     13  C   LIG    1        1.121   3.213   0.022  0.00  0.00    +0.550 A 
ATOM     14  O   LIG    1        2.146   3.872   0.032  0.00  0.00    -0.520 OA
ENDBRANCH   2   5
BRANCH   3  15
ATOM     15  C   LIG    1        4.903   1.127  -0.251  0.00  0.00    +0.290 C 
BRANCH  15  16
ATOM     16  C   LIG    1        6.030   2.156  -0.357  0.00  0.00    +0.070 C 
BRANCH  16  17
ATOM     17  S   LIG    1        7.620   1.297  -0.514  0.00  0.00    +0.010 S 
BRANCH  17  18
ATOM     18  C   LIG    1        8.777   2.622  -0.623  0.00  0.00    +0.150 A 
ATOM     19  N   LIG    1        8.348   3.874  -0.583  0.00  0.00    -0.470 NA
ATOM     20  C   LIG    1        9.181   4.894  -0.656  0.00  0.00    +0.360 A 
ATOM     21  C   LIG    1       10.540   4.691  -0.788  0.00  0.00    -0.240 A 
ATOM     22  C   LIG    1       11.032   3.393  -0.839  0.00  0.00    +0.170 A 
ATOM     23  C   LIG    1       10.136   2.343  -0.755  0.00  0.00    -0.080 A 
ATOM     24 CL   LIG    1       10.696   0.701  -0.814  0.00  0.00    -0.020 Cl
BRANCH  21  25
ATOM     25  C   LIG    1       11.480   5.866  -0.877  0.00  0.00    +0.520 C 
ATOM     26  F   LIG    1       12.720   5.512  -0.336  0.00  0.00    -0.170 F 
ATOM     27  F   LIG    1       10.949   6.943  -0.160  0.00  0.00    -0.170 F 
ATOM     28  F   LIG    1       11.643   6.232  -2.217  0.00  0.00    -0.170 F 
ENDBRANCH  21  25
ENDBRANCH  17  18
ENDBRANCH  16  17
ENDBRANCH  15  16
ENDBRANCH   3  15
TORSDOF 6
