REMARK  Name = ZINCue00000003WU.0
REMARK                            x       y       z     vdW  Elec       q    Type
REMARK                         _______ _______ _______ _____ _____    ______ ____
ROOT
ATOM      1  N   LIG    1       -3.910  11.627  -1.505  0.00  0.00    -0.610 N 
ATOM      2  C   LIG    1       -3.778  10.464  -2.390  0.00  0.00    +0.330 C 
ATOM      3  C   LIG    1       -3.136   9.376  -1.566  0.00  0.00    -0.090 A 
ATOM      4  C   LIG    1       -2.768   8.082  -1.843  0.00  0.00    +0.110 A 
ATOM      5  C   LIG    1       -2.180   7.297  -0.848  0.00  0.00    -0.090 A 
ATOM      6  C   LIG    1       -1.974   7.830   0.425  0.00  0.00    +0.050 A 
ATOM      7  C   LIG    1       -2.338   9.130   0.700  0.00  0.00    +0.090 A 
ATOM      8  C   LIG    1       -2.926   9.915  -0.294  0.00  0.00    -0.140 A 
ATOM      9  C   LIG    1       -3.418  11.309  -0.295  0.00  0.00    +0.570 C 
ATOM     10  O   LIG    1       -3.383  12.059   0.660  0.00  0.00    -0.510 OA
ENDROOT
BRANCH   1  15
ATOM     11  O   LIG    1       -4.452  12.708  -5.935  0.00  0.00    -0.490 OA
ATOM     12  C   LIG    1       -4.460  12.769  -4.724  0.00  0.00    +0.520 C 
ATOM     13  C   LIG    1       -3.165  12.990  -3.988  0.00  0.00    +0.090 C 
ATOM     14  C   LIG    1       -3.453  13.728  -2.676  0.00  0.00    +0.070 C 
ATOM     15  C   LIG    1       -4.484  12.922  -1.878  0.00  0.00    +0.300 C 
ATOM     16  C   LIG    1       -5.708  12.705  -2.728  0.00  0.00    +0.520 C 
ATOM     17  O   LIG    1       -6.790  12.588  -2.194  0.00  0.00    -0.470 OA
ATOM     18  N   LIG    1       -5.622  12.637  -4.067  0.00  0.00    -0.670 N 
ATOM     19  H   LIG    1       -6.432  12.488  -4.578  0.00  0.00    +0.420 HD
ENDBRANCH   1  15
BRANCH   5  20
ATOM     20  C   LIG    1       -1.781   5.902  -1.142  0.00  0.00    +0.550 C 
ATOM     21  N   LIG    1       -1.214   5.147  -0.181  0.00  0.00    -0.710 N 
ATOM     22  H   LIG    1       -1.067   5.517   0.703  0.00  0.00    +0.400 HD
ATOM     23  O   LIG    1       -1.966   5.439  -2.250  0.00  0.00    -0.530 OA
BRANCH  21  24
ATOM     24  C   LIG    1       -0.820   3.766  -0.472  0.00  0.00    +0.230 C 
ATOM     25  C   LIG    1        0.576   3.756  -1.099  0.00  0.00    +0.000 C 
ATOM     26  C   LIG    1        0.988   2.314  -1.403  0.00  0.00    +0.000 C 
ATOM     27  C   LIG    1        1.006   1.504  -0.105  0.00  0.00    +0.030 C 
ATOM     28  C   LIG    1       -0.390   1.515   0.522  0.00  0.00    -0.090 C 
ATOM     29  C   LIG    1       -0.801   2.957   0.826  0.00  0.00    +0.030 C 
BRANCH  28  30
ATOM     30  C   LIG    1       -0.372   0.717   1.800  0.00  0.00    +0.500 C 
ATOM     31  O   LIG    1       -1.391   0.600   2.460  0.00  0.00    -0.700 OA
ATOM     32  O   LIG    1        0.661   0.189   2.175  0.00  0.00    -0.700 OA
ENDBRANCH  28  30
ENDBRANCH  21  24
ENDBRANCH   5  20
TORSDOF 4
