REMARK  Name = ZINCqH0000007GOF.0
REMARK                            x       y       z     vdW  Elec       q    Type
REMARK                         _______ _______ _______ _____ _____    ______ ____
ROOT
ATOM      1  N   LIG    1       -1.302  -4.577  -0.104  0.00  0.00    -0.600 N 
ATOM      2  C   LIG    1       -1.758  -3.356   0.237  0.00  0.00    +0.600 C 
ATOM      3  O   LIG    1       -2.953  -3.129   0.232  0.00  0.00    -0.520 OA
ATOM      4  C   LIG    1        0.138  -4.849  -0.102  0.00  0.00    +0.330 C 
ENDROOT
BRANCH   2   5
ATOM      5  C   LIG    1       -0.811  -2.298   0.616  0.00  0.00    -0.230 A 
ATOM      6  C   LIG    1       -1.139  -1.016   0.806  0.00  0.00    +0.130 A 
ATOM      7  C   LIG    1       -0.081  -0.166   1.164  0.00  0.00    -0.120 A 
ATOM      8  C   LIG    1       -0.110   1.226   1.429  0.00  0.00    +0.150 A 
ATOM      9  C   LIG    1        1.041   1.891   1.767  0.00  0.00    -0.020 A 
ATOM     10  C   LIG    1        2.248   1.211   1.857  0.00  0.00    +0.080 A 
ATOM     11  C   LIG    1        2.302  -0.139   1.604  0.00  0.00    +0.040 A 
ATOM     12  F   LIG    1       -1.276   1.903   1.342  0.00  0.00    -0.130 F 
ATOM     13  C   LIG    1        1.143  -0.840   1.256  0.00  0.00    -0.130 A 
ATOM     14  S   LIG    1        0.906  -2.543   0.881  0.00  0.00    +0.170 S 
ENDBRANCH   2   5
BRANCH   1  15
ATOM     15  C   LIG    1       -2.246  -5.634  -0.477  0.00  0.00    +0.340 C 
BRANCH  15  18
ATOM     16  N   LIG    1       -3.332  -6.471  -2.536  0.00  0.00    -0.670 N 
ATOM     17  H   LIG    1       -3.727  -7.179  -2.003  0.00  0.00    +0.410 HD
ATOM     18  C   LIG    1       -2.491  -5.587  -1.963  0.00  0.00    +0.490 C 
ATOM     19  O   LIG    1       -1.932  -4.753  -2.644  0.00  0.00    -0.500 OA
BRANCH  16  24
ATOM     20  C   LIG    1       -2.968  -5.841  -6.143  0.00  0.00    +0.150 A 
ATOM     21  C   LIG    1       -4.240  -6.165  -6.593  0.00  0.00    -0.090 A 
ATOM     22  C   LIG    1       -5.205  -6.588  -5.699  0.00  0.00    +0.070 A 
ATOM     23  C   LIG    1       -4.905  -6.696  -4.355  0.00  0.00    -0.050 A 
ATOM     24  C   LIG    1       -3.634  -6.368  -3.898  0.00  0.00    +0.180 A 
ATOM     25  C   LIG    1       -2.665  -5.943  -4.795  0.00  0.00    -0.010 A 
BRANCH  20  27
ATOM     26  C   LIG    1       -2.404  -5.345  -8.399  0.00  0.00    +0.250 C 
ATOM     27  O   LIG    1       -2.021  -5.426  -7.024  0.00  0.00    -0.310 OA
ENDBRANCH  20  27
ENDBRANCH  16  24
ENDBRANCH  15  18
ENDBRANCH   1  15
TORSDOF 5
