REMARK  Name = ZINCwl0000000izM.1
REMARK                            x       y       z     vdW  Elec       q    Type
REMARK                         _______ _______ _______ _____ _____    ______ ____
ROOT
ATOM      1  C   LIG    1       -3.396  -4.214   1.758  0.00  0.00    +0.500 C 
ATOM      2  N   LIG    1       -3.513  -2.876   1.868  0.00  0.00    -0.580 N 
ATOM      3  C   LIG    1       -3.684  -2.038   0.674  0.00  0.00    +0.300 C 
ATOM      4  C   LIG    1       -2.610  -0.946   0.679  0.00  0.00    +0.030 C 
ATOM      5  C   LIG    1       -2.677  -0.177   2.001  0.00  0.00    +0.030 C 
ATOM      6  C   LIG    1       -2.400  -1.133   3.164  0.00  0.00    +0.020 C 
ATOM      7  C   LIG    1       -3.472  -2.228   3.186  0.00  0.00    +0.270 C 
ATOM      8  O   LIG    1       -3.390  -4.734   0.661  0.00  0.00    -0.510 OA
ENDROOT
BRANCH   1  13
ATOM      9  N   LIG    1       -4.271  -6.151   2.958  0.00  0.00    -0.380 N 
ATOM     10  C   LIG    1       -3.558  -7.445   2.956  0.00  0.00    +0.270 C 
ATOM     11  C   LIG    1       -2.183  -7.140   3.603  0.00  0.00    +0.080 C 
ATOM     12  C   LIG    1       -1.879  -5.722   3.045  0.00  0.00    +0.100 C 
ATOM     13  C   LIG    1       -3.274  -5.065   2.995  0.00  0.00    +0.150 C 
ATOM     14  H   LIG    1       -4.866  -6.094   3.772  0.00  0.00    +0.430 HD
BRANCH   9  15
ATOM     15  C   LIG    1       -5.085  -6.033   1.741  0.00  0.00    +0.430 C 
BRANCH  15  17
ATOM     16  C   LIG    1       -7.072  -7.777   1.836  0.00  0.00    +0.180 C 
ATOM     17  C   LIG    1       -6.191  -7.003   1.794  0.00  0.00    -0.290 C 
ENDBRANCH  15  17
ENDBRANCH   9  15
ENDBRANCH   1  13
BRANCH   5  18
ATOM     18  C   LIG    1       -1.629   0.937   1.996  0.00  0.00    -0.100 C 
ATOM     19  C   LIG    1       -1.982   2.115   1.073  0.00  0.00    +0.060 C 
ATOM     20  C   LIG    1       -2.714   2.735   2.274  0.00  0.00    +0.020 C 
ATOM     21  C   LIG    1       -1.768   1.919   3.171  0.00  0.00    +0.040 C 
BRANCH  18  22
ATOM     22  C   LIG    1       -0.226   0.420   1.805  0.00  0.00    +0.530 C 
ATOM     23  N   LIG    1        0.434  -0.137   2.840  0.00  0.00    -0.730 N 
ATOM     24  H   LIG    1        0.035  -0.141   3.724  0.00  0.00    +0.410 HD
ATOM     25  O   LIG    1        0.311   0.510   0.721  0.00  0.00    -0.530 OA
BRANCH  23  26
ATOM     26  C   LIG    1        1.753  -0.738   2.629  0.00  0.00    +0.340 C 
BRANCH  26  27
ATOM     27  C   LIG    1        2.226  -1.398   3.925  0.00  0.00    -0.660 C 
ATOM     28  C   LIG    1        2.757  -2.830   3.836  0.00  0.00    +0.130 C 
ATOM     29  C   LIG    1        1.391  -2.559   4.472  0.00  0.00    +0.110 C 
BRANCH  27  30
ATOM     30  S   LIG    1        3.007  -0.289   5.129  0.00  0.00    +2.440 S 
ATOM     31  O   LIG    1        3.555  -1.074   6.179  0.00  0.00    -0.930 OA
ATOM     32  O   LIG    1        2.093   0.752   5.446  0.00  0.00    -0.930 OA
BRANCH  30  33
ATOM     33  C   LIG    1        4.371   0.413   4.161  0.00  0.00    -0.340 C 
ATOM     34  C   LIG    1        5.235   1.297   5.064  0.00  0.00    +0.090 C 
ENDBRANCH  30  33
ENDBRANCH  27  30
ENDBRANCH  26  27
ENDBRANCH  23  26
ENDBRANCH  18  22
ENDBRANCH   5  18
TORSDOF 9
