REMARK  Name = ZINCwl0000000izM.2
REMARK                            x       y       z     vdW  Elec       q    Type
REMARK                         _______ _______ _______ _____ _____    ______ ____
ROOT
ATOM      1  C   LIG    1       -1.880   8.033  -0.247  0.00  0.00    +0.510 C 
ATOM      2  N   LIG    1       -1.110   8.882  -0.956  0.00  0.00    -0.580 N 
ATOM      3  C   LIG    1       -1.332  10.333  -0.882  0.00  0.00    +0.270 C 
ATOM      4  C   LIG    1       -0.004  11.012  -0.512  0.00  0.00    +0.030 C 
ATOM      5  C   LIG    1        1.074  10.591  -1.514  0.00  0.00    +0.020 C 
ATOM      6  C   LIG    1        1.273   9.075  -1.445  0.00  0.00    +0.020 C 
ATOM      7  C   LIG    1       -0.036   8.375  -1.821  0.00  0.00    +0.300 C 
ATOM      8  O   LIG    1       -1.690   6.837  -0.321  0.00  0.00    -0.530 OA
ENDROOT
BRANCH   1  13
ATOM      9  N   LIG    1       -3.674   7.453   1.302  0.00  0.00    -0.380 N 
ATOM     10  C   LIG    1       -3.548   7.630   2.765  0.00  0.00    +0.270 C 
ATOM     11  C   LIG    1       -2.276   8.490   2.953  0.00  0.00    +0.090 C 
ATOM     12  C   LIG    1       -2.373   9.457   1.744  0.00  0.00    +0.100 C 
ATOM     13  C   LIG    1       -2.977   8.569   0.636  0.00  0.00    +0.170 C 
ATOM     14  H   LIG    1       -3.254   6.578   1.028  0.00  0.00    +0.430 HD
BRANCH   9  15
ATOM     15  C   LIG    1       -5.094   7.461   0.924  0.00  0.00    +0.430 C 
BRANCH  15  17
ATOM     16  C   LIG    1       -6.289   5.330   1.938  0.00  0.00    +0.190 C 
ATOM     17  C   LIG    1       -5.759   6.275   1.488  0.00  0.00    -0.300 C 
ENDBRANCH  15  17
ENDBRANCH   9  15
ENDBRANCH   1  13
BRANCH   5  18
ATOM     18  C   LIG    1        2.389  11.294  -1.172  0.00  0.00    -0.100 C 
ATOM     19  C   LIG    1        2.742  11.247   0.324  0.00  0.00    +0.050 C 
ATOM     20  C   LIG    1        3.220  12.703   0.176  0.00  0.00    +0.010 C 
ATOM     21  C   LIG    1        2.250  12.818  -1.012  0.00  0.00    +0.040 C 
BRANCH  18  22
ATOM     22  C   LIG    1        3.524  10.883  -2.073  0.00  0.00    +0.540 C 
ATOM     23  N   LIG    1        3.488  11.190  -3.385  0.00  0.00    -0.730 N 
ATOM     24  H   LIG    1        2.770  11.739  -3.735  0.00  0.00    +0.400 HD
ATOM     25  O   LIG    1        4.470  10.275  -1.618  0.00  0.00    -0.530 OA
BRANCH  23  26
ATOM     26  C   LIG    1        4.535  10.694  -4.282  0.00  0.00    +0.350 C 
BRANCH  26  27
ATOM     27  C   LIG    1        4.196  11.080  -5.723  0.00  0.00    -0.670 C 
ATOM     28  C   LIG    1        5.293  11.753  -6.551  0.00  0.00    +0.130 C 
ATOM     29  C   LIG    1        4.100  12.572  -6.051  0.00  0.00    +0.120 C 
BRANCH  27  30
ATOM     30  S   LIG    1        3.063   9.958  -6.589  0.00  0.00    +2.450 S 
ATOM     31  O   LIG    1        2.852  10.453  -7.904  0.00  0.00    -0.930 OA
ATOM     32  O   LIG    1        1.942   9.712  -5.752  0.00  0.00    -0.930 OA
BRANCH  30  33
ATOM     33  C   LIG    1        4.049   8.439  -6.694  0.00  0.00    -0.340 C 
ATOM     34  C   LIG    1        3.293   7.396  -7.519  0.00  0.00    +0.090 C 
ENDBRANCH  30  33
ENDBRANCH  27  30
ENDBRANCH  26  27
ENDBRANCH  23  26
ENDBRANCH  18  22
ENDBRANCH   5  18
TORSDOF 9
