REMARK  Name = ZINCrD0000074lAp.0
REMARK                            x       y       z     vdW  Elec       q    Type
REMARK                         _______ _______ _______ _____ _____    ______ ____
ROOT
ATOM      1  C   LIG    1       -7.685  -3.042  -0.113  0.00  0.00    +0.270 C 
ENDROOT
BRANCH   1   2
ATOM      2  C   LIG    1       -6.305  -2.481  -0.334  0.00  0.00    +0.520 C 
ATOM      3  N   LIG    1       -5.266  -3.312  -0.550  0.00  0.00    -0.670 N 
ATOM      4  H   LIG    1       -5.418  -4.266  -0.637  0.00  0.00    +0.420 HD
ATOM      5  O   LIG    1       -6.128  -1.281  -0.318  0.00  0.00    -0.490 OA
BRANCH   3   6
ATOM      6  C   LIG    1       -3.966  -2.797  -0.649  0.00  0.00    +0.120 A 
ATOM      7  C   LIG    1       -3.565  -1.760   0.181  0.00  0.00    +0.060 A 
ATOM      8  C   LIG    1       -2.284  -1.253   0.083  0.00  0.00    +0.030 A 
ATOM      9  C   LIG    1       -1.399  -1.780  -0.846  0.00  0.00    +0.100 A 
ATOM     10  C   LIG    1       -1.801  -2.813  -1.680  0.00  0.00    -0.030 A 
ATOM     11  C   LIG    1       -3.079  -3.325  -1.578  0.00  0.00    +0.040 A 
BRANCH   9  12
ATOM     12  O   LIG    1       -0.138  -1.281  -0.943  0.00  0.00    -0.320 OA
BRANCH  12  13
ATOM     13  C   LIG    1        0.721  -1.871  -1.921  0.00  0.00    +0.590 C 
ATOM     14  F   LIG    1        0.157  -1.716  -3.191  0.00  0.00    -0.200 F 
ATOM     15  F   LIG    1        0.877  -3.233  -1.643  0.00  0.00    -0.200 F 
ENDBRANCH  12  13
ENDBRANCH   9  12
ENDBRANCH   3   6
ENDBRANCH   1   2
BRANCH   1  16
ATOM     16  O   LIG    1       -8.623  -1.954   0.096  0.00  0.00    -0.330 OA
BRANCH  16  17
ATOM     17  C   LIG    1       -9.911  -2.288   0.309  0.00  0.00    +0.520 C 
ATOM     18  O   LIG    1      -10.241  -3.457   0.321  0.00  0.00    -0.480 OA
BRANCH  17  21
ATOM     19  C   LIG    1      -12.710  -3.000   0.470  0.00  0.00    +0.150 C 
ATOM     20  C   LIG    1      -12.275  -1.564   0.608  0.00  0.00    +0.050 A 
ATOM     21  C   LIG    1      -10.921  -1.233   0.529  0.00  0.00    -0.140 A 
ATOM     22  C   LIG    1      -10.526   0.101   0.654  0.00  0.00    +0.160 A 
ATOM     23  C   LIG    1      -11.475   1.081   0.859  0.00  0.00    +0.020 A 
ATOM     24  C   LIG    1      -12.815   0.745   0.941  0.00  0.00    +0.150 A 
ATOM     25  C   LIG    1      -13.213  -0.574   0.818  0.00  0.00    -0.060 A 
BRANCH  25  26
ATOM     26  N   LIG    1      -14.648  -0.924   0.907  0.00  0.00    +0.030 N 
ATOM     27  O   LIG    1      -14.990  -2.092   0.926  0.00  0.00    -0.150 OA
ATOM     28  O   LIG    1      -15.487  -0.043   0.962  0.00  0.00    -0.160 OA
ENDBRANCH  25  26
ENDBRANCH  17  21
ENDBRANCH  16  17
ENDBRANCH   1  16
TORSDOF 8
