REMARK  Name = ZINCpk000000nkp5.0
REMARK                            x       y       z     vdW  Elec       q    Type
REMARK                         _______ _______ _______ _____ _____    ______ ____
ROOT
ATOM      1  C   LIG    1       -0.105   1.517  -0.100  0.00  0.00    -0.010 A 
ATOM      2  C   LIG    1        0.974   2.333  -0.073  0.00  0.00    +0.140 A 
ATOM      3  N   LIG    1        0.491   3.597  -0.059  0.00  0.00    -0.300 N 
ATOM      4  N   LIG    1       -0.795   3.537  -0.076  0.00  0.00    -0.080 NA
ATOM      5  N   LIG    1       -1.182   2.311  -0.107  0.00  0.00    -0.240 NA
ENDROOT
BRANCH   1   6
ATOM      6  C   LIG    1       -0.096   0.010  -0.124  0.00  0.00    +0.110 C 
BRANCH   6   7
ATOM      7  C   LIG    1       -0.936  -0.524   1.038  0.00  0.00    +0.220 C 
BRANCH   7   9
ATOM      8  C   LIG    1        0.637  -2.448   1.290  0.00  0.00    +0.030 C 
ATOM      9  C   LIG    1       -0.826  -2.049   1.088  0.00  0.00    -0.100 C 
ATOM     10  C   LIG    1       -1.339  -2.641  -0.226  0.00  0.00    +0.030 C 
ATOM     11  C   LIG    1       -1.665  -2.583   2.251  0.00  0.00    +0.020 C 
ENDBRANCH   7   9
BRANCH   7  12
ATOM     12  O   LIG    1       -2.303  -0.151   0.849  0.00  0.00    -0.540 OA
ATOM     13  H   LIG    1       -2.694  -0.492   0.034  0.00  0.00    +0.370 HD
ENDBRANCH   7  12
ENDBRANCH   6   7
ENDBRANCH   1   6
BRANCH   3  14
ATOM     14  C   LIG    1        1.293   4.822  -0.028  0.00  0.00    +0.350 C 
BRANCH  14  15
ATOM     15  C   LIG    1        0.896   5.721  -1.200  0.00  0.00    +0.180 C 
BRANCH  15  16
ATOM     16  C   LIG    1        1.640   7.028  -1.106  0.00  0.00    +0.250 A 
ATOM     17  N   LIG    1        1.284   8.074  -0.406  0.00  0.00    -0.310 NA
ATOM     18  N   LIG    1        2.141   9.022  -0.541  0.00  0.00    -0.030 NA
ATOM     19  N   LIG    1        3.089   8.655  -1.334  0.00  0.00    -0.070 NA
ATOM     20  N   LIG    1        2.796   7.339  -1.732  0.00  0.00    -0.330 N 
BRANCH  20  21
ATOM     21  C   LIG    1        3.544   6.523  -2.594  0.00  0.00    +0.120 A 
ATOM     22  C   LIG    1        4.926   6.469  -2.475  0.00  0.00    +0.050 A 
ATOM     23  C   LIG    1        5.659   5.661  -3.322  0.00  0.00    +0.040 A 
ATOM     24  C   LIG    1        5.019   4.915  -4.294  0.00  0.00    +0.040 A 
ATOM     25  C   LIG    1        3.643   4.971  -4.418  0.00  0.00    +0.040 A 
ATOM     26  C   LIG    1        2.904   5.773  -3.571  0.00  0.00    +0.020 A 
ENDBRANCH  20  21
ENDBRANCH  15  16
ENDBRANCH  14  15
ENDBRANCH   3  14
TORSDOF 8
