REMARK  Name = ZINCqH0000050uLr.0
REMARK                            x       y       z     vdW  Elec       q    Type
REMARK                         _______ _______ _______ _____ _____    ______ ____
ROOT
ATOM      1  N   LIG    1        4.092   2.540  -0.346  0.00  0.00    -0.670 N 
ATOM      2  H   LIG    1        4.277   3.293   0.237  0.00  0.00    +0.420 HD
ATOM      3  C   LIG    1        5.108   1.861  -0.914  0.00  0.00    +0.510 C 
ATOM      4  O   LIG    1        4.876   0.954  -1.685  0.00  0.00    -0.490 OA
ENDROOT
BRANCH   1  10
ATOM      5  C   LIG    1        0.673  -0.986  -0.573  0.00  0.00    +0.120 C 
ATOM      6  C   LIG    1        1.085   0.456  -0.719  0.00  0.00    -0.020 A 
ATOM      7  C   LIG    1        0.154   1.406  -1.097  0.00  0.00    +0.020 A 
ATOM      8  C   LIG    1        0.526   2.732  -1.226  0.00  0.00    +0.120 A 
ATOM      9  C   LIG    1        1.831   3.111  -0.978  0.00  0.00    -0.070 A 
ATOM     10  C   LIG    1        2.769   2.159  -0.598  0.00  0.00    +0.220 A 
ATOM     11  C   LIG    1        2.391   0.829  -0.469  0.00  0.00    -0.080 A 
ATOM     12  C   LIG    1        3.406  -0.206  -0.057  0.00  0.00    +0.120 C 
BRANCH   9  13
ATOM     13  N   LIG    1        2.229   4.529  -1.117  0.00  0.00    +0.040 N 
ATOM     14  O   LIG    1        3.357   4.878  -0.815  0.00  0.00    -0.170 OA
ATOM     15  O   LIG    1        1.429   5.348  -1.533  0.00  0.00    -0.160 OA
ENDBRANCH   9  13
ENDBRANCH   1  10
BRANCH   3  16
ATOM     16  C   LIG    1        6.533   2.229  -0.590  0.00  0.00    +0.220 C 
BRANCH  16  17
ATOM     17  N   LIG    1        7.443   1.261  -1.218  0.00  0.00    -0.510 NA
ATOM     18  C   LIG    1        7.399  -0.031  -0.521  0.00  0.00    +0.190 C 
BRANCH  17  19
ATOM     19  C   LIG    1        8.815   1.785  -1.270  0.00  0.00    +0.170 C 
ATOM     20  C   LIG    1        8.884   3.012  -2.203  0.00  0.00    +0.040 C 
ATOM     21  C   LIG    1        9.268   2.374  -3.558  0.00  0.00    +0.080 C 
ATOM     22  C   LIG    1       10.006   1.101  -3.201  0.00  0.00    -0.080 A 
ATOM     23  C   LIG    1       10.838   0.301  -3.966  0.00  0.00    +0.010 A 
ATOM     24  C   LIG    1       11.408  -0.832  -3.420  0.00  0.00    +0.010 A 
ATOM     25  C   LIG    1       11.148  -1.170  -2.105  0.00  0.00    -0.010 A 
ATOM     26  C   LIG    1       10.317  -0.374  -1.340  0.00  0.00    +0.020 A 
ATOM     27  C   LIG    1        9.745   0.762  -1.886  0.00  0.00    -0.090 A 
ENDBRANCH  17  19
ENDBRANCH  16  17
ENDBRANCH   3  16
TORSDOF 5
