REMARK  Name = ZINCnE00000rhnCL.0
REMARK                            x       y       z     vdW  Elec       q    Type
REMARK                         _______ _______ _______ _____ _____    ______ ____
ROOT
ATOM      1  N   LIG    1        4.885  -4.263  -0.068  0.00  0.00    -0.700 N 
ATOM      2  H   LIG    1        4.037  -4.735  -0.062  0.00  0.00    +0.380 HD
ATOM      3  C   LIG    1        4.907  -2.916  -0.061  0.00  0.00    +0.550 C 
ATOM      4  O   LIG    1        5.970  -2.324  -0.068  0.00  0.00    -0.520 OA
ENDROOT
BRANCH   1   5
ATOM      5  C   LIG    1        6.141  -5.016  -0.084  0.00  0.00    +0.110 C 
ATOM      6  C   LIG    1        6.938  -4.653  -1.339  0.00  0.00    +0.030 C 
BRANCH   5   8
ATOM      7  C   LIG    1        5.127  -6.888  -1.392  0.00  0.00    +0.010 C 
ATOM      8  C   LIG    1        5.838  -6.516  -0.089  0.00  0.00    -0.020 C 
ATOM      9  C   LIG    1        7.146  -7.301   0.020  0.00  0.00    +0.030 C 
ENDBRANCH   5   8
BRANCH   5  10
ATOM     10  C   LIG    1        6.949  -4.671   1.141  0.00  0.00    +0.500 C 
ATOM     11  O   LIG    1        8.037  -5.193   1.321  0.00  0.00    -0.690 OA
ATOM     12  O   LIG    1        6.515  -3.871   1.952  0.00  0.00    -0.680 OA
ENDBRANCH   5  10
ENDBRANCH   1   5
BRANCH   3  13
ATOM     13  C   LIG    1        3.652  -2.164  -0.045  0.00  0.00    -0.050 C 
ATOM     14  C   LIG    1        3.674  -0.813  -0.038  0.00  0.00    +0.080 C 
BRANCH  14  15
ATOM     15  C   LIG    1        2.415  -0.059  -0.022  0.00  0.00    -0.040 A 
ATOM     16  C   LIG    1        1.190  -0.721  -0.014  0.00  0.00    +0.020 A 
ATOM     17  C   LIG    1        0.002  -0.004   0.002  0.00  0.00    +0.010 A 
ATOM     18  C   LIG    1       -0.016   1.357   0.009  0.00  0.00    +0.010 A 
ATOM     19  C   LIG    1        1.182   2.091   0.002  0.00  0.00    -0.050 A 
ATOM     20  C   LIG    1        1.178   3.497   0.011  0.00  0.00    +0.020 A 
ATOM     21  C   LIG    1        2.360   4.173   0.004  0.00  0.00    +0.000 A 
ATOM     22  C   LIG    1        3.575   3.494  -0.012  0.00  0.00    +0.000 A 
ATOM     23  C   LIG    1        3.615   2.131  -0.020  0.00  0.00    +0.030 A 
ATOM     24  C   LIG    1        2.420   1.404  -0.013  0.00  0.00    -0.040 A 
ENDBRANCH  14  15
ENDBRANCH   3  13
TORSDOF 5
