REMARK  Name = ZINCpk00000kUAT2.0
REMARK                            x       y       z     vdW  Elec       q    Type
REMARK                         _______ _______ _______ _____ _____    ______ ____
ROOT
ATOM      1  C   LIG    1        1.690   3.182   0.870  0.00  0.00    +0.290 C 
ENDROOT
BRANCH   1   5
ATOM      2  C   LIG    1        1.207  -0.335   0.918  0.00  0.00    +0.100 C 
ATOM      3  C   LIG    1        0.002  -0.004   0.002  0.00  0.00    +0.020 C 
ATOM      4  C   LIG    1       -0.019   1.545   0.011  0.00  0.00    +0.170 C 
ATOM      5  C   LIG    1        1.471   1.943  -0.002  0.00  0.00    +0.000 C 
ATOM      6  C   LIG    1        2.251   0.748   0.575  0.00  0.00    +0.060 C 
BRANCH   2  12
ATOM      7  C   LIG    1        1.468  -2.758   2.881  0.00  0.00    +0.340 C 
ATOM      8  N   LIG    1        1.853  -2.744   1.468  0.00  0.00    -0.480 N 
ATOM      9  C   LIG    1        2.387  -3.768   0.759  0.00  0.00    +0.370 A 
ATOM     10  N   LIG    1        2.580  -3.338  -0.458  0.00  0.00    -0.300 NA
ATOM     11  N   LIG    1        2.195  -2.115  -0.552  0.00  0.00    -0.290 NA
ATOM     12  C   LIG    1        1.747  -1.706   0.604  0.00  0.00    +0.180 A 
ENDBRANCH   2  12
BRANCH   4  13
ATOM     13  O   LIG    1       -0.657   2.030   1.194  0.00  0.00    -0.550 OA
ATOM     14  H   LIG    1       -1.581   1.759   1.282  0.00  0.00    +0.380 HD
ENDBRANCH   4  13
ENDBRANCH   1   5
BRANCH   1  15
ATOM     15  N   LIG    1        1.014   4.331   0.264  0.00  0.00    -0.720 N 
ATOM     16  H   LIG    1        0.526   4.224  -0.568  0.00  0.00    +0.390 HD
ATOM     17  C   LIG    1        1.070   5.538   0.861  0.00  0.00    +0.590 C 
ATOM     18  O   LIG    1        1.682   5.673   1.904  0.00  0.00    -0.540 OA
BRANCH  17  19
ATOM     19  C   LIG    1        0.391   6.694   0.252  0.00  0.00    -0.230 A 
ATOM     20  C   LIG    1       -0.328   6.705  -0.912  0.00  0.00    +0.280 A 
ATOM     21  N   LIG    1       -0.786   7.954  -1.117  0.00  0.00    -0.530 N 
ATOM     22  H   LIG    1       -1.327   8.229  -1.873  0.00  0.00    +0.430 HD
ATOM     23  C   LIG    1       -0.377   8.779  -0.110  0.00  0.00    -0.100 A 
ATOM     24  C   LIG    1        0.352   8.066   0.767  0.00  0.00    +0.100 A 
BRANCH  23  25
ATOM     25  C   LIG    1       -0.691  10.249   0.002  0.00  0.00    +0.540 C 
ATOM     26  F   LIG    1        0.501  10.981   0.012  0.00  0.00    -0.170 F 
ATOM     27  F   LIG    1       -1.395  10.487   1.187  0.00  0.00    -0.170 F 
ATOM     28  F   LIG    1       -1.471  10.643  -1.091  0.00  0.00    -0.180 F 
ENDBRANCH  23  25
ENDBRANCH  17  19
ENDBRANCH   1  15
TORSDOF 6
