REMARK  Name = ZINCqH0000000oxu.0
REMARK                            x       y       z     vdW  Elec       q    Type
REMARK                         _______ _______ _______ _____ _____    ______ ____
ROOT
ATOM      1  C   LIG    1       -6.187  -1.196   0.069  0.00  0.00    +0.280 C 
ATOM      2  C   LIG    1       -6.504  -1.690   1.481  0.00  0.00    +0.040 C 
ENDROOT
BRANCH   1   3
ATOM      3  C   LIG    1       -4.888  -0.432   0.083  0.00  0.00    -0.090 A 
ATOM      4  C   LIG    1       -4.901   0.951   0.103  0.00  0.00    +0.030 A 
ATOM      5  C   LIG    1       -3.714   1.655   0.116  0.00  0.00    +0.020 A 
ATOM      6  C   LIG    1       -2.501   0.970   0.109  0.00  0.00    -0.040 A 
ATOM      7  C   LIG    1       -2.493  -0.424   0.083  0.00  0.00    +0.020 A 
ATOM      8  C   LIG    1       -3.686  -1.117   0.075  0.00  0.00    +0.010 A 
BRANCH   6   9
ATOM      9  C   LIG    1       -1.221   1.721   0.123  0.00  0.00    -0.050 A 
ATOM     10  C   LIG    1       -0.008   1.036   0.117  0.00  0.00    +0.020 A 
ATOM     11  C   LIG    1        1.179   1.740   0.124  0.00  0.00    +0.010 A 
ATOM     12  C   LIG    1        1.166   3.123   0.143  0.00  0.00    +0.000 A 
ATOM     13  C   LIG    1       -0.036   3.808   0.156  0.00  0.00    +0.010 A 
ATOM     14  C   LIG    1       -1.229   3.114   0.150  0.00  0.00    +0.020 A 
ENDBRANCH   6   9
ENDBRANCH   1   3
BRANCH   1  16
ATOM     15  C   LIG    1       -7.173  -2.866  -1.406  0.00  0.00    +0.520 C 
ATOM     16  N   LIG    1       -6.070  -2.342  -0.836  0.00  0.00    -0.730 N 
ATOM     17  H   LIG    1       -5.199  -2.724  -1.024  0.00  0.00    +0.400 HD
ATOM     18  O   LIG    1       -8.263  -2.389  -1.170  0.00  0.00    -0.530 OA
BRANCH  15  25
ATOM     19  C   LIG    1       -5.353  -8.367  -3.506  0.00  0.00    +0.100 C 
ATOM     20  C   LIG    1       -5.306  -7.091  -2.705  0.00  0.00    +0.510 C 
ATOM     21  N   LIG    1       -6.441  -6.404  -2.465  0.00  0.00    -0.610 N 
ATOM     22  C   LIG    1       -7.710  -6.818  -3.078  0.00  0.00    +0.270 C 
ATOM     23  C   LIG    1       -8.318  -5.618  -3.812  0.00  0.00    +0.010 C 
ATOM     24  C   LIG    1       -8.442  -4.441  -2.842  0.00  0.00    +0.050 C 
ATOM     25  C   LIG    1       -7.053  -4.046  -2.336  0.00  0.00    -0.020 C 
ATOM     26  C   LIG    1       -6.431  -5.228  -1.585  0.00  0.00    +0.290 C 
ATOM     27  O   LIG    1       -4.248  -6.683  -2.277  0.00  0.00    -0.550 OA
ENDBRANCH  15  25
ENDBRANCH   1  16
TORSDOF 4
