REMARK  Name = ZINCb80000002Be6.0
REMARK                            x       y       z     vdW  Elec       q    Type
REMARK                         _______ _______ _______ _____ _____    ______ ____
ROOT
ATOM      1  C   LIG    1        1.181   1.788   0.000  0.00  0.00    +0.220 A 
ATOM      2  C   LIG    1        1.157   3.176   0.008  0.00  0.00    -0.080 A 
ATOM      3  C   LIG    1       -0.051   3.845   0.022  0.00  0.00    +0.050 A 
ATOM      4  C   LIG    1       -1.237   3.134   0.029  0.00  0.00    -0.050 A 
ATOM      5  C   LIG    1       -1.217   1.751   0.017  0.00  0.00    -0.070 A 
ATOM      6  C   LIG    1       -0.013   1.076   0.008  0.00  0.00    -0.070 A 
ENDROOT
BRANCH   1   7
ATOM      7  N   LIG    1        2.401   1.108  -0.015  0.00  0.00    -0.880 N 
ATOM      8  H   LIG    1        3.233   1.606  -0.020  0.00  0.00    +0.400 HD
ATOM      9  H   LIG    1        2.416   0.138  -0.020  0.00  0.00    +0.400 HD
ENDBRANCH   1   7
BRANCH   5  10
ATOM     10  C   LIG    1       -2.512   0.980   0.019  0.00  0.00    +0.260 C 
BRANCH  10  11
ATOM     11  O   LIG    1       -3.453   1.627  -0.839  0.00  0.00    -0.540 OA
ATOM     12  H   LIG    1       -3.662   2.535  -0.580  0.00  0.00    +0.370 HD
ENDBRANCH  10  11
BRANCH  10  13
ATOM     13  C   LIG    1       -3.072   0.926   1.442  0.00  0.00    +0.160 C 
BRANCH  13  14
ATOM     14  O   LIG    1       -4.236   0.098   1.465  0.00  0.00    -0.560 OA
ATOM     15  H   LIG    1       -4.645   0.018   2.338  0.00  0.00    +0.380 HD
ENDBRANCH  13  14
ENDBRANCH  10  13
ENDBRANCH   5  10
TORSDOF 5
