REMARK  Name = ZINCqH00000098BD.0
REMARK                            x       y       z     vdW  Elec       q    Type
REMARK                         _______ _______ _______ _____ _____    ______ ____
ROOT
ATOM      1  N   LIG    1       -3.026   2.707   1.691  0.00  0.00    -0.720 N 
ATOM      2  H   LIG    1       -3.566   3.048   0.961  0.00  0.00    +0.410 HD
ATOM      3  C   LIG    1       -1.829   2.141   1.438  0.00  0.00    +0.510 C 
ATOM      4  O   LIG    1       -1.154   1.715   2.350  0.00  0.00    -0.520 OA
ENDROOT
BRANCH   1   6
ATOM      5  C   LIG    1       -2.940   4.070   3.720  0.00  0.00    +0.060 C 
ATOM      6  C   LIG    1       -3.510   2.808   3.070  0.00  0.00    +0.350 C 
BRANCH   6   7
ATOM      7  C   LIG    1       -5.016   2.880   3.069  0.00  0.00    +0.020 A 
ATOM      8  C   LIG    1       -5.814   2.255   3.946  0.00  0.00    -0.020 A 
ATOM      9  C   LIG    1       -7.189   2.607   3.570  0.00  0.00    -0.130 A 
ATOM     10  C   LIG    1       -8.448   2.289   4.074  0.00  0.00    +0.060 A 
ATOM     11  C   LIG    1       -9.574   2.798   3.465  0.00  0.00    +0.000 A 
ATOM     12  C   LIG    1       -9.456   3.623   2.356  0.00  0.00    +0.050 A 
ATOM     13  C   LIG    1       -8.216   3.945   1.847  0.00  0.00    +0.020 A 
ATOM     14  C   LIG    1       -7.069   3.442   2.446  0.00  0.00    +0.060 A 
ATOM     15  O   LIG    1       -5.752   3.576   2.186  0.00  0.00    -0.190 OA
ENDBRANCH   6   7
ENDBRANCH   1   6
BRANCH   3  16
ATOM     16  C   LIG    1       -1.330   2.037   0.019  0.00  0.00    +0.330 C 
BRANCH  16  17
ATOM     17  N   LIG    1       -0.017   1.389   0.010  0.00  0.00    -0.530 N 
ATOM     18  C   LIG    1        0.001   0.058  -0.004  0.00  0.00    +0.530 C 
ATOM     19  C   LIG    1        1.266  -0.754  -0.025  0.00  0.00    +0.150 C 
ATOM     20  S   LIG    1        2.515   0.121  -1.014  0.00  0.00    -0.080 S 
ATOM     21  C   LIG    1        2.346   1.776  -0.424  0.00  0.00    -0.130 A 
ATOM     22  C   LIG    1        3.441   2.623  -0.405  0.00  0.00    +0.080 A 
ATOM     23  C   LIG    1        3.303   3.918   0.061  0.00  0.00    +0.010 A 
ATOM     24  C   LIG    1        2.073   4.364   0.506  0.00  0.00    +0.050 A 
ATOM     25  C   LIG    1        0.976   3.523   0.488  0.00  0.00    -0.010 A 
ATOM     26  O   LIG    1       -1.059  -0.531  -0.000  0.00  0.00    -0.510 OA
ATOM     27  C   LIG    1        1.101   2.220   0.022  0.00  0.00    +0.170 A 
ENDBRANCH  16  17
ENDBRANCH   3  16
TORSDOF 4
