REMARK  Name = ZINCpe000000WUKq.0
REMARK                            x       y       z     vdW  Elec       q    Type
REMARK                         _______ _______ _______ _____ _____    ______ ____
ROOT
ATOM      1  S   LIG    1       -1.468   2.394   0.243  0.00  0.00    +2.720 S 
ATOM      2  O   LIG    1       -0.800   3.630   0.458  0.00  0.00    -0.930 OA
ATOM      3  O   LIG    1       -2.270   1.761   1.230  0.00  0.00    -0.960 OA
ENDROOT
BRANCH   1   5
ATOM      4  C   LIG    1        0.708   1.465  -1.179  0.00  0.00    -0.160 A 
ATOM      5  C   LIG    1       -0.225   1.229  -0.209  0.00  0.00    -0.620 A 
ATOM      6  C   LIG    1       -0.094  -0.005   0.382  0.00  0.00    +0.080 A 
ATOM      7  C   LIG    1        0.910  -0.755  -0.085  0.00  0.00    -0.060 A 
ATOM      8  S   LIG    1        1.762   0.064  -1.316  0.00  0.00    +0.260 S 
BRANCH   4  11
ATOM      9  N   LIG    1        1.852   2.857  -2.821  0.00  0.00    -0.710 N 
ATOM     10  H   LIG    1        2.529   2.166  -2.900  0.00  0.00    +0.400 HD
ATOM     11  C   LIG    1        0.814   2.690  -1.978  0.00  0.00    +0.570 C 
ATOM     12  O   LIG    1       -0.035   3.556  -1.879  0.00  0.00    -0.500 OA
BRANCH   9  13
ATOM     13  C   LIG    1        1.958   4.081  -3.619  0.00  0.00    +0.250 C 
BRANCH  13  15
ATOM     14  C   LIG    1        3.328   5.295  -5.319  0.00  0.00    +0.020 C 
ATOM     15  C   LIG    1        3.218   4.017  -4.485  0.00  0.00    +0.200 C 
BRANCH  15  16
ATOM     16  O   LIG    1        4.368   3.895  -3.646  0.00  0.00    -0.560 OA
ATOM     17  H   LIG    1        4.483   4.629  -3.028  0.00  0.00    +0.380 HD
ENDBRANCH  15  16
ENDBRANCH  13  15
ENDBRANCH   9  13
ENDBRANCH   4  11
ENDBRANCH   1   5
BRANCH   1  18
ATOM     18  N   LIG    1       -2.440   2.612  -1.080  0.00  0.00    -1.090 NA
ATOM     19  H   LIG    1       -2.468   3.474  -1.524  0.00  0.00    +0.430 HD
BRANCH  18  20
ATOM     20  C   LIG    1       -3.257   1.503  -1.580  0.00  0.00    +0.240 C 
BRANCH  20  21
ATOM     21  C   LIG    1       -4.302   2.041  -2.559  0.00  0.00    +0.270 C 
BRANCH  21  22
ATOM     22  C   LIG    1       -5.142   0.900  -3.073  0.00  0.00    -0.120 A 
ATOM     23  C   LIG    1       -6.234   0.463  -2.346  0.00  0.00    +0.010 A 
ATOM     24  C   LIG    1       -7.007  -0.580  -2.819  0.00  0.00    +0.010 A 
ATOM     25  C   LIG    1       -6.684  -1.193  -4.015  0.00  0.00    +0.000 A 
ATOM     26  C   LIG    1       -5.589  -0.760  -4.740  0.00  0.00    +0.000 A 
ATOM     27  C   LIG    1       -4.818   0.287  -4.269  0.00  0.00    +0.010 A 
ENDBRANCH  21  22
BRANCH  21  28
ATOM     28  O   LIG    1       -5.139   2.986  -1.891  0.00  0.00    -0.550 OA
ATOM     29  H   LIG    1       -5.618   2.621  -1.134  0.00  0.00    +0.380 HD
ENDBRANCH  21  28
ENDBRANCH  20  21
ENDBRANCH  18  20
ENDBRANCH   1  18
TORSDOF 10
