REMARK  Name = ZINCrH000004tdtz.0
REMARK                            x       y       z     vdW  Elec       q    Type
REMARK                         _______ _______ _______ _____ _____    ______ ____
ROOT
ATOM      1  F   LIG    1        6.436   7.134  11.537  0.00  0.00    -0.150 F 
ATOM      2  C   LIG    1        6.121   5.918  12.155  0.00  0.00    +0.570 C 
ATOM      3  O   LIG    1        4.713   5.642  12.040  0.00  0.00    -0.280 OA
ATOM      4  C   LIG    1        4.576   4.915  10.890  0.00  0.00    +0.060 A 
ATOM      5  C   LIG    1        5.829   4.409  10.534  0.00  0.00    +0.020 A 
ATOM      6  C   LIG    1        5.959   3.633   9.400  0.00  0.00    +0.130 A 
ATOM      7  C   LIG    1        4.848   3.352   8.609  0.00  0.00    -0.190 A 
ATOM      8  S   LIG    1        4.689   2.405   7.131  0.00  0.00    +0.090 S 
ATOM      9  C   LIG    1        2.966   2.752   7.078  0.00  0.00    +0.390 A 
ATOM     10  N   LIG    1        2.625   3.486   8.081  0.00  0.00    -0.550 NA
ATOM     11  C   LIG    1        3.589   3.850   8.952  0.00  0.00    +0.160 A 
ATOM     12  C   LIG    1        3.472   4.641  10.115  0.00  0.00    +0.100 A 
ATOM     13  F   LIG    1        6.510   5.937  13.498  0.00  0.00    -0.110 F 
ATOM     14  O   LIG    1        6.744   4.822  11.460  0.00  0.00    -0.280 OA
ENDROOT
BRANCH   9  15
ATOM     15  N   LIG    1        2.100   2.297   6.103  0.00  0.00    -0.680 N 
ATOM     16  H   LIG    1        1.159   2.528   6.145  0.00  0.00    +0.420 HD
BRANCH  15  17
ATOM     17  C   LIG    1        2.603   1.467   5.006  0.00  0.00    +0.360 C 
BRANCH  17  18
ATOM     18  C   LIG    1        1.465   1.107   4.086  0.00  0.00    -0.270 A 
ATOM     19  C   LIG    1        1.058   1.817   3.008  0.00  0.00    +0.270 A 
ATOM     20  N   LIG    1        0.015   1.163   2.455  0.00  0.00    -0.360 N 
ATOM     21  N   LIG    1       -0.231   0.016   3.221  0.00  0.00    -0.290 NA
ATOM     22  C   LIG    1        0.642  -0.019   4.196  0.00  0.00    +0.260 A 
BRANCH  20  23
ATOM     23  C   LIG    1       -0.732   1.581   1.266  0.00  0.00    +0.270 C 
ATOM     24  C   LIG    1       -0.013   1.086   0.008  0.00  0.00    -0.000 C 
ATOM     25  C   LIG    1       -0.756   1.594  -1.230  0.00  0.00    +0.230 C 
ATOM     26  O   LIG    1       -0.824   3.021  -1.191  0.00  0.00    -0.380 OA
ATOM     27  C   LIG    1       -1.528   3.540  -0.061  0.00  0.00    +0.240 C 
ATOM     28  C   LIG    1       -0.817   3.110   1.224  0.00  0.00    -0.000 C 
ENDBRANCH  20  23
ENDBRANCH  17  18
ENDBRANCH  15  17
ENDBRANCH   9  15
TORSDOF 4
