REMARK  Name = ZINCrH000004tdtz.2
REMARK                            x       y       z     vdW  Elec       q    Type
REMARK                         _______ _______ _______ _____ _____    ______ ____
ROOT
ATOM      1  F   LIG    1        0.118  -0.078  14.025  0.00  0.00    -0.150 F 
ATOM      2  C   LIG    1        1.396   0.490  14.023  0.00  0.00    +0.570 C 
ATOM      3  O   LIG    1        1.376   1.779  13.381  0.00  0.00    -0.280 OA
ATOM      4  C   LIG    1        1.653   1.537  12.064  0.00  0.00    +0.080 A 
ATOM      5  C   LIG    1        1.464   2.311  10.937  0.00  0.00    +0.050 A 
ATOM      6  C   LIG    1        1.835   1.840   9.668  0.00  0.00    +0.180 A 
ATOM      7  C   LIG    1        2.397   0.568   9.587  0.00  0.00    -0.150 A 
ATOM      8  S   LIG    1        2.738   0.276   7.876  0.00  0.00    +0.020 S 
ATOM      9  C   LIG    1        2.135   1.850   7.331  0.00  0.00    +0.380 A 
ATOM     10  N   LIG    1        2.100   2.297   6.103  0.00  0.00    -0.530 NA
ATOM     11  C   LIG    1        2.588  -0.212  10.715  0.00  0.00    +0.160 A 
ATOM     12  N   LIG    1        1.709   2.496   8.452  0.00  0.00    -0.630 N 
ATOM     13  H   LIG    1        1.329   3.388   8.402  0.00  0.00    +0.420 HD
ATOM     14  C   LIG    1        2.217   0.267  11.959  0.00  0.00    +0.010 A 
ATOM     15  F   LIG    1        1.888   0.596  15.328  0.00  0.00    -0.110 F 
ATOM     16  O   LIG    1        2.293  -0.285  13.205  0.00  0.00    -0.280 OA
ENDROOT
BRANCH  10  17
ATOM     17  C   LIG    1        2.603   1.467   5.006  0.00  0.00    +0.310 C 
BRANCH  17  18
ATOM     18  C   LIG    1        1.465   1.107   4.086  0.00  0.00    -0.240 A 
ATOM     19  C   LIG    1        1.058   1.817   3.008  0.00  0.00    +0.250 A 
ATOM     20  N   LIG    1        0.015   1.163   2.455  0.00  0.00    -0.370 N 
ATOM     21  N   LIG    1       -0.231   0.016   3.221  0.00  0.00    -0.290 NA
ATOM     22  C   LIG    1        0.642  -0.019   4.196  0.00  0.00    +0.240 A 
BRANCH  20  23
ATOM     23  C   LIG    1       -0.732   1.581   1.266  0.00  0.00    +0.260 C 
ATOM     24  C   LIG    1       -0.013   1.086   0.008  0.00  0.00    -0.000 C 
ATOM     25  C   LIG    1       -0.756   1.594  -1.230  0.00  0.00    +0.220 C 
ATOM     26  O   LIG    1       -0.824   3.021  -1.191  0.00  0.00    -0.380 OA
ATOM     27  C   LIG    1       -1.528   3.540  -0.061  0.00  0.00    +0.240 C 
ATOM     28  C   LIG    1       -0.817   3.110   1.224  0.00  0.00    -0.000 C 
ENDBRANCH  20  23
ENDBRANCH  17  18
ENDBRANCH  10  17
TORSDOF 3
