REMARK  Name = ZINCtV00000tRR8i.0
REMARK                            x       y       z     vdW  Elec       q    Type
REMARK                         _______ _______ _______ _____ _____    ______ ____
ROOT
ATOM      1  C   LIG    1        3.198   1.556   0.407  0.00  0.00    +0.030 A 
ATOM      2  C   LIG    1        4.342   2.259   0.173  0.00  0.00    +0.070 A 
ATOM      3  C   LIG    1        5.349   1.317  -0.102  0.00  0.00    -0.030 A 
ATOM      4  C   LIG    1        4.775   0.090  -0.030  0.00  0.00    +0.180 A 
ATOM      5  O   LIG    1        3.477   0.242   0.277  0.00  0.00    -0.190 OA
ENDROOT
BRANCH   1  10
ATOM      6  C   LIG    1       -1.692   2.020   1.546  0.00  0.00    +0.150 C 
ATOM      7  C   LIG    1       -0.251   2.330   1.236  0.00  0.00    +0.020 A 
ATOM      8  C   LIG    1        0.316   3.564   1.173  0.00  0.00    +0.050 A 
ATOM      9  N   LIG    1        1.618   3.413   0.865  0.00  0.00    -0.440 NA
ATOM     10  C   LIG    1        1.886   2.130   0.738  0.00  0.00    +0.290 A 
ATOM     11  N   LIG    1        0.739   1.422   0.968  0.00  0.00    -0.560 N 
ATOM     12  H   LIG    1        0.643   0.457   0.942  0.00  0.00    +0.420 HD
BRANCH   8  13
ATOM     13  C   LIG    1       -0.381   4.854   1.400  0.00  0.00    -0.000 A 
ATOM     14  C   LIG    1        0.011   5.993   0.700  0.00  0.00    +0.040 A 
ATOM     15  C   LIG    1       -0.644   7.189   0.910  0.00  0.00    +0.000 A 
ATOM     16  C   LIG    1       -1.681   7.261   1.823  0.00  0.00    +0.000 A 
ATOM     17  C   LIG    1       -2.071   6.135   2.525  0.00  0.00    +0.000 A 
ATOM     18  C   LIG    1       -1.426   4.933   2.318  0.00  0.00    +0.010 A 
ENDBRANCH   8  13
ENDBRANCH   1  10
BRANCH   4  19
ATOM     19  O   LIG    1        5.407  -1.092  -0.235  0.00  0.00    -0.180 OA
BRANCH  19  20
ATOM     20  C   LIG    1        4.659  -2.227  -0.219  0.00  0.00    +0.090 A 
ATOM     21  C   LIG    1        3.278  -2.147  -0.138  0.00  0.00    +0.010 A 
ATOM     22  C   LIG    1        2.518  -3.302  -0.128  0.00  0.00    +0.040 A 
ATOM     23  C   LIG    1        3.134  -4.539  -0.187  0.00  0.00    +0.050 A 
ATOM     24  C   LIG    1        4.512  -4.625  -0.262  0.00  0.00    -0.010 A 
ATOM     25  C   LIG    1        5.279  -3.472  -0.278  0.00  0.00    +0.100 A 
BRANCH  25  26
ATOM     26  O   LIG    1        6.634  -3.556  -0.352  0.00  0.00    -0.300 OA
BRANCH  26  27
ATOM     27  C   LIG    1        7.201  -4.866  -0.409  0.00  0.00    +0.600 C 
ATOM     28  F   LIG    1        6.842  -5.581   0.739  0.00  0.00    -0.160 F 
ATOM     29  F   LIG    1        8.595  -4.769  -0.481  0.00  0.00    -0.130 F 
ATOM     30  F   LIG    1        6.722  -5.532  -1.542  0.00  0.00    -0.160 F 
ENDBRANCH  26  27
ENDBRANCH  25  26
ENDBRANCH  19  20
ENDBRANCH   4  19
TORSDOF 6
