REMARK  Name = ZINCtV00000tRR8i.1
REMARK                            x       y       z     vdW  Elec       q    Type
REMARK                         _______ _______ _______ _____ _____    ______ ____
ROOT
ATOM      1  C   LIG    1        3.615   0.673   0.770  0.00  0.00    +0.020 A 
ATOM      2  C   LIG    1        4.340  -0.468   0.580  0.00  0.00    +0.070 A 
ATOM      3  C   LIG    1        5.641  -0.069   0.230  0.00  0.00    -0.030 A 
ATOM      4  C   LIG    1        5.655   1.288   0.231  0.00  0.00    +0.180 A 
ATOM      5  O   LIG    1        4.430   1.729   0.558  0.00  0.00    -0.190 OA
ENDROOT
BRANCH   1  11
ATOM      6  C   LIG    1       -1.003  -0.738   1.990  0.00  0.00    +0.150 C 
ATOM      7  C   LIG    1        0.185   0.135   1.678  0.00  0.00    +0.040 A 
ATOM      8  C   LIG    1        0.196   1.497   1.681  0.00  0.00    +0.030 A 
ATOM      9  N   LIG    1        1.477   1.885   1.342  0.00  0.00    -0.560 N 
ATOM     10  H   LIG    1        1.802   2.795   1.259  0.00  0.00    +0.420 HD
ATOM     11  C   LIG    1        2.198   0.740   1.146  0.00  0.00    +0.290 A 
ATOM     12  N   LIG    1        1.405  -0.295   1.352  0.00  0.00    -0.450 NA
BRANCH   8  13
ATOM     13  C   LIG    1       -0.945   2.387   1.981  0.00  0.00    -0.020 A 
ATOM     14  C   LIG    1       -2.198   2.134   1.421  0.00  0.00    +0.040 A 
ATOM     15  C   LIG    1       -3.260   2.966   1.710  0.00  0.00    +0.020 A 
ATOM     16  C   LIG    1       -3.082   4.055   2.545  0.00  0.00    +0.020 A 
ATOM     17  C   LIG    1       -1.841   4.314   3.099  0.00  0.00    +0.010 A 
ATOM     18  C   LIG    1       -0.772   3.487   2.823  0.00  0.00    +0.010 A 
ENDBRANCH   8  13
ENDBRANCH   1  11
BRANCH   4  19
ATOM     19  O   LIG    1        6.727   2.068  -0.051  0.00  0.00    -0.180 OA
BRANCH  19  20
ATOM     20  C   LIG    1        6.533   3.410  -0.147  0.00  0.00    +0.090 A 
ATOM     21  C   LIG    1        5.248   3.928  -0.130  0.00  0.00    +0.010 A 
ATOM     22  C   LIG    1        5.052   5.294  -0.223  0.00  0.00    +0.040 A 
ATOM     23  C   LIG    1        6.135   6.144  -0.343  0.00  0.00    +0.050 A 
ATOM     24  C   LIG    1        7.420   5.633  -0.366  0.00  0.00    -0.010 A 
ATOM     25  C   LIG    1        7.624   4.266  -0.268  0.00  0.00    +0.100 A 
BRANCH  25  26
ATOM     26  O   LIG    1        8.886   3.763  -0.291  0.00  0.00    -0.300 OA
BRANCH  26  27
ATOM     27  C   LIG    1        9.957   4.700  -0.418  0.00  0.00    +0.600 C 
ATOM     28  F   LIG    1        9.815   5.412  -1.614  0.00  0.00    -0.160 F 
ATOM     29  F   LIG    1       11.178   4.017  -0.424  0.00  0.00    -0.130 F 
ATOM     30  F   LIG    1        9.927   5.591   0.661  0.00  0.00    -0.160 F 
ENDBRANCH  26  27
ENDBRANCH  25  26
ENDBRANCH  19  20
ENDBRANCH   4  19
TORSDOF 6
