REMARK  Name = ZINCpe000027pGYO.0
REMARK                            x       y       z     vdW  Elec       q    Type
REMARK                         _______ _______ _______ _____ _____    ______ ____
ROOT
ATOM      1  C   LIG    1       -0.061   1.084   0.050  0.00  0.00    +0.030 C 
ATOM      2  C   LIG    1       -0.755   1.577   1.321  0.00  0.00    +0.100 C 
ATOM      3  C   LIG    1       -0.067   0.969   2.548  0.00  0.00    +0.280 C 
ATOM      4  N   LIG    1        1.303   1.499   2.632  0.00  0.00    -0.610 N 
ATOM      5  C   LIG    1        1.480   2.961   2.590  0.00  0.00    +0.270 C 
ATOM      6  C   LIG    1        0.664   3.505   1.417  0.00  0.00    +0.080 C 
ATOM      7  C   LIG    1        1.390   3.408   0.069  0.00  0.00    +0.160 C 
ATOM      8  N   LIG    1        0.869   4.769  -0.193  0.00  0.00    -0.460 NA
ATOM      9  C   LIG    1        0.756   5.028   1.261  0.00  0.00    +0.220 C 
ATOM     10  C   LIG    1        2.362   0.673   2.743  0.00  0.00    +0.570 C 
ATOM     11  O   LIG    1        2.206  -0.530   2.665  0.00  0.00    -0.520 OA
ATOM     12  C   LIG    1       -2.225   1.153   1.298  0.00  0.00    +0.080 C 
ATOM     13  O   LIG    1       -0.670   3.004   1.389  0.00  0.00    -0.330 OA
ENDROOT
BRANCH  10  14
ATOM     14  C   LIG    1        3.714   1.230   2.961  0.00  0.00    -0.240 A 
ATOM     15  C   LIG    1        4.844   0.610   2.417  0.00  0.00    +0.390 A 
ATOM     16  N   LIG    1        6.033   1.145   2.632  0.00  0.00    -0.520 NA
ATOM     17  C   LIG    1        6.163   2.240   3.355  0.00  0.00    +0.530 A 
ATOM     18  N   LIG    1        5.126   2.853   3.891  0.00  0.00    -0.520 NA
ATOM     19  C   LIG    1        3.900   2.390   3.722  0.00  0.00    +0.360 A 
ENDBRANCH  10  14
BRANCH   8  20
ATOM     20  C   LIG    1        1.902   5.620  -0.800  0.00  0.00    +0.270 C 
BRANCH  20  21
ATOM     21  C   LIG    1        2.161   5.163  -2.213  0.00  0.00    +0.060 A 
ATOM     22  N   LIG    1        2.986   4.202  -2.526  0.00  0.00    -0.570 NA
ATOM     23  S   LIG    1        2.975   4.031  -4.077  0.00  0.00    +0.680 S 
ATOM     24  N   LIG    1        1.943   5.146  -4.431  0.00  0.00    -0.570 NA
ATOM     25  C   LIG    1        1.549   5.710  -3.323  0.00  0.00    +0.250 A 
ENDBRANCH  20  21
ENDBRANCH   8  20
TORSDOF 3
