REMARK  Name = ZINCvU00000005Km.0
REMARK                            x       y       z     vdW  Elec       q    Type
REMARK                         _______ _______ _______ _____ _____    ______ ____
ROOT
ATOM      1  O   LIG    1       -0.352   3.107   1.940  0.00  0.00    -0.500 OA
ATOM      2  C   LIG    1       -1.304   3.068   1.189  0.00  0.00    +0.520 C 
ATOM      3  N   LIG    1       -2.362   3.876   1.400  0.00  0.00    -0.730 N 
ATOM      4  H   LIG    1       -3.123   3.846   0.800  0.00  0.00    +0.410 HD
ENDROOT
BRANCH   3   5
ATOM      5  C   LIG    1       -2.362   4.801   2.537  0.00  0.00    +0.410 C 
BRANCH   5   6
ATOM      6  C   LIG    1       -3.275   5.962   2.239  0.00  0.00    +0.030 A 
ATOM      7  C   LIG    1       -3.021   7.239   2.558  0.00  0.00    -0.020 A 
ATOM      8  C   LIG    1       -4.171   8.016   2.080  0.00  0.00    -0.130 A 
ATOM      9  C   LIG    1       -4.509   9.368   2.102  0.00  0.00    +0.060 A 
ATOM     10  C   LIG    1       -5.705   9.779   1.554  0.00  0.00    -0.010 A 
ATOM     11  C   LIG    1       -6.567   8.854   0.983  0.00  0.00    +0.050 A 
ATOM     12  C   LIG    1       -6.244   7.514   0.955  0.00  0.00    +0.020 A 
ATOM     13  C   LIG    1       -5.044   7.079   1.502  0.00  0.00    +0.060 A 
ATOM     14  O   LIG    1       -4.465   5.867   1.621  0.00  0.00    -0.190 OA
ENDBRANCH   5   6
BRANCH   5  15
ATOM     15  C   LIG    1       -2.848   4.082   3.769  0.00  0.00    -0.100 A 
ATOM     16  C   LIG    1       -3.902   3.192   3.679  0.00  0.00    +0.020 A 
ATOM     17  C   LIG    1       -4.346   2.530   4.808  0.00  0.00    +0.000 A 
ATOM     18  C   LIG    1       -3.741   2.764   6.029  0.00  0.00    +0.010 A 
ATOM     19  C   LIG    1       -2.690   3.657   6.120  0.00  0.00    +0.010 A 
ATOM     20  C   LIG    1       -2.244   4.317   4.989  0.00  0.00    +0.020 A 
ENDBRANCH   5  15
ENDBRANCH   3   5
BRANCH   2  21
ATOM     21  C   LIG    1       -1.304   2.117   0.020  0.00  0.00    +0.150 C 
BRANCH  21  22
ATOM     22  C   LIG    1       -0.016   1.334   0.009  0.00  0.00    +0.080 A 
ATOM     23  C   LIG    1        0.002  -0.004   0.002  0.00  0.00    -0.060 A 
ATOM     24  S   LIG    1        1.684  -0.532  -0.017  0.00  0.00    +0.110 S 
ATOM     25  C   LIG    1        2.206   1.151  -0.013  0.00  0.00    +0.110 A 
ATOM     26  N   LIG    1        1.157   1.922   0.001  0.00  0.00    -0.400 NA
BRANCH  25  27
ATOM     27  C   LIG    1        3.610   1.613  -0.025  0.00  0.00    +0.190 A 
ATOM     28  C   LIG    1        4.646   0.680  -0.034  0.00  0.00    -0.010 A 
ATOM     29  C   LIG    1        5.955   1.128  -0.050  0.00  0.00    +0.070 A 
ATOM     30  C   LIG    1        6.187   2.497  -0.045  0.00  0.00    -0.020 A 
ATOM     31  C   LIG    1        5.112   3.367  -0.030  0.00  0.00    +0.270 A 
ATOM     32  N   LIG    1        3.876   2.915  -0.021  0.00  0.00    -0.440 NA
ENDBRANCH  25  27
ENDBRANCH  21  22
ENDBRANCH   2  21
TORSDOF 6
