REMARK  Name = ZINCpe00000cceHs.0
REMARK                            x       y       z     vdW  Elec       q    Type
REMARK                         _______ _______ _______ _____ _____    ______ ____
ROOT
ATOM      1  O   LIG    1        1.075   5.998   0.730  0.00  0.00    -0.510 OA
ATOM      2  C   LIG    1        0.674   5.545  -0.322  0.00  0.00    +0.510 C 
ATOM      3  C   LIG    1        0.532   4.057  -0.483  0.00  0.00    +0.340 C 
ATOM      4  N   LIG    1       -0.541   3.774  -1.447  0.00  0.00    -0.560 N 
ATOM      5  C   LIG    1       -0.617   4.573  -2.599  0.00  0.00    +0.110 A 
ATOM      6  C   LIG    1       -1.136   4.076  -3.780  0.00  0.00    +0.060 A 
ATOM      7  C   LIG    1       -1.192   4.887  -4.900  0.00  0.00    +0.010 A 
ATOM      8  C   LIG    1       -0.732   6.190  -4.839  0.00  0.00    +0.030 A 
ATOM      9  C   LIG    1       -0.213   6.693  -3.660  0.00  0.00    +0.000 A 
ATOM     10  C   LIG    1       -0.154   5.889  -2.534  0.00  0.00    +0.130 A 
ATOM     11  C   LIG    1       -1.429   2.784  -1.229  0.00  0.00    +0.520 C 
ATOM     12  O   LIG    1       -2.310   2.570  -2.035  0.00  0.00    -0.490 OA
ATOM     13  N   LIG    1        0.358   6.382  -1.328  0.00  0.00    -0.660 N 
ATOM     14  H   LIG    1        0.486   7.337  -1.216  0.00  0.00    +0.420 HD
ENDROOT
BRANCH  11  15
ATOM     15  C   LIG    1       -1.330   1.944   0.019  0.00  0.00    +0.230 C 
BRANCH  15  16
ATOM     16  N   LIG    1       -2.489   1.046   0.099  0.00  0.00    -0.510 NA
ATOM     17  C   LIG    1       -2.313   0.052   1.167  0.00  0.00    +0.160 C 
ATOM     18  C   LIG    1       -3.514  -0.898   1.176  0.00  0.00    +0.220 C 
ATOM     19  O   LIG    1       -4.715  -0.139   1.336  0.00  0.00    -0.360 OA
ATOM     20  C   LIG    1       -4.918   0.840   0.314  0.00  0.00    +0.090 C 
ATOM     21  C   LIG    1       -5.032   0.142  -1.044  0.00  0.00    +0.020 C 
ATOM     22  C   LIG    1       -6.266  -0.766  -1.037  0.00  0.00    -0.010 C 
ATOM     23  C   LIG    1       -7.504   0.072  -0.705  0.00  0.00    +0.200 C 
ATOM     24  O   LIG    1       -7.318   0.716   0.557  0.00  0.00    -0.370 OA
ATOM     25  C   LIG    1       -6.207   1.614   0.596  0.00  0.00    +0.250 C 
ATOM     26  C   LIG    1       -3.732   1.807   0.294  0.00  0.00    +0.170 C 
ENDBRANCH  15  16
ENDBRANCH  11  15
TORSDOF 2
