REMARK  Name = ZINCqH000000398W.0
REMARK                            x       y       z     vdW  Elec       q    Type
REMARK                         _______ _______ _______ _____ _____    ______ ____
ROOT
ATOM      1  C   LIG    1       -1.636   9.171   0.877  0.00  0.00    -0.770 A 
ATOM      2  C   LIG    1       -1.914   9.289   2.232  0.00  0.00    +0.190 A 
ATOM      3  C   LIG    1       -1.374   8.358   3.101  0.00  0.00    -0.060 A 
ATOM      4  C   LIG    1       -0.567   7.346   2.591  0.00  0.00    +0.370 A 
ATOM      5  N   LIG    1       -0.325   7.267   1.291  0.00  0.00    -0.530 NA
ATOM      6  C   LIG    1       -0.831   8.138   0.439  0.00  0.00    +0.410 A 
ENDROOT
BRANCH   4   7
ATOM      7  N   LIG    1       -0.013   6.406   3.453  0.00  0.00    -0.470 N 
ATOM      8  C   LIG    1        0.795   5.427   2.715  0.00  0.00    +0.210 C 
ATOM      9  C   LIG    1        1.267   4.329   3.671  0.00  0.00    -0.010 C 
ATOM     10  C   LIG    1        2.094   4.959   4.795  0.00  0.00    +0.010 C 
ATOM     11  C   LIG    1        1.246   6.010   5.517  0.00  0.00    -0.010 C 
ATOM     12  C   LIG    1        0.031   5.334   6.156  0.00  0.00    +0.030 C 
ATOM     13  C   LIG    1        2.128   3.321   2.906  0.00  0.00    +0.030 C 
ATOM     14  C   LIG    1        0.774   7.058   4.507  0.00  0.00    +0.200 C 
ENDBRANCH   4   7
BRANCH   1  15
ATOM     15  S   LIG    1       -2.303  10.327  -0.273  0.00  0.00    +2.700 S 
ATOM     16  O   LIG    1       -1.381  10.398  -1.352  0.00  0.00    -0.950 OA
ATOM     17  O   LIG    1       -2.702  11.461   0.485  0.00  0.00    -0.940 OA
BRANCH  15  18
ATOM     18  N   LIG    1       -3.691   9.663  -0.886  0.00  0.00    -0.950 N 
BRANCH  18  19
ATOM     19  C   LIG    1       -4.905   9.845  -0.221  0.00  0.00    +0.150 A 
ATOM     20  C   LIG    1       -5.064   9.376   1.078  0.00  0.00    -0.020 A 
ATOM     21  C   LIG    1       -6.265   9.561   1.735  0.00  0.00    +0.030 A 
ATOM     22  C   LIG    1       -7.312  10.202   1.098  0.00  0.00    +0.010 A 
ATOM     23  C   LIG    1       -7.159  10.665  -0.196  0.00  0.00    +0.030 A 
ATOM     24  C   LIG    1       -5.959  10.488  -0.857  0.00  0.00    +0.010 A 
ENDBRANCH  18  19
BRANCH  18  26
ATOM     25  C   LIG    1       -3.515   7.399  -1.793  0.00  0.00    +0.010 C 
ATOM     26  C   LIG    1       -3.645   8.886  -2.127  0.00  0.00    +0.290 C 
ENDBRANCH  18  26
ENDBRANCH  15  18
ENDBRANCH   1  15
TORSDOF 5
