REMARK  Name = ZINCpe000000UEWT.0
REMARK                            x       y       z     vdW  Elec       q    Type
REMARK                         _______ _______ _______ _____ _____    ______ ____
ROOT
ATOM      1  C   LIG    1        6.367  -0.595   1.382  0.00  0.00    +0.110 C 
ATOM      2  C   LIG    1        5.924  -1.609   0.326  0.00  0.00    +0.090 C 
ENDROOT
BRANCH   1   5
ATOM      3  C   LIG    1        7.793  -2.746   2.556  0.00  0.00    +0.280 C 
ATOM      4  N   LIG    1        8.531  -1.582   2.061  0.00  0.00    -0.590 N 
ATOM      5  C   LIG    1        7.872  -0.573   1.458  0.00  0.00    +0.500 C 
ATOM      6  O   LIG    1        8.490   0.353   0.975  0.00  0.00    -0.530 OA
BRANCH   4   7
ATOM      7  C   LIG    1        9.986  -1.514   2.222  0.00  0.00    +0.360 C 
BRANCH   7   8
ATOM      8  C   LIG    1       10.316  -0.849   3.534  0.00  0.00    -0.210 A 
ATOM      9  C   LIG    1       10.506   0.466   3.740  0.00  0.00    +0.190 A 
ATOM     10  O   LIG    1       10.777   0.656   5.042  0.00  0.00    -0.180 OA
ATOM     11  C   LIG    1       10.772  -0.527   5.678  0.00  0.00    +0.160 A 
ATOM     12  C   LIG    1       10.491  -1.490   4.782  0.00  0.00    -0.050 A 
ENDBRANCH   7   8
ENDBRANCH   4   7
ENDBRANCH   1   5
BRANCH   1  13
ATOM     13  O   LIG    1        5.832  -0.966   2.654  0.00  0.00    -0.530 OA
ATOM     14  H   LIG    1        6.073  -0.365   3.373  0.00  0.00    +0.390 HD
ENDBRANCH   1  13
BRANCH   1  15
ATOM     15  C   LIG    1        5.856   0.796   1.000  0.00  0.00    +0.340 C 
BRANCH  15  16
ATOM     16  N   LIG    1        4.393   0.775   0.926  0.00  0.00    -0.570 N 
ATOM     17  C   LIG    1        3.582   1.037   1.961  0.00  0.00    +0.710 C 
ATOM     18  N   LIG    1        2.278   0.950   1.626  0.00  0.00    -0.710 N 
ATOM     19  H   LIG    1        1.515   1.097   2.207  0.00  0.00    +0.440 HD
ATOM     20  C   LIG    1        2.248   0.590   0.212  0.00  0.00    +0.110 C 
ATOM     21  C   LIG    1        1.490   1.626  -0.630  0.00  0.00    +0.050 C 
ATOM     22  C   LIG    1        0.010   1.197  -0.510  0.00  0.00    +0.030 C 
ATOM     23  C   LIG    1        0.012  -0.295  -0.130  0.00  0.00    +0.030 C 
ATOM     24  C   LIG    1        1.493  -0.725  -0.031  0.00  0.00    +0.050 C 
ATOM     25  O   LIG    1        3.978   1.322   3.074  0.00  0.00    -0.540 OA
ATOM     26  C   LIG    1        3.692   0.488  -0.194  0.00  0.00    +0.540 C 
ATOM     27  O   LIG    1        4.132   0.210  -1.289  0.00  0.00    -0.460 OA
ENDBRANCH  15  16
ENDBRANCH   1  15
TORSDOF 6
