REMARK  Name = ZINCpe00000VVGLK.0
REMARK                            x       y       z     vdW  Elec       q    Type
REMARK                         _______ _______ _______ _____ _____    ______ ____
ROOT
ATOM      1  C   LIG    1       -0.421   1.372   4.836  0.00  0.00    +0.510 C 
ATOM      2  N   LIG    1       -0.897   1.698   3.618  0.00  0.00    -0.520 N 
ATOM      3  H   LIG    1       -1.694   2.245   3.540  0.00  0.00    +0.430 HD
ATOM      4  O   LIG    1        0.576   0.688   4.934  0.00  0.00    -0.480 OA
ENDROOT
BRANCH   1  13
ATOM      5  C   LIG    1       -0.938   3.112   8.993  0.00  0.00    +0.080 C 
ATOM      6  C   LIG    1       -1.244   1.704   8.479  0.00  0.00    +0.170 C 
ATOM      7  C   LIG    1       -0.923   0.624   9.526  0.00  0.00    +0.090 C 
ATOM      8  C   LIG    1        0.538   0.273   9.152  0.00  0.00    +0.080 C 
ATOM      9  C   LIG    1        0.648   0.634   7.687  0.00  0.00    +0.540 C 
ATOM     10  O   LIG    1        1.580   0.339   6.969  0.00  0.00    -0.470 OA
ATOM     11  S   LIG    1       -2.975   1.542   7.909  0.00  0.00    -0.240 S 
ATOM     12  C   LIG    1       -2.571   1.278   6.133  0.00  0.00    +0.150 C 
ATOM     13  C   LIG    1       -1.126   1.858   6.076  0.00  0.00    +0.280 C 
ATOM     14  N   LIG    1       -0.436   1.357   7.284  0.00  0.00    -0.620 N 
ENDBRANCH   1  13
BRANCH   2  15
ATOM     15  N   LIG    1       -0.242   1.246   2.466  0.00  0.00    -0.520 N 
ATOM     16  H   LIG    1        0.555   0.699   2.544  0.00  0.00    +0.440 HD
ATOM     17  C   LIG    1       -0.718   1.572   1.248  0.00  0.00    +0.520 C 
ATOM     18  O   LIG    1       -1.714   2.256   1.150  0.00  0.00    -0.510 OA
BRANCH  17  19
ATOM     19  C   LIG    1       -0.013   1.086   0.008  0.00  0.00    +0.250 C 
BRANCH  19  20
ATOM     20  O   LIG    1       -0.704   1.559  -1.150  0.00  0.00    -0.280 OA
BRANCH  20  21
ATOM     21  C   LIG    1       -0.194   1.207  -2.360  0.00  0.00    +0.090 A 
ATOM     22  C   LIG    1        0.947   0.424  -2.431  0.00  0.00    -0.040 A 
ATOM     23  C   LIG    1        1.464   0.067  -3.663  0.00  0.00    +0.050 A 
ATOM     24  C   LIG    1        0.845   0.491  -4.823  0.00  0.00    +0.020 A 
ATOM     25  C   LIG    1       -0.294   1.273  -4.757  0.00  0.00    +0.030 A 
ATOM     26  C   LIG    1       -0.819   1.628  -3.527  0.00  0.00    +0.080 A 
ATOM     27  F   LIG    1       -1.934   2.388  -3.462  0.00  0.00    -0.130 F 
ENDBRANCH  20  21
ENDBRANCH  19  20
ENDBRANCH  17  19
ENDBRANCH   2  15
TORSDOF 5
