REMARK  Name = ZINCkj000005ktKc.0
REMARK                            x       y       z     vdW  Elec       q    Type
REMARK                         _______ _______ _______ _____ _____    ______ ____
ROOT
ATOM      1  N   LIG    1       -3.047   3.792   4.978  0.00  0.00    -0.290 N 
ATOM      2  C   LIG    1       -3.594   3.858   3.750  0.00  0.00    +0.330 A 
ATOM      3  C   LIG    1       -2.608   3.529   2.842  0.00  0.00    -0.300 A 
ATOM      4  C   LIG    1       -1.434   3.254   3.580  0.00  0.00    +0.260 A 
ATOM      5  N   LIG    1       -1.705   3.418   4.846  0.00  0.00    -0.270 NA
ENDROOT
BRANCH   1  12
ATOM      6  C   LIG    1       -1.659   3.288   7.412  0.00  0.00    +0.100 C 
ATOM      7  C   LIG    1       -3.068   3.821   7.395  0.00  0.00    -0.070 A 
ATOM      8  C   LIG    1       -3.724   4.079   8.583  0.00  0.00    +0.040 A 
ATOM      9  C   LIG    1       -5.018   4.568   8.568  0.00  0.00    +0.030 A 
ATOM     10  C   LIG    1       -5.659   4.799   7.365  0.00  0.00    +0.040 A 
ATOM     11  C   LIG    1       -5.006   4.549   6.174  0.00  0.00    +0.000 A 
ATOM     12  C   LIG    1       -3.710   4.053   6.185  0.00  0.00    +0.120 A 
ENDBRANCH   1  12
BRANCH   3  13
ATOM     13  C   LIG    1       -2.754   3.469   1.376  0.00  0.00    +0.620 C 
ATOM     14  N   LIG    1       -1.700   3.131   0.607  0.00  0.00    -0.620 N 
ATOM     15  C   LIG    1       -0.349   2.799   1.099  0.00  0.00    +0.280 C 
ATOM     16  C   LIG    1        0.524   2.506  -0.139  0.00  0.00    +0.070 C 
ATOM     17  C   LIG    1       -0.228   3.240  -1.281  0.00  0.00    +0.170 C 
ATOM     18  C   LIG    1       -1.705   3.033  -0.864  0.00  0.00    +0.300 C 
ATOM     19  O   LIG    1       -3.825   3.725   0.861  0.00  0.00    -0.530 OA
BRANCH  17  20
ATOM     20  N   LIG    1        0.046   2.611  -2.580  0.00  0.00    -0.630 N 
ATOM     21  H   LIG    1        1.037   2.648  -2.769  0.00  0.00    +0.440 HD
ATOM     22  H   LIG    1       -0.453   3.105  -3.305  0.00  0.00    +0.440 HD
ATOM     23  H   LIG    1       -0.257   1.649  -2.559  0.00  0.00    +0.440 HD
ENDBRANCH  17  20
ENDBRANCH   3  13
TORSDOF 3
