REMARK  Name = ZINCrg00001JduY3.0
REMARK                            x       y       z     vdW  Elec       q    Type
REMARK                         _______ _______ _______ _____ _____    ______ ____
ROOT
ATOM      1  N   LIG    1       -1.288   1.635   8.615  0.00  0.00    -0.530 NA
ATOM      2  C   LIG    1       -0.649   0.353   8.289  0.00  0.00    +0.180 C 
ATOM      3  C   LIG    1        0.278   0.539   7.085  0.00  0.00    +0.190 C 
ATOM      4  N   LIG    1       -0.500   1.042   5.944  0.00  0.00    -0.520 NA
ATOM      5  C   LIG    1       -1.139   2.325   6.271  0.00  0.00    +0.190 C 
ATOM      6  C   LIG    1       -2.066   2.138   7.474  0.00  0.00    +0.190 C 
ENDROOT
BRANCH   1   7
ATOM      7  C   LIG    1       -2.129   1.514   9.813  0.00  0.00    +0.210 C 
BRANCH   7   9
ATOM      8  C   LIG    1       -2.373   3.964  10.681  0.00  0.00    +0.080 C 
ATOM      9  C   LIG    1       -2.954   2.765   9.976  0.00  0.00    -0.110 C 
ATOM     10  C   LIG    1       -4.190   2.811   9.500  0.00  0.00    +0.000 C 
BRANCH  10  11
ATOM     11  C   LIG    1       -4.938   4.085   9.507  0.00  0.00    -0.050 A 
ATOM     12  C   LIG    1       -6.322   4.084   9.688  0.00  0.00    +0.010 A 
ATOM     13  C   LIG    1       -7.014   5.278   9.700  0.00  0.00    +0.000 A 
ATOM     14  C   LIG    1       -6.340   6.473   9.521  0.00  0.00    +0.000 A 
ATOM     15  C   LIG    1       -4.970   6.480   9.335  0.00  0.00    +0.000 A 
ATOM     16  C   LIG    1       -4.265   5.294   9.327  0.00  0.00    +0.020 A 
ENDBRANCH  10  11
ENDBRANCH   7   9
ENDBRANCH   1   7
BRANCH   4  17
ATOM     17  C   LIG    1        0.341   1.163   4.746  0.00  0.00    +0.220 C 
BRANCH  17  18
ATOM     18  C   LIG    1       -0.529   1.441   3.547  0.00  0.00    +0.520 C 
ATOM     19  N   LIG    1        0.029   1.591   2.330  0.00  0.00    -0.730 N 
ATOM     20  H   LIG    1        0.991   1.520   2.225  0.00  0.00    +0.400 HD
ATOM     21  O   LIG    1       -1.731   1.530   3.679  0.00  0.00    -0.510 OA
BRANCH  19  22
ATOM     22  C   LIG    1       -0.817   1.862   1.165  0.00  0.00    +0.270 C 
ATOM     23  C   LIG    1       -0.105   1.385  -0.113  0.00  0.00    +0.070 C 
ATOM     24  C   LIG    1       -0.884   1.991  -1.309  0.00  0.00    -0.310 C 
ATOM     25  S   LIG    1       -1.210   3.704  -0.744  0.00  0.00    +2.390 S 
ATOM     26  O   LIG    1       -2.549   4.058  -1.061  0.00  0.00    -0.930 OA
ATOM     27  O   LIG    1       -0.140   4.546  -1.153  0.00  0.00    -0.930 OA
ATOM     28  C   LIG    1       -1.074   3.378   1.050  0.00  0.00    -0.320 C 
ENDBRANCH  19  22
ENDBRANCH  17  18
ENDBRANCH   4  17
TORSDOF 6
