REMARK  Name = ZINCrD00000lDOg2.0
REMARK                            x       y       z     vdW  Elec       q    Type
REMARK                         _______ _______ _______ _____ _____    ______ ____
ROOT
ATOM      1  N   LIG    1       -0.011   0.966   0.007  0.00  0.00    -0.730 N 
ATOM      2  H   LIG    1        0.002  -0.004   0.002  0.00  0.00    +0.400 HD
ATOM      3  C   LIG    1       -1.187   1.624   0.017  0.00  0.00    +0.520 C 
ATOM      4  O   LIG    1       -1.204   2.837   0.023  0.00  0.00    -0.530 OA
ENDROOT
BRANCH   3   5
ATOM      5  C   LIG    1       -2.482   0.853   0.018  0.00  0.00    +0.000 C 
ATOM      6  C   LIG    1       -3.660   1.831   0.028  0.00  0.00    +0.090 C 
ATOM      7  C   LIG    1       -4.965   1.067   0.277  0.00  0.00    +0.290 C 
ATOM      8  N   LIG    1       -5.037  -0.057  -0.660  0.00  0.00    -0.420 N 
ATOM      9  C   LIG    1       -3.964  -0.557  -1.352  0.00  0.00    +0.010 A 
ATOM     10  C   LIG    1       -4.416  -1.569  -2.103  0.00  0.00    +0.180 A 
ATOM     11  N   LIG    1       -5.736  -1.689  -1.877  0.00  0.00    -0.430 NA
ATOM     12  C   LIG    1       -6.112  -0.783  -1.012  0.00  0.00    +0.110 A 
ATOM     13  C   LIG    1       -2.559  -0.023  -1.240  0.00  0.00    +0.160 C 
BRANCH  12  14
ATOM     14  C   LIG    1       -7.514  -0.588  -0.496  0.00  0.00    +0.560 C 
ATOM     15  F   LIG    1       -8.077   0.544  -1.094  0.00  0.00    -0.170 F 
ATOM     16  F   LIG    1       -7.480  -0.413   0.892  0.00  0.00    -0.170 F 
ATOM     17  F   LIG    1       -8.286  -1.712  -0.805  0.00  0.00    -0.150 F 
ENDBRANCH  12  14
ENDBRANCH   3   5
BRANCH   1  18
ATOM     18  C   LIG    1        1.248   1.716  -0.001  0.00  0.00    +0.330 C 
BRANCH  18  22
ATOM     19  C   LIG    1        4.534  -1.018  -0.049  0.00  0.00    +0.110 A 
ATOM     20  C   LIG    1        3.988  -0.567  -1.241  0.00  0.00    -0.040 A 
ATOM     21  C   LIG    1        2.925   0.317  -1.222  0.00  0.00    +0.070 A 
ATOM     22  C   LIG    1        2.406   0.752  -0.017  0.00  0.00    -0.120 A 
ATOM     23  C   LIG    1        2.952   0.309   1.174  0.00  0.00    +0.050 A 
ATOM     24  C   LIG    1        4.011  -0.580   1.161  0.00  0.00    +0.070 A 
ATOM     25  F   LIG    1        4.541  -1.018   2.325  0.00  0.00    -0.130 F 
BRANCH  19  26
ATOM     26  O   LIG    1        5.579  -1.887  -0.066  0.00  0.00    -0.310 OA
BRANCH  26  28
ATOM     27  C   LIG    1        7.234  -3.264  -1.164  0.00  0.00    +0.070 C 
ATOM     28  C   LIG    1        6.065  -2.293  -1.346  0.00  0.00    +0.190 C 
ENDBRANCH  26  28
ENDBRANCH  19  26
ENDBRANCH  18  22
ENDBRANCH   1  18
TORSDOF 6
