REMARK  Name = ZINCqH0000051aqu.0
REMARK                            x       y       z     vdW  Elec       q    Type
REMARK                         _______ _______ _______ _____ _____    ______ ____
ROOT
ATOM      1  O   LIG    1       -4.158   4.767  -1.601  0.00  0.00    -0.330 OA
ENDROOT
BRANCH   1   2
ATOM      2  C   LIG    1       -3.004   4.121  -1.370  0.00  0.00    +0.460 C 
ATOM      3  O   LIG    1       -2.328   3.743  -2.297  0.00  0.00    -0.500 OA
BRANCH   2   4
ATOM      4  C   LIG    1       -2.553   3.868   0.045  0.00  0.00    +0.170 C 
BRANCH   4   5
ATOM      5  C   LIG    1       -1.238   3.133   0.029  0.00  0.00    -0.080 A 
ATOM      6  C   LIG    1       -1.219   1.751   0.017  0.00  0.00    +0.060 A 
ATOM      7  C   LIG    1       -0.013   1.076   0.008  0.00  0.00    +0.020 A 
ATOM      8  C   LIG    1        1.175   1.783   0.000  0.00  0.00    +0.070 A 
ATOM      9  C   LIG    1        1.156   3.166   0.008  0.00  0.00    -0.180 A 
ATOM     10  C   LIG    1       -0.050   3.840   0.022  0.00  0.00    +0.080 A 
BRANCH   9  11
ATOM     11  C   LIG    1        2.451   3.937   0.000  0.00  0.00    +0.510 C 
ATOM     12  F   LIG    1        2.525   4.736   1.146  0.00  0.00    -0.180 F 
ATOM     13  F   LIG    1        2.503   4.748  -1.138  0.00  0.00    -0.180 F 
ATOM     14  F   LIG    1        3.526   3.042  -0.014  0.00  0.00    -0.180 F 
ENDBRANCH   9  11
ENDBRANCH   4   5
ENDBRANCH   2   4
ENDBRANCH   1   2
BRANCH   1  15
ATOM     15  C   LIG    1       -4.530   4.975  -2.989  0.00  0.00    +0.250 C 
BRANCH  15  17
ATOM     16  O   LIG    1       -6.412   6.027  -2.028  0.00  0.00    -0.510 OA
ATOM     17  C   LIG    1       -5.845   5.710  -3.052  0.00  0.00    +0.520 C 
ATOM     18  N   LIG    1       -6.389   6.016  -4.246  0.00  0.00    -0.720 N 
ATOM     19  H   LIG    1       -5.936   5.762  -5.065  0.00  0.00    +0.410 HD
BRANCH  18  20
ATOM     20  C   LIG    1       -7.667   6.730  -4.307  0.00  0.00    +0.320 C 
BRANCH  20  21
ATOM     21  C   LIG    1       -8.053   6.947  -5.748  0.00  0.00    -0.110 A 
ATOM     22  C   LIG    1       -7.650   8.093  -6.406  0.00  0.00    +0.050 A 
ATOM     23  C   LIG    1       -8.000   8.290  -7.729  0.00  0.00    +0.030 A 
ATOM     24  C   LIG    1       -8.763   7.344  -8.391  0.00  0.00    -0.030 A 
ATOM     25  C   LIG    1       -9.170   6.199  -7.729  0.00  0.00    +0.030 A 
ATOM     26 CL   LIG    1       -9.209   7.594 -10.050  0.00  0.00    -0.060 Cl
ATOM     27  C   LIG    1       -8.815   6.001  -6.409  0.00  0.00    +0.050 A 
ENDBRANCH  20  21
ENDBRANCH  18  20
ENDBRANCH  15  17
ENDBRANCH   1  15
TORSDOF 8
