REMARK  Name = ZINCvU0000000JRx.0
REMARK                            x       y       z     vdW  Elec       q    Type
REMARK                         _______ _______ _______ _____ _____    ______ ____
ROOT
ATOM      1  C   LIG    1        0.994   3.486   0.596  0.00  0.00    -0.100 A 
ATOM      2  C   LIG    1       -0.056   4.161   0.002  0.00  0.00    +0.020 A 
ATOM      3  C   LIG    1       -1.087   3.457  -0.592  0.00  0.00    +0.030 A 
ATOM      4  C   LIG    1       -1.069   2.076  -0.598  0.00  0.00    +0.030 A 
ATOM      5  C   LIG    1       -0.018   1.394   0.002  0.00  0.00    +0.140 A 
ATOM      6  C   LIG    1        1.016   2.105   0.598  0.00  0.00    +0.000 A 
ENDROOT
BRANCH   5   7
ATOM      7  N   LIG    1        0.002  -0.004   0.002  0.00  0.00    -0.670 N 
ATOM      8  H   LIG    1        0.845  -0.477  -0.077  0.00  0.00    +0.410 HD
ATOM      9  C   LIG    1       -1.150  -0.694   0.111  0.00  0.00    +0.560 C 
ATOM     10  O   LIG    1       -2.213  -0.104   0.124  0.00  0.00    -0.510 OA
BRANCH   9  11
ATOM     11  C   LIG    1       -1.122  -2.168   0.214  0.00  0.00    -0.120 A 
ATOM     12  C   LIG    1        0.096  -2.849   0.193  0.00  0.00    +0.050 A 
ATOM     13  C   LIG    1        0.116  -4.225   0.295  0.00  0.00    +0.050 A 
ATOM     14  C   LIG    1       -1.069  -4.931   0.407  0.00  0.00    -0.040 A 
ATOM     15  C   LIG    1       -2.280  -4.262   0.423  0.00  0.00    +0.040 A 
ATOM     16  C   LIG    1       -2.314  -2.886   0.327  0.00  0.00    +0.090 A 
BRANCH  14  17
ATOM     17  C   LIG    1       -1.040  -6.434   0.511  0.00  0.00    +0.120 C 
ATOM     18  S   LIG    1       -0.093  -6.922   1.981  0.00  0.00    -0.210 S 
ATOM     19  C   LIG    1       -0.101  -8.732   1.884  0.00  0.00    +0.110 C 
ATOM     20  C   LIG    1        0.614  -9.193   0.619  0.00  0.00    +0.060 C 
ATOM     21  C   LIG    1       -0.233  -8.909  -0.616  0.00  0.00    +0.110 C 
ATOM     22  S   LIG    1       -0.247  -7.130  -0.966  0.00  0.00    -0.210 S 
ENDBRANCH  14  17
ENDBRANCH   9  11
ENDBRANCH   5   7
BRANCH   1  23
ATOM     23  C   LIG    1        2.116   4.257   1.242  0.00  0.00    +0.360 C 
BRANCH  23  24
ATOM     24  N   LIG    1        3.164   4.517   0.251  0.00  0.00    -0.580 N 
ATOM     25  C   LIG    1        3.123   5.639  -0.495  0.00  0.00    +0.480 C 
ATOM     26  O   LIG    1        2.219   6.434  -0.346  0.00  0.00    -0.470 OA
BRANCH  25  27
ATOM     27  C   LIG    1        4.201   5.906  -1.514  0.00  0.00    +0.450 C 
ATOM     28  F   LIG    1        4.216   4.873  -2.457  0.00  0.00    -0.160 F 
ATOM     29  F   LIG    1        5.443   5.971  -0.873  0.00  0.00    -0.170 F 
ATOM     30  F   LIG    1        3.943   7.121  -2.157  0.00  0.00    -0.150 F 
ENDBRANCH  25  27
BRANCH  24  32
ATOM     31  C   LIG    1        3.861   2.530  -0.992  0.00  0.00    +0.020 C 
ATOM     32  C   LIG    1        4.256   3.557   0.071  0.00  0.00    +0.270 C 
ENDBRANCH  24  32
ENDBRANCH  23  24
ENDBRANCH   1  23
TORSDOF 7
