REMARK  Name = ZINCrD00000hQ6Kj.1
REMARK                            x       y       z     vdW  Elec       q    Type
REMARK                         _______ _______ _______ _____ _____    ______ ____
ROOT
ATOM      1  C   LIG    1       -1.610   8.510   0.066  0.00  0.00    +0.210 C 
ATOM      2  C   LIG    1       -2.504   8.547  -1.176  0.00  0.00    +0.070 C 
ATOM      3  C   LIG    1       -1.625   8.588  -2.430  0.00  0.00    +0.170 C 
ATOM      4  N   LIG    1       -0.764   9.777  -2.387  0.00  0.00    -0.530 NA
ATOM      5  C   LIG    1        0.136   9.740  -1.228  0.00  0.00    +0.190 C 
ATOM      6  C   LIG    1       -0.690   9.734   0.061  0.00  0.00    +0.090 C 
ENDROOT
BRANCH   1   7
ATOM      7  C   LIG    1       -0.777   7.254   0.050  0.00  0.00    +0.160 A 
ATOM      8  N   LIG    1       -1.226   6.024   0.041  0.00  0.00    -0.440 NA
ATOM      9  C   LIG    1       -0.126   5.237   0.032  0.00  0.00    +0.220 A 
ATOM     10  N   LIG    1        0.915   6.027   0.026  0.00  0.00    -0.360 NA
ATOM     11  O   LIG    1        0.558   7.187   0.036  0.00  0.00    +0.100 OA
BRANCH   9  12
ATOM     12  C   LIG    1       -0.105   3.752   0.023  0.00  0.00    +0.140 A 
ATOM     13  C   LIG    1        1.110   3.071   0.008  0.00  0.00    +0.270 A 
ATOM     14  N   LIG    1        1.124   1.750   0.001  0.00  0.00    -0.430 NA
ATOM     15  C   LIG    1       -0.013   1.076   0.008  0.00  0.00    +0.250 A 
ATOM     16  C   LIG    1       -1.223   1.750   0.017  0.00  0.00    +0.240 A 
ATOM     17  N   LIG    1       -1.246   3.069   0.030  0.00  0.00    -0.400 NA
ENDBRANCH   9  12
ENDBRANCH   1   7
BRANCH   1  19
ATOM     18  C   LIG    1       -3.325   7.425   1.341  0.00  0.00    +0.220 C 
ATOM     19  O   LIG    1       -2.423   8.529   1.241  0.00  0.00    -0.350 OA
ENDBRANCH   1  19
BRANCH   4  20
ATOM     20  C   LIG    1       -0.006   9.923  -3.637  0.00  0.00    +0.230 C 
BRANCH  20  21
ATOM     21  C   LIG    1       -0.958  10.203  -4.772  0.00  0.00    -0.070 A 
ATOM     22  C   LIG    1       -1.289  11.507  -5.090  0.00  0.00    +0.040 A 
ATOM     23  C   LIG    1       -2.162  11.764  -6.131  0.00  0.00    +0.020 A 
ATOM     24  C   LIG    1       -2.704  10.719  -6.854  0.00  0.00    +0.020 A 
ATOM     25  C   LIG    1       -2.372   9.413  -6.536  0.00  0.00    -0.030 A 
ATOM     26 CL   LIG    1       -3.053   8.099  -7.443  0.00  0.00    -0.070 Cl
ATOM     27  C   LIG    1       -1.495   9.156  -5.497  0.00  0.00    +0.020 A 
ENDBRANCH  20  21
ENDBRANCH   4  20
TORSDOF 5
