REMARK  Name = ZINCrD00000hQ6kJ.0
REMARK                            x       y       z     vdW  Elec       q    Type
REMARK                         _______ _______ _______ _____ _____    ______ ____
ROOT
ATOM      1  C   LIG    1       -1.314   1.912   0.424  0.00  0.00    +0.200 C 
ATOM      2  C   LIG    1       -0.046   1.151   0.132  0.00  0.00    +0.170 A 
ATOM      3  C   LIG    1        1.180   1.696  -0.026  0.00  0.00    -0.780 A 
ATOM      4  C   LIG    1        2.070   0.643  -0.288  0.00  0.00    +0.150 A 
ATOM      5  C   LIG    1        1.332  -0.506  -0.278  0.00  0.00    -0.090 A 
ATOM      6  O   LIG    1        0.049  -0.176  -0.021  0.00  0.00    -0.150 OA
ENDROOT
BRANCH   5   7
ATOM      7  C   LIG    1        1.844  -1.861  -0.505  0.00  0.00    +0.610 C 
ATOM      8  N   LIG    1        1.004  -2.914  -0.468  0.00  0.00    -0.690 N 
ATOM      9  H   LIG    1        0.061  -2.776  -0.290  0.00  0.00    +0.410 HD
ATOM     10  O   LIG    1        3.028  -2.035  -0.729  0.00  0.00    -0.510 OA
BRANCH   8  11
ATOM     11  C   LIG    1        1.516  -4.268  -0.695  0.00  0.00    +0.240 C 
ATOM     12  C   LIG    1        1.016  -5.377   0.233  0.00  0.00    +0.040 C 
ATOM     13  C   LIG    1        0.532  -5.317  -1.217  0.00  0.00    +0.000 C 
BRANCH  13  14
ATOM     14  C   LIG    1        1.063  -6.355  -2.172  0.00  0.00    -0.040 A 
ATOM     15  C   LIG    1        0.529  -6.462  -3.442  0.00  0.00    +0.020 A 
ATOM     16  C   LIG    1        1.016  -7.414  -4.319  0.00  0.00    +0.030 A 
ATOM     17  C   LIG    1        2.037  -8.259  -3.925  0.00  0.00    +0.020 A 
ATOM     18  C   LIG    1        2.571  -8.152  -2.654  0.00  0.00    -0.030 A 
ATOM     19 CL   LIG    1        3.853  -9.212  -2.159  0.00  0.00    -0.070 Cl
ATOM     20  C   LIG    1        2.087  -7.196  -1.778  0.00  0.00    +0.030 A 
ENDBRANCH  13  14
ENDBRANCH   8  11
ENDBRANCH   5   7
BRANCH   3  21
ATOM     21  S   LIG    1        1.586   3.408   0.079  0.00  0.00    +2.730 S 
ATOM     22  O   LIG    1        2.986   3.503  -0.148  0.00  0.00    -0.940 OA
ATOM     23  O   LIG    1        0.954   3.899   1.253  0.00  0.00    -0.950 OA
BRANCH  21  24
ATOM     24  N   LIG    1        0.853   4.164  -1.199  0.00  0.00    -1.010 NA
ATOM     25  C   LIG    1        1.393   4.260  -2.563  0.00  0.00    +0.270 C 
ATOM     26  C   LIG    1        0.382   5.070  -3.401  0.00  0.00    +0.030 C 
ATOM     27  C   LIG    1       -0.393   5.875  -2.323  0.00  0.00    +0.040 C 
ATOM     28  C   LIG    1       -0.447   4.859  -1.155  0.00  0.00    +0.270 C 
ENDBRANCH  21  24
ENDBRANCH   3  21
TORSDOF 5
