REMARK  Name = ZINCrH000004pWJ9.0
REMARK                            x       y       z     vdW  Elec       q    Type
REMARK                         _______ _______ _______ _____ _____    ______ ____
ROOT
ATOM      1  C   LIG    1        1.397   1.599   0.007  0.00  0.00    +0.040 C 
ATOM      2  C   LIG    1       -0.020   1.022  -0.011  0.00  0.00    +0.220 C 
ATOM      3  C   LIG    1       -0.811   1.495   1.235  0.00  0.00    +0.000 C 
ATOM      4  C   LIG    1       -2.277   1.370   0.735  0.00  0.00    +0.040 C 
ATOM      5  C   LIG    1       -2.171   1.764  -0.753  0.00  0.00    +0.240 C 
ATOM      6  N   LIG    1       -0.775   1.551  -1.162  0.00  0.00    -0.610 N 
ATOM      7  C   LIG    1       -0.269   1.798  -2.386  0.00  0.00    +0.580 C 
ATOM      8  O   LIG    1        0.925   1.683  -2.585  0.00  0.00    -0.520 OA
ENDROOT
BRANCH   7   9
ATOM      9  C   LIG    1       -1.164   2.209  -3.487  0.00  0.00    -0.140 A 
ATOM     10  C   LIG    1       -0.663   2.324  -4.791  0.00  0.00    +0.120 A 
ATOM     11  C   LIG    1       -1.487   2.701  -5.825  0.00  0.00    +0.050 A 
ATOM     12  C   LIG    1       -2.831   2.983  -5.581  0.00  0.00    +0.180 A 
ATOM     13  N   LIG    1       -3.668   3.366  -6.606  0.00  0.00    -0.630 N 
ATOM     14  H   LIG    1       -3.316   3.440  -7.506  0.00  0.00    +0.420 HD
ATOM     15  C   LIG    1       -4.964   3.638  -6.377  0.00  0.00    +0.540 A 
ATOM     16  C   LIG    1       -5.524   3.546  -5.085  0.00  0.00    -0.040 A 
ATOM     17  C   LIG    1       -4.755   3.174  -4.033  0.00  0.00    +0.140 A 
ATOM     18  O   LIG    1       -5.673   3.974  -7.309  0.00  0.00    -0.530 OA
ATOM     19  C   LIG    1       -3.341   2.875  -4.271  0.00  0.00    -0.120 A 
ATOM     20  F   LIG    1       -0.993   2.803  -7.079  0.00  0.00    -0.130 F 
ATOM     21  C   LIG    1       -2.502   2.487  -3.226  0.00  0.00    +0.110 A 
ENDBRANCH   7   9
BRANCH   3  22
ATOM     22  C   LIG    1       -0.555   0.573   2.429  0.00  0.00    +0.090 C 
BRANCH  22  23
ATOM     23  C   LIG    1       -1.240   1.130   3.650  0.00  0.00    -0.080 A 
ATOM     24  C   LIG    1       -0.565   2.004   4.482  0.00  0.00    +0.000 A 
ATOM     25  C   LIG    1       -1.194   2.519   5.600  0.00  0.00    +0.000 A 
ATOM     26  C   LIG    1       -2.495   2.153   5.891  0.00  0.00    +0.000 A 
ATOM     27  C   LIG    1       -3.168   1.275   5.061  0.00  0.00    +0.000 A 
ATOM     28  C   LIG    1       -2.540   0.764   3.941  0.00  0.00    +0.000 A 
ENDBRANCH  22  23
ENDBRANCH   3  22
TORSDOF 3
