REMARK  Name = ZINCpe00000MBkq9.0
REMARK                            x       y       z     vdW  Elec       q    Type
REMARK                         _______ _______ _______ _____ _____    ______ ____
ROOT
ATOM      1  N   LIG    1       -0.704   1.975   1.216  0.00  0.00    -0.560 N 
ATOM      2  C   LIG    1       -2.019   2.213   1.288  0.00  0.00    +0.710 C 
ATOM      3  N   LIG    1       -2.398   2.636   2.507  0.00  0.00    -0.720 N 
ATOM      4  H   LIG    1       -3.298   2.864   2.788  0.00  0.00    +0.440 HD
ATOM      5  C   LIG    1       -1.179   2.690   3.333  0.00  0.00    +0.170 C 
ATOM      6  C   LIG    1       -0.912   4.120   3.807  0.00  0.00    +0.110 C 
ATOM      7  O   LIG    1       -2.785   2.061   0.357  0.00  0.00    -0.530 OA
ATOM      8  C   LIG    1       -0.088   2.229   2.387  0.00  0.00    +0.540 C 
ATOM      9  O   LIG    1        1.094   2.114   2.633  0.00  0.00    -0.450 OA
ENDROOT
BRANCH   5  10
ATOM     10  C   LIG    1       -1.292   1.752   4.507  0.00  0.00    -0.080 A 
ATOM     11  C   LIG    1       -0.178   1.069   4.955  0.00  0.00    +0.080 A 
ATOM     12  C   LIG    1       -0.278   0.212   6.036  0.00  0.00    +0.030 A 
ATOM     13  C   LIG    1       -1.498   0.030   6.663  0.00  0.00    +0.080 A 
ATOM     14  C   LIG    1       -2.618   0.712   6.210  0.00  0.00    +0.070 A 
ATOM     15  F   LIG    1       -3.810   0.535   6.821  0.00  0.00    -0.120 F 
ATOM     16  F   LIG    1       -1.598  -0.811   7.715  0.00  0.00    -0.120 F 
ATOM     17  C   LIG    1       -2.513   1.573   5.132  0.00  0.00    +0.050 A 
ENDBRANCH   5  10
BRANCH   1  18
ATOM     18  C   LIG    1       -0.018   1.503   0.010  0.00  0.00    +0.360 C 
BRANCH  18  21
ATOM     19  N   LIG    1        0.585  -0.664  -1.018  0.00  0.00    -0.720 N 
ATOM     20  H   LIG    1        0.992  -0.170  -1.747  0.00  0.00    +0.410 HD
ATOM     21  C   LIG    1        0.002  -0.004   0.002  0.00  0.00    +0.500 C 
ATOM     22  O   LIG    1       -0.506  -0.622   0.913  0.00  0.00    -0.530 OA
BRANCH  19  23
ATOM     23  C   LIG    1        0.605  -2.129  -1.026  0.00  0.00    +0.250 C 
ATOM     24  C   LIG    1        1.801  -2.628  -0.213  0.00  0.00    +0.040 C 
BRANCH  23  25
ATOM     25  C   LIG    1        0.724  -2.630  -2.467  0.00  0.00    +0.180 C 
BRANCH  25  27
ATOM     26  C   LIG    1        2.199  -2.651  -4.356  0.00  0.00    +0.200 C 
ATOM     27  O   LIG    1        1.986  -2.232  -3.007  0.00  0.00    -0.390 OA
ENDBRANCH  25  27
ENDBRANCH  23  25
ENDBRANCH  19  23
ENDBRANCH  18  21
ENDBRANCH   1  18
TORSDOF 6
