REMARK  Name = ZINCrH000004sR1d.1
REMARK                            x       y       z     vdW  Elec       q    Type
REMARK                         _______ _______ _______ _____ _____    ______ ____
ROOT
ATOM      1  C   LIG    1       -1.156  -0.694   0.009  0.00  0.00    +0.470 C 
ATOM      2  N   LIG    1        0.002  -0.004   0.002  0.00  0.00    -0.690 NA
ATOM      3  O   LIG    1       -2.214  -0.102   0.023  0.00  0.00    -0.560 OA
ENDROOT
BRANCH   2   4
ATOM      4  C   LIG    1       -0.017   1.386   0.010  0.00  0.00    +0.360 A 
ATOM      5  N   LIG    1       -1.089   2.114   0.018  0.00  0.00    -0.570 NA
ATOM      6  C   LIG    1       -0.923   3.423   0.029  0.00  0.00    +0.260 A 
ATOM      7  C   LIG    1        0.351   3.820   0.019  0.00  0.00    -0.370 A 
ATOM      8  S   LIG    1        1.371   2.384   0.002  0.00  0.00    +0.000 S 
BRANCH   7   9
ATOM      9  C   LIG    1        0.833   5.248   0.022  0.00  0.00    +0.110 C 
ATOM     10  C   LIG    1        1.677   5.506  -1.230  0.00  0.00    +0.060 C 
ATOM     11  C   LIG    1        2.228   6.933  -1.181  0.00  0.00    +0.250 C 
ATOM     12  N   LIG    1        3.062   7.099   0.015  0.00  0.00    -0.500 N 
ATOM     13  C   LIG    1        2.243   6.923   1.221  0.00  0.00    +0.250 C 
ATOM     14  H   LIG    1        3.799   6.410   0.007  0.00  0.00    +0.430 HD
ATOM     15  H   LIG    1        3.467   8.023   0.017  0.00  0.00    +0.430 HD
ATOM     16  C   LIG    1        1.692   5.496   1.265  0.00  0.00    +0.060 C 
ENDBRANCH   7   9
ENDBRANCH   2   4
BRANCH   1  17
ATOM     17  C   LIG    1       -1.135  -2.201   0.001  0.00  0.00    +0.150 C 
BRANCH  17  20
ATOM     18  C   LIG    1       -2.838  -2.864   2.538  0.00  0.00    +0.190 C 
ATOM     19  C   LIG    1       -3.280  -3.007   1.105  0.00  0.00    -0.040 A 
ATOM     20  C   LIG    1       -2.549  -2.722   0.012  0.00  0.00    +0.030 A 
ATOM     21  N   LIG    1       -3.301  -2.990  -1.067  0.00  0.00    -0.450 NA
ATOM     22  C   LIG    1       -4.471  -3.426  -0.665  0.00  0.00    +0.210 A 
ATOM     23  O   LIG    1       -4.483  -3.441   0.679  0.00  0.00    -0.200 OA
BRANCH  22  24
ATOM     24  C   LIG    1       -5.590  -3.830  -1.543  0.00  0.00    -0.000 A 
ATOM     25  C   LIG    1       -5.453  -3.761  -2.930  0.00  0.00    +0.070 A 
ATOM     26  C   LIG    1       -6.499  -4.144  -3.744  0.00  0.00    +0.010 A 
ATOM     27  C   LIG    1       -7.686  -4.587  -3.187  0.00  0.00    +0.020 A 
ATOM     28  C   LIG    1       -7.830  -4.653  -1.813  0.00  0.00    +0.010 A 
ATOM     29  C   LIG    1       -6.790  -4.277  -0.988  0.00  0.00    +0.040 A 
ENDBRANCH  22  24
ENDBRANCH  17  20
ENDBRANCH   1  17
TORSDOF 5
