REMARK  Name = ZINCkj000005h4ql.0
REMARK                            x       y       z     vdW  Elec       q    Type
REMARK                         _______ _______ _______ _____ _____    ______ ____
ROOT
ATOM      1  C   LIG    1        1.292   2.405   0.782  0.00  0.00    +0.280 C 
ATOM      2  N   LIG    1        1.349   0.964   0.521  0.00  0.00    -0.620 N 
ATOM      3  C   LIG    1        2.539   0.359   0.340  0.00  0.00    +0.580 C 
ATOM      4  O   LIG    1        2.583  -0.815   0.026  0.00  0.00    -0.480 OA
ENDROOT
BRANCH   2   5
ATOM      5  C   LIG    1        0.112   0.182   0.457  0.00  0.00    +0.270 C 
ATOM      6  C   LIG    1       -0.686   0.331   1.773  0.00  0.00    +0.070 C 
ATOM      7  C   LIG    1       -1.717   1.437   1.428  0.00  0.00    +0.260 C 
ATOM      8  N   LIG    1       -2.074   1.142   0.016  0.00  0.00    -0.520 N 
ATOM      9  H   LIG    1       -2.746   0.390  -0.023  0.00  0.00    +0.430 HD
ATOM     10  H   LIG    1       -2.448   1.967  -0.428  0.00  0.00    +0.430 HD
ATOM     11  C   LIG    1       -0.814   0.735  -0.642  0.00  0.00    +0.270 C 
ENDBRANCH   2   5
BRANCH   3  12
ATOM     12  C   LIG    1        3.790   1.121   0.524  0.00  0.00    -0.150 A 
ATOM     13  C   LIG    1        4.035   1.791   1.724  0.00  0.00    +0.070 A 
ATOM     14  C   LIG    1        5.205   2.500   1.889  0.00  0.00    +0.010 A 
ATOM     15  C   LIG    1        6.142   2.551   0.870  0.00  0.00    +0.080 A 
ATOM     16  C   LIG    1        5.913   1.893  -0.323  0.00  0.00    -0.010 A 
ATOM     17  C   LIG    1        4.743   1.170  -0.504  0.00  0.00    +0.210 A 
BRANCH  17  18
ATOM     18  N   LIG    1        4.512   0.499  -1.708  0.00  0.00    -0.340 N 
ATOM     19  C   LIG    1        5.394   0.369  -2.733  0.00  0.00    +0.230 A 
ATOM     20  C   LIG    1        4.786  -0.347  -3.707  0.00  0.00    -0.090 A 
ATOM     21  C   LIG    1        3.495  -0.664  -3.268  0.00  0.00    +0.250 A 
ATOM     22  N   LIG    1        3.332  -0.164  -2.071  0.00  0.00    -0.270 NA
ENDBRANCH  17  18
ENDBRANCH   3  12
TORSDOF 3
