REMARK  Name = ZINCpe000000Wm2S.0
REMARK                            x       y       z     vdW  Elec       q    Type
REMARK                         _______ _______ _______ _____ _____    ______ ____
ROOT
ATOM      1  C   LIG    1        8.485   1.526  -1.859  0.00  0.00    +0.350 A 
ATOM      2  N   LIG    1        7.489   0.709  -2.135  0.00  0.00    -0.510 NA
ATOM      3  C   LIG    1        6.369   1.155  -1.562  0.00  0.00    +0.200 A 
ATOM      4  N   LIG    1        6.632   2.268  -0.916  0.00  0.00    -0.320 NA
ATOM      5  N   LIG    1        8.002   2.527  -1.089  0.00  0.00    -0.470 N 
ATOM      6  H   LIG    1        8.501   3.278  -0.731  0.00  0.00    +0.440 HD
ENDROOT
BRANCH   1  10
ATOM      7  C   LIG    1       12.507   1.094  -3.160  0.00  0.00    +0.150 A 
ATOM      8  C   LIG    1       11.555   0.151  -3.527  0.00  0.00    -0.010 A 
ATOM      9  C   LIG    1       10.250   0.288  -3.107  0.00  0.00    +0.130 A 
ATOM     10  C   LIG    1        9.885   1.375  -2.311  0.00  0.00    -0.080 A 
ATOM     11  C   LIG    1       10.843   2.323  -1.949  0.00  0.00    +0.080 A 
ATOM     12  C   LIG    1       12.148   2.177  -2.369  0.00  0.00    -0.070 A 
BRANCH   7  14
ATOM     13  C   LIG    1       14.720   1.962  -3.164  0.00  0.00    +0.240 C 
ATOM     14  O   LIG    1       13.793   0.956  -3.577  0.00  0.00    -0.310 OA
ENDBRANCH   7  14
ENDBRANCH   1  10
BRANCH   3  15
ATOM     15  S   LIG    1        4.789   0.381  -1.663  0.00  0.00    +0.110 S 
BRANCH  15  16
ATOM     16  C   LIG    1        3.732   1.482  -0.683  0.00  0.00    +0.090 C 
BRANCH  16  17
ATOM     17  C   LIG    1        2.323   0.947  -0.673  0.00  0.00    +0.540 C 
ATOM     18  N   LIG    1        1.357   1.606  -0.002  0.00  0.00    -0.710 N 
ATOM     19  H   LIG    1        1.569   2.424   0.473  0.00  0.00    +0.410 HD
ATOM     20  O   LIG    1        2.058  -0.076  -1.268  0.00  0.00    -0.510 OA
BRANCH  18  21
ATOM     21  C   LIG    1       -0.013   1.086   0.008  0.00  0.00    +0.270 C 
ATOM     22  C   LIG    1       -0.761   1.596   1.252  0.00  0.00    +0.070 C 
ATOM     23  C   LIG    1       -2.267   1.324   1.069  0.00  0.00    -0.300 C 
ATOM     24  S   LIG    1       -2.538   1.341  -0.740  0.00  0.00    +2.390 S 
ATOM     25  O   LIG    1       -3.310   2.482  -1.090  0.00  0.00    -0.930 OA
ATOM     26  O   LIG    1       -2.949   0.050  -1.166  0.00  0.00    -0.930 OA
ATOM     27  C   LIG    1       -0.790   1.613  -1.226  0.00  0.00    -0.320 C 
ENDBRANCH  18  21
ENDBRANCH  16  17
ENDBRANCH  15  16
ENDBRANCH   3  15
TORSDOF 6
