REMARK  Name = ZINCpe000000Wm2S.1
REMARK                            x       y       z     vdW  Elec       q    Type
REMARK                         _______ _______ _______ _____ _____    ______ ____
ROOT
ATOM      1  C   LIG    1       -2.528   3.868   0.046  0.00  0.00    +0.290 A 
ATOM      2  N   LIG    1       -2.671   5.175   0.054  0.00  0.00    -0.300 NA
ATOM      3  N   LIG    1       -4.051   5.435   0.069  0.00  0.00    -0.460 N 
ATOM      4  H   LIG    1       -4.476   6.306   0.077  0.00  0.00    +0.450 HD
ATOM      5  C   LIG    1       -4.668   4.233   0.069  0.00  0.00    +0.250 A 
ATOM      6  N   LIG    1       -3.742   3.299   0.050  0.00  0.00    -0.530 NA
ENDROOT
BRANCH   1  10
ATOM      7  C   LIG    1        1.181   1.786   0.000  0.00  0.00    +0.150 A 
ATOM      8  C   LIG    1       -0.013   1.076   0.008  0.00  0.00    -0.020 A 
ATOM      9  C   LIG    1       -1.216   1.748   0.017  0.00  0.00    +0.110 A 
ATOM     10  C   LIG    1       -1.234   3.142   0.030  0.00  0.00    -0.060 A 
ATOM     11  C   LIG    1       -0.035   3.852   0.023  0.00  0.00    +0.090 A 
ATOM     12  C   LIG    1        1.166   3.174   0.008  0.00  0.00    -0.070 A 
BRANCH   7  14
ATOM     13  C   LIG    1        3.554   1.913  -0.022  0.00  0.00    +0.240 C 
ATOM     14  O   LIG    1        2.365   1.120  -0.015  0.00  0.00    -0.310 OA
ENDBRANCH   7  14
ENDBRANCH   1  10
BRANCH   5  15
ATOM     15  S   LIG    1       -6.409   3.964   0.083  0.00  0.00    +0.090 S 
BRANCH  15  16
ATOM     16  C   LIG    1       -6.448   2.154   0.075  0.00  0.00    +0.110 C 
BRANCH  16  17
ATOM     17  C   LIG    1       -7.879   1.682   0.086  0.00  0.00    +0.540 C 
ATOM     18  N   LIG    1       -8.153   0.362   0.082  0.00  0.00    -0.710 N 
ATOM     19  H   LIG    1       -7.430  -0.283   0.072  0.00  0.00    +0.410 HD
ATOM     20  O   LIG    1       -8.784   2.490   0.098  0.00  0.00    -0.510 OA
BRANCH  18  21
ATOM     21  C   LIG    1       -9.544  -0.096   0.092  0.00  0.00    +0.270 C 
ATOM     22  C   LIG    1       -9.638  -1.510  -0.509  0.00  0.00    +0.070 C 
ATOM     23  C   LIG    1      -11.024  -2.097  -0.179  0.00  0.00    -0.300 C 
ATOM     24  S   LIG    1      -11.526  -1.285   1.381  0.00  0.00    +2.400 S 
ATOM     25  O   LIG    1      -11.532  -2.243   2.430  0.00  0.00    -0.930 OA
ATOM     26  O   LIG    1      -12.677  -0.485   1.147  0.00  0.00    -0.930 OA
ATOM     27  C   LIG    1      -10.058  -0.200   1.552  0.00  0.00    -0.320 C 
ENDBRANCH  18  21
ENDBRANCH  16  17
ENDBRANCH  15  16
ENDBRANCH   5  15
TORSDOF 6
