REMARK  Name = ZINCrg00000y1y70.0
REMARK                            x       y       z     vdW  Elec       q    Type
REMARK                         _______ _______ _______ _____ _____    ______ ____
ROOT
ATOM      1  C   LIG    1        1.923   7.952   1.535  0.00  0.00    +0.430 A 
ATOM      2  C   LIG    1        1.865   7.331   0.275  0.00  0.00    -0.050 A 
ATOM      3  N   LIG    1        1.716   7.771  -0.997  0.00  0.00    -0.450 NA
ATOM      4  C   LIG    1        1.731   6.756  -1.811  0.00  0.00    +0.490 A 
ATOM      5  N   LIG    1        1.891   5.598  -1.109  0.00  0.00    -0.470 N 
ATOM      6  C   LIG    1        1.974   5.931   0.219  0.00  0.00    +0.280 A 
ATOM      7  N   LIG    1        2.136   5.251   1.349  0.00  0.00    -0.530 NA
ATOM      8  C   LIG    1        2.185   5.875   2.507  0.00  0.00    +0.540 A 
ATOM      9  N   LIG    1        2.082   7.187   2.610  0.00  0.00    -0.560 NA
ENDROOT
BRANCH   1  10
ATOM     10  N   LIG    1        1.816   9.326   1.653  0.00  0.00    -0.460 N 
BRANCH  10  12
ATOM     11  C   LIG    1        4.191   9.626   2.172  0.00  0.00    -0.010 C 
ATOM     12  C   LIG    1        3.052   9.989   1.216  0.00  0.00    +0.250 C 
ENDBRANCH  10  12
BRANCH  10  13
ATOM     13  C   LIG    1        1.469   9.711   3.027  0.00  0.00    +0.190 C 
BRANCH  13  14
ATOM     14  C   LIG    1        0.962  11.155   3.040  0.00  0.00    +0.270 C 
BRANCH  14  15
ATOM     15  C   LIG    1        0.457  11.498   4.417  0.00  0.00    -0.120 A 
ATOM     16  C   LIG    1        1.338  11.933   5.389  0.00  0.00    +0.010 A 
ATOM     17  C   LIG    1        0.873  12.252   6.651  0.00  0.00    +0.000 A 
ATOM     18  C   LIG    1       -0.472  12.126   6.945  0.00  0.00    -0.080 A 
ATOM     19  C   LIG    1       -1.352  11.685   5.974  0.00  0.00    +0.000 A 
ATOM     20  C   LIG    1       -0.977  12.468   8.322  0.00  0.00    +0.090 C 
ATOM     21  C   LIG    1       -0.888  11.371   4.711  0.00  0.00    +0.020 A 
ENDBRANCH  14  15
BRANCH  14  22
ATOM     22  O   LIG    1        2.031  12.038   2.691  0.00  0.00    -0.550 OA
ATOM     23  H   LIG    1        2.787  11.996   3.292  0.00  0.00    +0.370 HD
ENDBRANCH  14  22
ENDBRANCH  13  14
ENDBRANCH  10  13
ENDBRANCH   1  10
BRANCH   5  24
ATOM     24  C   LIG    1        1.957   4.247  -1.669  0.00  0.00    +0.300 C 
BRANCH  24  25
ATOM     25  C   LIG    1        0.567   3.607  -1.624  0.00  0.00    +0.200 C 
BRANCH  25  26
ATOM     26  O   LIG    1       -0.318   4.330  -2.482  0.00  0.00    -0.540 OA
ATOM     27  H   LIG    1       -0.042   4.346  -3.408  0.00  0.00    +0.370 HD
ENDBRANCH  25  26
BRANCH  25  28
ATOM     28  C   LIG    1        0.658   2.154  -2.092  0.00  0.00    +0.160 C 
BRANCH  28  29
ATOM     29  O   LIG    1       -0.615   1.523  -1.940  0.00  0.00    -0.560 OA
ATOM     30  H   LIG    1       -0.631   0.597  -2.218  0.00  0.00    +0.380 HD
ENDBRANCH  28  29
ENDBRANCH  25  28
ENDBRANCH  24  25
ENDBRANCH   5  24
TORSDOF 11
