REMARK  Name = ZINCrD00000hQ4Yn.0
REMARK                            x       y       z     vdW  Elec       q    Type
REMARK                         _______ _______ _______ _____ _____    ______ ____
ROOT
ATOM      1  N   LIG    1        2.772  -5.294  -0.046  0.00  0.00    -0.650 N 
ATOM      2  H   LIG    1        2.382  -6.182  -0.046  0.00  0.00    +0.410 HD
ATOM      3  C   LIG    1        4.112  -5.146  -0.063  0.00  0.00    +0.710 C 
ATOM      4  N   LIG    1        4.910  -6.228   0.026  0.00  0.00    -0.620 N 
ATOM      5  C   LIG    1        4.338  -7.582   0.033  0.00  0.00    +0.270 C 
ATOM      6  C   LIG    1        5.020  -8.405  -1.070  0.00  0.00    +0.020 C 
ATOM      7  C   LIG    1        6.536  -8.363  -0.868  0.00  0.00    -0.010 C 
ATOM      8  C   LIG    1        7.026  -6.917  -0.974  0.00  0.00    +0.020 C 
ATOM      9  C   LIG    1        6.368  -6.077   0.124  0.00  0.00    +0.300 C 
ATOM     10  O   LIG    1        4.600  -4.036  -0.159  0.00  0.00    -0.580 OA
ENDROOT
BRANCH   1  16
ATOM     11  C   LIG    1       -0.341  -5.389  -0.007  0.00  0.00    +0.150 C 
ATOM     12  C   LIG    1        0.536  -4.164  -0.012  0.00  0.00    +0.070 A 
ATOM     13  N   LIG    1        0.119  -2.923   0.006  0.00  0.00    -0.270 NA
ATOM     14  N   LIG    1        1.238  -2.081  -0.010  0.00  0.00    -0.320 N 
ATOM     15  C   LIG    1        2.350  -2.865  -0.029  0.00  0.00    +0.240 A 
ATOM     16  C   LIG    1        1.939  -4.159  -0.030  0.00  0.00    +0.020 A 
BRANCH  14  17
ATOM     17  C   LIG    1        1.216  -0.680  -0.003  0.00  0.00    +0.170 A 
ATOM     18  C   LIG    1        0.004  -0.003   0.017  0.00  0.00    +0.020 A 
ATOM     19  C   LIG    1       -0.015   1.378   0.024  0.00  0.00    +0.030 A 
ATOM     20  C   LIG    1        1.173   2.087   0.013  0.00  0.00    +0.000 A 
ATOM     21  C   LIG    1        2.382   1.416  -0.006  0.00  0.00    +0.040 A 
ATOM     22  C   LIG    1        2.406   0.035  -0.014  0.00  0.00    -0.010 A 
ENDBRANCH  14  17
ENDBRANCH   1  16
BRANCH   7  23
ATOM     23  C   LIG    1        7.218  -9.213  -1.942  0.00  0.00    +0.330 C 
BRANCH  23  24
ATOM     24  N   LIG    1        6.841 -10.618  -1.765  0.00  0.00    -0.370 N 
ATOM     25  C   LIG    1        6.287 -11.415  -2.703  0.00  0.00    +0.220 A 
ATOM     26  C   LIG    1        6.093 -12.633  -2.146  0.00  0.00    -0.120 A 
ATOM     27  C   LIG    1        6.543 -12.578  -0.823  0.00  0.00    +0.220 A 
ATOM     28  N   LIG    1        6.996 -11.372  -0.595  0.00  0.00    -0.290 NA
ENDBRANCH  23  24
ENDBRANCH   7  23
TORSDOF 4
