REMARK  Name = ZINCqH0000038zoz.0
REMARK                            x       y       z     vdW  Elec       q    Type
REMARK                         _______ _______ _______ _____ _____    ______ ____
ROOT
ATOM      1  N   LIG    1       -0.897   5.046  -2.397  0.00  0.00    -0.690 N 
ATOM      2  H   LIG    1       -0.759   5.513  -1.558  0.00  0.00    +0.410 HD
ATOM      3  C   LIG    1       -1.064   3.709  -2.404  0.00  0.00    +0.710 C 
ATOM      4  N   LIG    1       -0.936   3.007  -1.260  0.00  0.00    -0.720 N 
ATOM      5  H   LIG    1       -0.724   3.465  -0.432  0.00  0.00    +0.390 HD
ATOM      6  O   LIG    1       -1.331   3.135  -3.442  0.00  0.00    -0.570 OA
ENDROOT
BRANCH   1  10
ATOM      7  C   LIG    1       -0.970   7.178  -5.981  0.00  0.00    -0.200 A 
ATOM      8  C   LIG    1       -1.450   7.762  -4.815  0.00  0.00    +0.110 A 
ATOM      9  C   LIG    1       -1.425   7.056  -3.629  0.00  0.00    -0.030 A 
ATOM     10  C   LIG    1       -0.921   5.762  -3.601  0.00  0.00    +0.220 A 
ATOM     11  C   LIG    1       -0.437   5.180  -4.765  0.00  0.00    +0.020 A 
ATOM     12  C   LIG    1       -0.466   5.883  -5.952  0.00  0.00    +0.110 A 
BRANCH   7  13
ATOM     13  S   LIG    1       -1.000   8.078  -7.495  0.00  0.00    +0.120 S 
BRANCH  13  18
ATOM     14  C   LIG    1        3.120  10.704  -9.288  0.00  0.00    +0.160 C 
ATOM     15  C   LIG    1        2.381   9.895  -8.254  0.00  0.00    +0.080 A 
ATOM     16  C   LIG    1        2.916   9.568  -7.077  0.00  0.00    -0.090 A 
ATOM     17  S   LIG    1        1.725   8.635  -6.175  0.00  0.00    +0.140 S 
ATOM     18  C   LIG    1        0.622   8.767  -7.474  0.00  0.00    +0.010 A 
ATOM     19  N   LIG    1        1.151   9.453  -8.440  0.00  0.00    -0.460 NA
ENDBRANCH  13  18
ENDBRANCH   7  13
ENDBRANCH   1  10
BRANCH   4  20
ATOM     20  C   LIG    1       -1.119   1.554  -1.268  0.00  0.00    +0.290 C 
ATOM     21  C   LIG    1       -2.607   1.226  -1.131  0.00  0.00    +0.030 C 
ATOM     22  C   LIG    1       -3.136   1.799   0.185  0.00  0.00    +0.010 C 
ATOM     23  C   LIG    1       -2.368   1.182   1.355  0.00  0.00    +0.020 C 
ATOM     24  C   LIG    1       -0.880   1.510   1.218  0.00  0.00    +0.030 C 
ATOM     25  C   LIG    1       -0.350   0.937  -0.098  0.00  0.00    +0.000 C 
BRANCH  25  26
ATOM     26  C   LIG    1        1.115   1.260  -0.233  0.00  0.00    +0.520 C 
ATOM     27  O   LIG    1        1.507   1.919  -1.173  0.00  0.00    -0.530 OA
ATOM     28  N   LIG    1        1.991   0.817   0.691  0.00  0.00    -0.860 N 
ATOM     29  H   LIG    1        2.934   1.025   0.604  0.00  0.00    +0.400 HD
ATOM     30  H   LIG    1        1.678   0.290   1.442  0.00  0.00    +0.400 HD
ENDBRANCH  25  26
ENDBRANCH   4  20
TORSDOF 5
