REMARK  Name = ZINCrD0000075pZm.0
REMARK                            x       y       z     vdW  Elec       q    Type
REMARK                         _______ _______ _______ _____ _____    ______ ____
ROOT
ATOM      1  O   LIG    1       -0.029   0.002   0.324  0.00  0.00    -0.510 OA
ATOM      2  C   LIG    1       -0.027   1.205   0.176  0.00  0.00    +0.520 C 
ATOM      3  N   LIG    1       -1.191   1.867   0.018  0.00  0.00    -0.670 N 
ATOM      4  H   LIG    1       -1.196   2.836  -0.024  0.00  0.00    +0.420 HD
ENDROOT
BRANCH   3   5
ATOM      5  C   LIG    1       -2.391   1.155  -0.086  0.00  0.00    +0.150 A 
ATOM      6  C   LIG    1       -3.565   1.695   0.424  0.00  0.00    +0.000 A 
ATOM      7  C   LIG    1       -4.754   0.997   0.324  0.00  0.00    +0.050 A 
ATOM      8  C   LIG    1       -4.783  -0.241  -0.285  0.00  0.00    +0.020 A 
ATOM      9  C   LIG    1       -3.608  -0.793  -0.800  0.00  0.00    +0.000 A 
ATOM     10  C   LIG    1       -2.410  -0.086  -0.703  0.00  0.00    +0.040 A 
BRANCH   9  11
ATOM     11  C   LIG    1       -3.636  -2.120  -1.452  0.00  0.00    -0.000 A 
ATOM     12  C   LIG    1       -4.723  -2.915  -1.622  0.00  0.00    +0.170 A 
ATOM     13  N   LIG    1       -4.316  -4.025  -2.257  0.00  0.00    -0.490 NA
ATOM     14  C   LIG    1       -3.034  -3.938  -2.478  0.00  0.00    +0.430 A 
ATOM     15  O   LIG    1       -2.585  -2.771  -1.998  0.00  0.00    -0.200 OA
ENDBRANCH   9  11
ENDBRANCH   3   5
BRANCH   2  16
ATOM     16  C   LIG    1        1.277   1.961   0.162  0.00  0.00    +0.080 C 
BRANCH  16  17
ATOM     17  C   LIG    1        2.436   0.981   0.354  0.00  0.00    +0.230 C 
BRANCH  17  18
ATOM     18  C   LIG    1        3.740   1.737   0.340  0.00  0.00    +0.190 A 
ATOM     19  N   LIG    1        4.347   2.260   1.376  0.00  0.00    -0.470 NA
ATOM     20  C   LIG    1        5.472   2.830   0.888  0.00  0.00    +0.220 A 
ATOM     21  N   LIG    1        5.478   2.629  -0.404  0.00  0.00    -0.370 NA
ATOM     22  O   LIG    1        4.492   2.004  -0.733  0.00  0.00    +0.090 OA
BRANCH  20  23
ATOM     23  C   LIG    1        6.503   3.555   1.672  0.00  0.00    -0.080 A 
ATOM     24  C   LIG    1        7.620   4.104   1.038  0.00  0.00    +0.100 A 
ATOM     25  C   LIG    1        8.554   4.771   1.813  0.00  0.00    -0.020 A 
ATOM     26  C   LIG    1        8.352   4.871   3.178  0.00  0.00    +0.280 A 
ATOM     27  N   LIG    1        7.287   4.342   3.748  0.00  0.00    -0.480 NA
ATOM     28  C   LIG    1        6.370   3.703   3.051  0.00  0.00    +0.320 A 
ENDBRANCH  20  23
ENDBRANCH  17  18
ENDBRANCH  16  17
ENDBRANCH   2  16
TORSDOF 6
