REMARK  Name = ZINCrg00000AuQ3H.0
REMARK                            x       y       z     vdW  Elec       q    Type
REMARK                         _______ _______ _______ _____ _____    ______ ____
ROOT
ATOM      1  C   LIG    1        6.228   6.119   2.816  0.00  0.00    +0.240 C 
ATOM      2  C   LIG    1        5.774   7.440   2.181  0.00  0.00    +0.270 C 
ATOM      3  N   LIG    1        4.635   6.711   1.604  0.00  0.00    -0.640 N 
ATOM      4  C   LIG    1        3.844   6.846   0.521  0.00  0.00    +0.550 C 
ATOM      5  O   LIG    1        4.023   7.765  -0.250  0.00  0.00    -0.530 OA
ATOM      6  C   LIG    1        4.732   5.775   2.734  0.00  0.00    +0.290 C 
ENDROOT
BRANCH   1   8
ATOM      7  C   LIG    1        8.336   4.985   2.357  0.00  0.00    +0.580 C 
ATOM      8  N   LIG    1        7.089   5.303   1.956  0.00  0.00    -0.590 N 
ATOM      9  C   LIG    1        6.595   4.833   0.660  0.00  0.00    +0.290 C 
ATOM     10  O   LIG    1        8.777   5.444   3.394  0.00  0.00    -0.530 OA
BRANCH   7  15
ATOM     11  C   LIG    1       11.575   1.410  -0.698  0.00  0.00    +0.130 C 
ATOM     12  C   LIG    1       10.717   2.364   0.092  0.00  0.00    +0.210 A 
ATOM     13  C   LIG    1       10.112   3.427  -0.555  0.00  0.00    -0.100 A 
ATOM     14  C   LIG    1        9.319   4.301   0.167  0.00  0.00    +0.140 A 
ATOM     15  C   LIG    1        9.165   4.081   1.540  0.00  0.00    -0.270 A 
ATOM     16  C   LIG    1        9.812   2.979   2.125  0.00  0.00    +0.460 A 
ATOM     17  N   LIG    1       10.556   2.170   1.386  0.00  0.00    -0.550 NA
BRANCH  16  18
ATOM     18  N   LIG    1        9.671   2.738   3.479  0.00  0.00    -0.840 N 
ATOM     19  H   LIG    1       10.056   1.939   3.873  0.00  0.00    +0.410 HD
ATOM     20  H   LIG    1        9.187   3.368   4.036  0.00  0.00    +0.420 HD
ENDBRANCH  16  18
ENDBRANCH   7  15
ENDBRANCH   1   8
BRANCH   4  21
ATOM     21  C   LIG    1        2.739   5.853   0.267  0.00  0.00    -0.010 C 
ATOM     22  C   LIG    1        1.760   5.869   1.442  0.00  0.00    +0.060 C 
BRANCH  21  23
ATOM     23  C   LIG    1        1.999   6.232  -1.018  0.00  0.00    +0.340 C 
BRANCH  23  24
ATOM     24  N   LIG    1        1.004   5.203  -1.330  0.00  0.00    -0.370 N 
ATOM     25  C   LIG    1       -0.315   5.409  -1.528  0.00  0.00    +0.230 A 
ATOM     26  C   LIG    1       -0.884   4.211  -1.795  0.00  0.00    -0.120 A 
ATOM     27  C   LIG    1        0.120   3.238  -1.750  0.00  0.00    +0.070 A 
ATOM     28  C   LIG    1       -0.069   1.762  -1.984  0.00  0.00    +0.160 C 
ATOM     29  N   LIG    1        1.253   3.832  -1.474  0.00  0.00    -0.300 NA
ENDBRANCH  23  24
ENDBRANCH  21  23
ENDBRANCH   4  21
TORSDOF 6
