REMARK  Name = ZINCkj000005j0Wc.1
REMARK                            x       y       z     vdW  Elec       q    Type
REMARK                         _______ _______ _______ _____ _____    ______ ____
ROOT
ATOM      1  C   LIG    1       -1.252   6.262  -0.360  0.00  0.00    +0.510 C 
ATOM      2  N   LIG    1       -0.085   5.588  -0.353  0.00  0.00    -0.640 N 
ATOM      3  H   LIG    1        0.741   6.050  -0.141  0.00  0.00    +0.420 HD
ATOM      4  O   LIG    1       -2.295   5.666  -0.526  0.00  0.00    -0.500 OA
ENDROOT
BRANCH   2   5
ATOM      5  C   LIG    1       -0.064   4.225  -0.652  0.00  0.00    +0.150 A 
ATOM      6  C   LIG    1        0.845   3.388  -0.013  0.00  0.00    +0.010 A 
ATOM      7  C   LIG    1        0.869   2.043  -0.305  0.00  0.00    +0.100 A 
ATOM      8  C   LIG    1       -0.022   1.518  -1.246  0.00  0.00    -0.020 A 
ATOM      9  C   LIG    1       -0.931   2.363  -1.889  0.00  0.00    +0.090 A 
ATOM     10  C   LIG    1       -0.953   3.706  -1.588  0.00  0.00    +0.020 A 
BRANCH   8  11
ATOM     11  C   LIG    1       -0.001   0.120  -1.552  0.00  0.00    +0.240 C 
ATOM     12  N   LIG    1        0.017  -0.990  -1.796  0.00  0.00    -0.390 NA
ENDBRANCH   8  11
ENDBRANCH   2   5
BRANCH   1  14
ATOM     13  C   LIG    1       -0.565   8.100   1.155  0.00  0.00    +0.110 C 
ATOM     14  C   LIG    1       -1.261   7.756  -0.163  0.00  0.00    +0.180 C 
BRANCH  14  15
ATOM     15  N   LIG    1       -2.648   8.236  -0.124  0.00  0.00    -0.370 N 
ATOM     16  C   LIG    1       -3.310   7.721   1.080  0.00  0.00    +0.250 C 
ATOM     17  C   LIG    1       -4.778   8.152   1.085  0.00  0.00    +0.040 C 
ATOM     18  C   LIG    1       -4.856   9.681   1.072  0.00  0.00    +0.170 C 
ATOM     19  C   LIG    1       -4.099  10.211  -0.149  0.00  0.00    +0.080 C 
ATOM     20  C   LIG    1       -2.656   9.704  -0.107  0.00  0.00    +0.280 C 
ATOM     21  H   LIG    1       -3.140   7.908  -0.942  0.00  0.00    +0.430 HD
BRANCH  18  22
ATOM     22  O   LIG    1       -6.223  10.089   1.001  0.00  0.00    -0.550 OA
ATOM     23  H   LIG    1       -6.763   9.788   1.745  0.00  0.00    +0.390 HD
ENDBRANCH  18  22
ENDBRANCH  14  15
ENDBRANCH   1  14
TORSDOF 5
