REMARK  Name = ZINCrD000000fDqR.0
REMARK                            x       y       z     vdW  Elec       q    Type
REMARK                         _______ _______ _______ _____ _____    ______ ____
ROOT
ATOM      1  C   LIG    1       -7.335   2.680   0.878  0.00  0.00    +0.180 C 
ATOM      2  C   LIG    1       -7.488   1.802   2.121  0.00  0.00    +0.020 C 
ATOM      3  C   LIG    1       -6.554   0.595   2.011  0.00  0.00    +0.000 C 
ATOM      4  C   LIG    1       -6.915  -0.217   0.765  0.00  0.00    +0.030 C 
ATOM      5  C   LIG    1       -6.761   0.661  -0.478  0.00  0.00    +0.000 C 
ATOM      6  C   LIG    1       -5.314   1.145  -0.586  0.00  0.00    +0.040 C 
ATOM      7  C   LIG    1       -4.953   1.956   0.660  0.00  0.00    -0.060 C 
ATOM      8  C   LIG    1       -5.106   1.078   1.903  0.00  0.00    +0.030 C 
ATOM      9  C   LIG    1       -5.887   3.163   0.770  0.00  0.00    +0.060 C 
ATOM     10  C   LIG    1       -7.695   1.868  -0.368  0.00  0.00    +0.020 C 
ENDROOT
BRANCH   1  13
ATOM     11  C   LIG    1      -10.479   4.839   1.198  0.00  0.00    +0.100 C 
ATOM     12  C   LIG    1       -9.560   3.651   1.089  0.00  0.00    +0.510 C 
ATOM     13  N   LIG    1       -8.229   3.836   0.983  0.00  0.00    -0.730 N 
ATOM     14  H   LIG    1       -7.863   4.734   0.977  0.00  0.00    +0.400 HD
ATOM     15  O   LIG    1      -10.017   2.527   1.097  0.00  0.00    -0.540 OA
ENDBRANCH   1  13
BRANCH   7  16
ATOM     16  C   LIG    1       -3.527   2.433   0.554  0.00  0.00    +0.520 C 
ATOM     17  N   LIG    1       -2.524   1.539   0.447  0.00  0.00    -0.670 N 
ATOM     18  H   LIG    1       -2.713   0.589   0.503  0.00  0.00    +0.420 HD
ATOM     19  O   LIG    1       -3.282   3.620   0.566  0.00  0.00    -0.510 OA
BRANCH  17  20
ATOM     20  C   LIG    1       -1.211   1.980   0.255  0.00  0.00    +0.150 A 
ATOM     21  C   LIG    1       -0.342   1.252  -0.547  0.00  0.00    +0.060 A 
ATOM     22  C   LIG    1        0.956   1.687  -0.730  0.00  0.00    +0.050 A 
ATOM     23  C   LIG    1        1.389   2.850  -0.120  0.00  0.00    -0.040 A 
ATOM     24  C   LIG    1        0.524   3.582   0.673  0.00  0.00    -0.020 A 
ATOM     25  C   LIG    1        2.806   3.322  -0.322  0.00  0.00    +0.120 C 
ATOM     26  C   LIG    1       -0.774   3.152   0.861  0.00  0.00    +0.100 A 
BRANCH  24  27
ATOM     27  N   LIG    1        0.992   4.826   1.324  0.00  0.00    +0.020 N 
ATOM     28  O   LIG    1        0.245   5.785   1.412  0.00  0.00    -0.150 OA
ATOM     29  O   LIG    1        2.123   4.892   1.771  0.00  0.00    -0.150 OA
ENDBRANCH  24  27
ENDBRANCH  17  20
ENDBRANCH   7  16
TORSDOF 4
