REMARK  Name = ZINCvU0000000FR3.0
REMARK                            x       y       z     vdW  Elec       q    Type
REMARK                         _______ _______ _______ _____ _____    ______ ____
ROOT
ATOM      1  O   LIG    1        9.712  -0.053   0.015  0.00  0.00    -0.500 OA
ATOM      2  C   LIG    1        9.694   1.160   0.021  0.00  0.00    +0.530 C 
ATOM      3  N   LIG    1        8.520   1.817  -0.067  0.00  0.00    -0.670 N 
ATOM      4  H   LIG    1        8.510   2.784  -0.140  0.00  0.00    +0.420 HD
ENDROOT
BRANCH   3   5
ATOM      5  C   LIG    1        7.316   1.103  -0.053  0.00  0.00    +0.140 A 
ATOM      6  C   LIG    1        6.228   1.563  -0.786  0.00  0.00    -0.010 A 
ATOM      7  C   LIG    1        5.036   0.862  -0.776  0.00  0.00    +0.030 A 
ATOM      8  C   LIG    1        4.918  -0.298  -0.039  0.00  0.00    +0.010 A 
ATOM      9  C   LIG    1        6.006  -0.769   0.701  0.00  0.00    -0.050 A 
ATOM     10  C   LIG    1        7.208  -0.058   0.695  0.00  0.00    +0.040 A 
BRANCH   9  11
ATOM     11  C   LIG    1        5.884  -2.008   1.490  0.00  0.00    +0.080 C 
ATOM     12  C   LIG    1        4.725  -2.687   1.498  0.00  0.00    +0.010 C 
BRANCH  12  13
ATOM     13  C   LIG    1        4.603  -3.925   2.286  0.00  0.00    +0.160 A 
ATOM     14  C   LIG    1        3.395  -4.627   2.292  0.00  0.00    -0.020 A 
ATOM     15  C   LIG    1        3.295  -5.786   3.041  0.00  0.00    +0.070 A 
ATOM     16  C   LIG    1        4.407  -6.213   3.753  0.00  0.00    -0.040 A 
ATOM     17  C   LIG    1        5.573  -5.470   3.704  0.00  0.00    +0.270 A 
ATOM     18  N   LIG    1        5.643  -4.367   2.987  0.00  0.00    -0.480 NA
ENDBRANCH  12  13
ENDBRANCH   9  11
ENDBRANCH   3   5
BRANCH   2  19
ATOM     19  C   LIG    1       10.983   1.932   0.126  0.00  0.00    +0.110 C 
BRANCH  19  20
ATOM     20  S   LIG    1       12.372   0.776   0.228  0.00  0.00    +0.100 S 
BRANCH  20  21
ATOM     21  C   LIG    1       13.712   1.916   0.338  0.00  0.00    +0.150 A 
ATOM     22  N   LIG    1       13.625   3.226   0.333  0.00  0.00    -0.290 NA
ATOM     23  N   LIG    1       14.797   3.743   0.432  0.00  0.00    -0.280 NA
ATOM     24  C   LIG    1       15.698   2.804   0.497  0.00  0.00    +0.400 A 
ATOM     25  N   LIG    1       15.040   1.604   0.440  0.00  0.00    -0.420 N 
BRANCH  25  26
ATOM     26  C   LIG    1       15.608   0.323   0.478  0.00  0.00    +0.120 A 
ATOM     27  C   LIG    1       15.119  -0.630   1.362  0.00  0.00    +0.040 A 
ATOM     28  C   LIG    1       15.678  -1.893   1.393  0.00  0.00    +0.070 A 
ATOM     29  C   LIG    1       16.730  -2.206   0.554  0.00  0.00    +0.050 A 
ATOM     30  C   LIG    1       17.224  -1.258  -0.325  0.00  0.00    -0.020 A 
ATOM     31 CL   LIG    1       18.546  -1.655  -1.378  0.00  0.00    -0.050 Cl
ATOM     32  C   LIG    1       16.665   0.006  -0.364  0.00  0.00    +0.040 A 
ENDBRANCH  25  26
ENDBRANCH  20  21
ENDBRANCH  19  20
ENDBRANCH   2  19
TORSDOF 7
