REMARK  Name = ZINCrD00000l0Gjn.0
REMARK                            x       y       z     vdW  Elec       q    Type
REMARK                         _______ _______ _______ _____ _____    ______ ____
ROOT
ATOM      1  O   LIG    1        2.266   1.202  -2.123  0.00  0.00    -0.520 OA
ATOM      2  C   LIG    1        2.998   0.794  -1.246  0.00  0.00    +0.520 C 
ATOM      3  N   LIG    1        4.136   0.146  -1.565  0.00  0.00    -0.730 N 
ATOM      4  H   LIG    1        4.721  -0.180  -0.864  0.00  0.00    +0.400 HD
ENDROOT
BRANCH   3   5
ATOM      5  C   LIG    1        4.489  -0.066  -2.971  0.00  0.00    +0.390 C 
BRANCH   5   6
ATOM      6  C   LIG    1        5.798  -0.808  -3.054  0.00  0.00    -0.020 A 
ATOM      7  C   LIG    1        7.027  -0.254  -3.214  0.00  0.00    +0.020 A 
ATOM      8  O   LIG    1        7.916  -1.271  -3.233  0.00  0.00    -0.190 OA
ATOM      9  C   LIG    1        7.230  -2.414  -3.096  0.00  0.00    +0.440 A 
ATOM     10  N   LIG    1        5.960  -2.138  -2.989  0.00  0.00    -0.470 NA
BRANCH   7  11
ATOM     11  C   LIG    1        7.334   1.187  -3.340  0.00  0.00    -0.030 A 
ATOM     12  C   LIG    1        8.191   1.636  -4.345  0.00  0.00    +0.040 A 
ATOM     13  C   LIG    1        8.469   2.982  -4.460  0.00  0.00    +0.010 A 
ATOM     14  C   LIG    1        7.909   3.885  -3.575  0.00  0.00    +0.030 A 
ATOM     15  C   LIG    1        7.063   3.447  -2.572  0.00  0.00    +0.010 A 
ATOM     16  C   LIG    1        6.772   2.104  -2.450  0.00  0.00    +0.040 A 
ENDBRANCH   7  11
ENDBRANCH   5   6
ENDBRANCH   3   5
BRANCH   2  17
ATOM     17  C   LIG    1        2.634   1.012   0.200  0.00  0.00    +0.120 C 
BRANCH  17  18
ATOM     18  C   LIG    1        1.326   1.754   0.283  0.00  0.00    -0.080 A 
ATOM     19  C   LIG    1        0.136   1.052   0.329  0.00  0.00    +0.050 A 
ATOM     20  C   LIG    1       -1.066   1.730   0.400  0.00  0.00    -0.010 A 
ATOM     21  C   LIG    1       -1.077   3.118   0.435  0.00  0.00    +0.160 A 
ATOM     22  C   LIG    1        0.120   3.820   0.389  0.00  0.00    +0.020 A 
ATOM     23  C   LIG    1        1.318   3.137   0.313  0.00  0.00    +0.050 A 
BRANCH  21  24
ATOM     24  N   LIG    1       -2.294   3.809   0.511  0.00  0.00    -0.320 N 
ATOM     25  C   LIG    1       -3.525   3.250   0.557  0.00  0.00    +0.230 A 
ATOM     26  C   LIG    1       -4.430   4.253   0.629  0.00  0.00    -0.100 A 
ATOM     27  C   LIG    1       -3.731   5.465   0.619  0.00  0.00    +0.250 A 
ATOM     28  N   LIG    1       -2.452   5.200   0.548  0.00  0.00    -0.290 NA
ENDBRANCH  21  24
ENDBRANCH  17  18
ENDBRANCH   2  17
TORSDOF 6
