REMARK  Name = ZINCrD00000hQ63T.0
REMARK                            x       y       z     vdW  Elec       q    Type
REMARK                         _______ _______ _______ _____ _____    ______ ____
ROOT
ATOM      1  C   LIG    1        2.540   9.468  -4.880  0.00  0.00    +0.170 C 
ATOM      2  C   LIG    1        3.804  10.088  -4.226  0.00  0.00    +0.080 C 
ATOM      3  C   LIG    1        3.532   9.916  -2.717  0.00  0.00    +0.350 C 
ATOM      4  N   LIG    1        2.554   8.828  -2.570  0.00  0.00    -0.600 N 
ATOM      5  C   LIG    1        2.041   8.384  -1.406  0.00  0.00    +0.540 C 
ATOM      6  O   LIG    1        2.384   8.893  -0.359  0.00  0.00    -0.530 OA
ATOM      7  C   LIG    1        2.232   8.299  -3.908  0.00  0.00    +0.260 C 
ENDROOT
BRANCH   3   8
ATOM      8  C   LIG    1        4.808   9.557  -2.000  0.00  0.00    +0.150 A 
ATOM      9  N   LIG    1        5.409   8.402  -2.027  0.00  0.00    -0.270 NA
ATOM     10  N   LIG    1        6.470   8.455  -1.302  0.00  0.00    -0.290 NA
ATOM     11  C   LIG    1        6.583   9.647  -0.788  0.00  0.00    +0.170 A 
ATOM     12  C   LIG    1        7.686  10.126   0.120  0.00  0.00    +0.240 C 
ATOM     13  O   LIG    1        5.539  10.373  -1.222  0.00  0.00    -0.220 OA
ENDBRANCH   3   8
BRANCH   1  15
ATOM     14  C   LIG    1        1.717   9.028  -7.087  0.00  0.00    +0.220 C 
ATOM     15  O   LIG    1        2.829   8.979  -6.191  0.00  0.00    -0.370 OA
ENDBRANCH   1  15
BRANCH   5  16
ATOM     16  C   LIG    1        1.042   7.255  -1.403  0.00  0.00    +0.070 C 
BRANCH  16  17
ATOM     17  C   LIG    1        0.623   6.949   0.035  0.00  0.00    +0.330 C 
BRANCH  17  18
ATOM     18  N   LIG    1       -0.348   5.852   0.038  0.00  0.00    -0.480 N 
ATOM     19  C   LIG    1       -1.708   6.005   0.051  0.00  0.00    +0.230 A 
ATOM     20  C   LIG    1       -2.304   4.803   0.050  0.00  0.00    -0.050 A 
ATOM     21  C   LIG    1       -1.240   3.796   0.034  0.00  0.00    -0.100 A 
ATOM     22  C   LIG    1       -1.226   2.400   0.021  0.00  0.00    +0.070 A 
ATOM     23  C   LIG    1       -0.021   1.732   0.012  0.00  0.00    -0.060 A 
ATOM     24  C   LIG    1        1.174   2.439   0.004  0.00  0.00    +0.050 A 
ATOM     25  C   LIG    1        1.176   3.816   0.012  0.00  0.00    +0.010 A 
ATOM     26 CL   LIG    1        0.002  -0.004   0.002  0.00  0.00    -0.070 Cl
ATOM     27  C   LIG    1       -0.029   4.511   0.027  0.00  0.00    +0.100 A 
ENDBRANCH  17  18
ENDBRANCH  16  17
ENDBRANCH   5  16
TORSDOF 5
