REMARK  Name = ZINCnE000001RzjO.0
REMARK                            x       y       z     vdW  Elec       q    Type
REMARK                         _______ _______ _______ _____ _____    ______ ____
ROOT
ATOM      1  N   LIG    1       -1.367   2.826  -2.897  0.00  0.00    -0.380 N 
ATOM      2  C   LIG    1       -0.507   2.751  -1.859  0.00  0.00    +0.220 A 
ATOM      3  C   LIG    1       -0.742   1.585  -1.213  0.00  0.00    -0.190 A 
ATOM      4  C   LIG    1       -1.776   0.923  -1.882  0.00  0.00    +0.240 A 
ATOM      5  N   LIG    1       -2.155   1.668  -2.888  0.00  0.00    -0.300 NA
ENDROOT
BRANCH   1   6
ATOM      6  C   LIG    1       -1.458   3.924  -3.862  0.00  0.00    +0.370 C 
BRANCH   6  10
ATOM      7  C   LIG    1       -1.060   2.376  -7.823  0.00  0.00    -0.180 A 
ATOM      8  C   LIG    1       -2.311   2.474  -7.242  0.00  0.00    +0.070 A 
ATOM      9  C   LIG    1       -2.439   2.975  -5.960  0.00  0.00    +0.060 A 
ATOM     10  C   LIG    1       -1.318   3.378  -5.259  0.00  0.00    -0.070 A 
ATOM     11  C   LIG    1       -0.068   3.284  -5.842  0.00  0.00    +0.040 A 
ATOM     12  C   LIG    1        0.061   2.779  -7.123  0.00  0.00    +0.070 A 
BRANCH   7  14
ATOM     13  F   LIG    1       -1.008   2.878 -10.142  0.00  0.00    -0.180 F 
ATOM     14  C   LIG    1       -0.920   1.829  -9.220  0.00  0.00    +0.510 C 
ATOM     15  F   LIG    1       -1.942   0.906  -9.465  0.00  0.00    -0.180 F 
ATOM     16  F   LIG    1        0.321   1.197  -9.351  0.00  0.00    -0.180 F 
ENDBRANCH   7  14
ENDBRANCH   6  10
ENDBRANCH   1   6
BRANCH   3  17
ATOM     17  C   LIG    1       -0.013   1.086   0.008  0.00  0.00    +0.260 C 
BRANCH  17  18
ATOM     18  N   LIG    1       -0.698   1.558   1.213  0.00  0.00    -0.640 NA
ATOM     19  C   LIG    1       -1.262   0.698   2.026  0.00  0.00    +0.350 A 
ATOM     20  N   LIG    1       -1.306  -0.663   1.907  0.00  0.00    -0.520 NA
ATOM     21  N   LIG    1       -1.968  -1.339   2.907  0.00  0.00    -0.260 NA
ATOM     22  C   LIG    1       -2.492  -0.665   3.872  0.00  0.00    +0.120 A 
ATOM     23  S   LIG    1       -2.133   1.038   3.534  0.00  0.00    -0.190 S 
ENDBRANCH  17  18
ENDBRANCH   3  17
TORSDOF 5
