REMARK  Name = ZINCqH0000031LIh.0
REMARK                            x       y       z     vdW  Elec       q    Type
REMARK                         _______ _______ _______ _____ _____    ______ ____
ROOT
ATOM      1  N   LIG    1       -1.137  -2.041   0.004  0.00  0.00    -0.670 N 
ATOM      2  H   LIG    1       -0.330  -2.450   0.353  0.00  0.00    +0.420 HD
ATOM      3  C   LIG    1       -1.080  -0.827  -0.578  0.00  0.00    +0.700 C 
ATOM      4  N   LIG    1        0.074  -0.131  -0.574  0.00  0.00    -0.740 N 
ATOM      5  H   LIG    1        0.864  -0.505  -0.151  0.00  0.00    +0.400 HD
ATOM      6  O   LIG    1       -2.070  -0.359  -1.107  0.00  0.00    -0.570 OA
ENDROOT
BRANCH   1  12
ATOM      7  C   LIG    1       -2.387  -4.109   0.190  0.00  0.00    -0.190 A 
ATOM      8  C   LIG    1       -3.615  -4.766   0.294  0.00  0.00    +0.070 A 
ATOM      9  C   LIG    1       -4.786  -4.039   0.300  0.00  0.00    -0.020 A 
ATOM     10  C   LIG    1       -4.751  -2.657   0.209  0.00  0.00    +0.060 A 
ATOM     11  C   LIG    1       -3.545  -1.993   0.111  0.00  0.00    +0.000 A 
ATOM     12  C   LIG    1       -2.356  -2.709   0.103  0.00  0.00    +0.240 A 
BRANCH   7  15
ATOM     13  N   LIG    1       -1.168  -6.229   0.160  0.00  0.00    -0.720 N 
ATOM     14  H   LIG    1       -2.022  -6.690   0.156  0.00  0.00    +0.400 HD
ATOM     15  C   LIG    1       -1.131  -4.882   0.177  0.00  0.00    +0.570 C 
ATOM     16  O   LIG    1       -0.061  -4.303   0.181  0.00  0.00    -0.550 OA
BRANCH  13  18
ATOM     17  C   LIG    1        0.895  -6.665   1.398  0.00  0.00    +0.030 C 
ATOM     18  C   LIG    1        0.080  -6.996   0.146  0.00  0.00    +0.170 C 
ATOM     19  C   LIG    1        0.888  -6.633  -1.100  0.00  0.00    +0.030 C 
ATOM     20  C   LIG    1       -0.242  -8.492   0.128  0.00  0.00    +0.040 C 
ENDBRANCH  13  18
ENDBRANCH   7  15
ENDBRANCH   1  12
BRANCH   4  21
ATOM     21  C   LIG    1        0.137   1.189  -1.206  0.00  0.00    +0.280 C 
BRANCH  21  22
ATOM     22  C   LIG    1        1.549   1.758  -1.061  0.00  0.00    +0.070 C 
BRANCH  22  23
ATOM     23  C   LIG    1        1.613   3.115  -1.712  0.00  0.00    -0.090 A 
ATOM     24  C   LIG    1        1.961   3.227  -3.045  0.00  0.00    +0.050 A 
ATOM     25  C   LIG    1        2.014   4.471  -3.644  0.00  0.00    -0.010 A 
ATOM     26  C   LIG    1        1.732   5.607  -2.905  0.00  0.00    +0.100 A 
ATOM     27  C   LIG    1        1.389   5.495  -1.568  0.00  0.00    -0.010 A 
ATOM     28  F   LIG    1        1.790   6.824  -3.488  0.00  0.00    -0.140 F 
ATOM     29  C   LIG    1        1.331   4.249  -0.973  0.00  0.00    +0.050 A 
ENDBRANCH  22  23
ENDBRANCH  21  22
ENDBRANCH   4  21
TORSDOF 6
