REMARK  Name = ZINCrD0000074DPB.0
REMARK                            x       y       z     vdW  Elec       q    Type
REMARK                         _______ _______ _______ _____ _____    ______ ____
ROOT
ATOM      1  O   LIG    1        1.143   1.901   0.001  0.00  0.00    -0.330 OA
ENDROOT
BRANCH   1   2
ATOM      2  C   LIG    1       -0.014   1.211   0.009  0.00  0.00    +0.510 C 
ATOM      3  O   LIG    1        0.002  -0.004   0.002  0.00  0.00    -0.500 OA
BRANCH   2   4
ATOM      4  C   LIG    1       -1.301   1.931   0.019  0.00  0.00    -0.130 A 
ATOM      5  C   LIG    1       -1.321   3.329   0.032  0.00  0.00    +0.100 A 
ATOM      6  C   LIG    1       -2.520   3.995   0.036  0.00  0.00    +0.030 A 
ATOM      7  C   LIG    1       -3.715   3.281   0.037  0.00  0.00    +0.120 A 
ATOM      8  C   LIG    1       -3.698   1.889   0.030  0.00  0.00    -0.040 A 
ATOM      9  C   LIG    1       -2.503   1.216   0.021  0.00  0.00    +0.100 A 
BRANCH   7  10
ATOM     10  N   LIG    1       -4.928   3.960   0.047  0.00  0.00    -0.490 N 
ATOM     11  C   LIG    1       -5.723   3.607   1.243  0.00  0.00    +0.180 C 
ATOM     12  C   LIG    1       -7.205   3.626   0.822  0.00  0.00    +0.020 C 
ATOM     13  C   LIG    1       -7.192   3.978  -0.683  0.00  0.00    -0.010 C 
ATOM     14  C   LIG    1       -8.241   3.159  -1.439  0.00  0.00    +0.030 C 
ATOM     15  C   LIG    1       -5.762   3.576  -1.121  0.00  0.00    +0.180 C 
ENDBRANCH   7  10
ENDBRANCH   2   4
ENDBRANCH   1   2
BRANCH   1  16
ATOM     16  C   LIG    1        2.372   1.126  -0.015  0.00  0.00    +0.250 C 
BRANCH  16  19
ATOM     17  N   LIG    1        4.806   1.562  -0.035  0.00  0.00    -0.720 N 
ATOM     18  H   LIG    1        4.947   0.603  -0.042  0.00  0.00    +0.400 HD
ATOM     19  C   LIG    1        3.554   2.061  -0.021  0.00  0.00    +0.520 C 
ATOM     20  O   LIG    1        3.379   3.261  -0.013  0.00  0.00    -0.510 OA
BRANCH  17  21
ATOM     21  C   LIG    1        5.956   2.471  -0.042  0.00  0.00    +0.320 C 
BRANCH  21  26
ATOM     22  C   LIG    1       10.845  -0.609  -0.105  0.00  0.00    +0.090 C 
ATOM     23  C   LIG    1        9.570   0.194  -0.088  0.00  0.00    -0.070 A 
ATOM     24  C   LIG    1        8.974   0.568  -1.278  0.00  0.00    +0.010 A 
ATOM     25  C   LIG    1        7.804   1.305  -1.263  0.00  0.00    +0.030 A 
ATOM     26  C   LIG    1        7.231   1.667  -0.058  0.00  0.00    -0.120 A 
ATOM     27  C   LIG    1        7.830   1.297   1.131  0.00  0.00    +0.030 A 
ATOM     28  C   LIG    1        8.996   0.555   1.116  0.00  0.00    +0.010 A 
ENDBRANCH  21  26
ENDBRANCH  17  21
ENDBRANCH  16  19
ENDBRANCH   1  16
TORSDOF 7
