REMARK  Name = ZINCrg00000IZe27.0
REMARK                            x       y       z     vdW  Elec       q    Type
REMARK                         _______ _______ _______ _____ _____    ______ ____
ROOT
ATOM      1  N   LIG    1        5.784   2.978   1.282  0.00  0.00    -1.110 NA
ATOM      2  H   LIG    1        6.222   2.731   0.453  0.00  0.00    +0.420 HD
ENDROOT
BRANCH   1   7
ATOM      3  N   LIG    1        2.369   3.742   0.000  0.00  0.00    -0.570 N 
ATOM      4  C   LIG    1        2.397   5.208  -0.103  0.00  0.00    +0.290 C 
ATOM      5  C   LIG    1        3.226   5.768   1.058  0.00  0.00    +0.030 C 
ATOM      6  C   LIG    1        4.608   5.111   1.055  0.00  0.00    +0.020 C 
ATOM      7  C   LIG    1        4.458   3.601   1.253  0.00  0.00    +0.230 C 
ATOM      8  C   LIG    1        3.643   3.017   0.101  0.00  0.00    +0.310 C 
BRANCH   3  16
ATOM      9  O   LIG    1       -0.106   4.964  -0.468  0.00  0.00    -0.520 OA
ATOM     10  C   LIG    1       -0.098   3.764  -0.247  0.00  0.00    +0.490 A 
ATOM     11  N   LIG    1       -1.249   3.056  -0.229  0.00  0.00    -0.590 N 
ATOM     12  H   LIG    1       -2.098   3.495  -0.394  0.00  0.00    +0.420 HD
ATOM     13  C   LIG    1       -1.200   1.716   0.017  0.00  0.00    +0.170 A 
ATOM     14  C   LIG    1       -0.023   1.097   0.252  0.00  0.00    +0.190 A 
ATOM     15  N   LIG    1        1.132   1.762   0.243  0.00  0.00    -0.510 NA
ATOM     16  C   LIG    1        1.162   3.056   0.007  0.00  0.00    +0.350 A 
ENDBRANCH   3  16
ENDBRANCH   1   7
BRANCH   1  17
ATOM     17  S   LIG    1        6.533   2.694   2.732  0.00  0.00    +2.620 S 
ATOM     18  O   LIG    1        6.471   3.942   3.409  0.00  0.00    -0.930 OA
ATOM     19  O   LIG    1        7.782   2.117   2.373  0.00  0.00    -0.930 OA
BRANCH  17  20
ATOM     20  C   LIG    1        5.479   1.469   3.555  0.00  0.00    -0.250 C 
BRANCH  20  21
ATOM     21  C   LIG    1        6.064   1.126   4.900  0.00  0.00    +0.130 A 
ATOM     22  N   LIG    1        6.912   0.176   5.149  0.00  0.00    -0.260 NA
ATOM     23  O   LIG    1        7.227   0.167   6.527  0.00  0.00    -0.080 OA
ATOM     24  C   LIG    1        6.540   1.145   7.149  0.00  0.00    +0.090 A 
ATOM     25  C   LIG    1        6.469   1.573   8.469  0.00  0.00    +0.020 A 
ATOM     26  C   LIG    1        5.651   2.631   8.804  0.00  0.00    +0.100 A 
ATOM     27  C   LIG    1        4.896   3.275   7.833  0.00  0.00    +0.000 A 
ATOM     28  C   LIG    1        4.952   2.869   6.529  0.00  0.00    +0.110 A 
ATOM     29  C   LIG    1        5.774   1.800   6.170  0.00  0.00    -0.200 A 
ENDBRANCH  20  21
ENDBRANCH  17  20
ENDBRANCH   1  17
TORSDOF 5
