REMARK  Name = ZINCvU00000006Tr.0
REMARK                            x       y       z     vdW  Elec       q    Type
REMARK                         _______ _______ _______ _____ _____    ______ ____
ROOT
ATOM      1  C   LIG    1        1.763   2.159   0.565  0.00  0.00    +0.090 C 
ENDROOT
BRANCH   1   2
ATOM      2  C   LIG    1        1.993   3.631   0.338  0.00  0.00    +0.450 C 
ATOM      3  O   LIG    1        1.052   4.397   0.320  0.00  0.00    -0.450 OA
BRANCH   2   7
ATOM      4  N   LIG    1        5.069   5.486  -0.214  0.00  0.00    -0.360 N 
ATOM      5  C   LIG    1        5.593   4.229  -0.089  0.00  0.00    +0.020 A 
ATOM      6  C   LIG    1        4.596   3.356   0.129  0.00  0.00    +0.020 A 
ATOM      7  C   LIG    1        3.352   4.138   0.138  0.00  0.00    -0.250 A 
ATOM      8  C   LIG    1        7.056   3.880  -0.179  0.00  0.00    +0.150 C 
ATOM      9  C   LIG    1        3.727   5.449  -0.086  0.00  0.00    +0.140 A 
ATOM     10  C   LIG    1        2.798   6.632  -0.170  0.00  0.00    +0.160 C 
BRANCH   4  14
ATOM     11  C   LIG    1        8.327   8.812  -2.004  0.00  0.00    +0.210 C 
ATOM     12  C   LIG    1        7.247   8.095  -1.236  0.00  0.00    -0.010 A 
ATOM     13  C   LIG    1        6.846   6.815  -1.411  0.00  0.00    -0.050 A 
ATOM     14  C   LIG    1        5.817   6.644  -0.447  0.00  0.00    +0.220 A 
ATOM     15  N   LIG    1        5.706   7.788   0.175  0.00  0.00    -0.350 NA
ATOM     16  O   LIG    1        6.496   8.600  -0.248  0.00  0.00    +0.120 OA
ENDBRANCH   4  14
ENDBRANCH   2   7
ENDBRANCH   1   2
BRANCH   1  17
ATOM     17  S   LIG    1       -0.007   1.851   0.777  0.00  0.00    +0.060 S 
BRANCH  17  18
ATOM     18  C   LIG    1        0.013   0.105   1.018  0.00  0.00    +0.190 A 
ATOM     19  N   LIG    1        1.154  -0.572   0.999  0.00  0.00    -0.510 NA
ATOM     20  C   LIG    1        1.183  -1.882   1.185  0.00  0.00    +0.260 A 
ATOM     21  N   LIG    1        0.103  -2.599   1.388  0.00  0.00    -0.460 NA
ATOM     22  C   LIG    1       -1.105  -2.015   1.421  0.00  0.00    +0.170 A 
ATOM     23  C   LIG    1       -2.278  -2.750   1.635  0.00  0.00    +0.060 A 
ATOM     24  C   LIG    1       -3.481  -2.107   1.659  0.00  0.00    +0.070 A 
ATOM     25  C   LIG    1       -3.561  -0.730   1.474  0.00  0.00    +0.040 A 
ATOM     26  C   LIG    1       -2.437   0.015   1.263  0.00  0.00    +0.060 A 
ATOM     27  C   LIG    1       -1.189  -0.614   1.233  0.00  0.00    -0.120 A 
BRANCH  20  28
ATOM     28  C   LIG    1        2.517  -2.584   1.156  0.00  0.00    +0.550 C 
ATOM     29  F   LIG    1        2.380  -3.868   1.694  0.00  0.00    -0.150 F 
ATOM     30  F   LIG    1        3.442  -1.857   1.913  0.00  0.00    -0.160 F 
ATOM     31  F   LIG    1        2.965  -2.677  -0.166  0.00  0.00    -0.160 F 
ENDBRANCH  20  28
ENDBRANCH  17  18
ENDBRANCH   1  17
TORSDOF 6
