REMARK  Name = ZINCpe00000MJKFo.0
REMARK                            x       y       z     vdW  Elec       q    Type
REMARK                         _______ _______ _______ _____ _____    ______ ____
ROOT
ATOM      1  C   LIG    1       -2.998   2.559   1.761  0.00  0.00    +0.250 C 
ATOM      2  C   LIG    1       -2.396   3.454   2.859  0.00  0.00    +0.300 C 
ATOM      3  N   LIG    1       -3.335   2.786   3.780  0.00  0.00    -0.630 N 
ATOM      4  C   LIG    1       -3.907   3.122   4.954  0.00  0.00    +0.630 C 
ATOM      5  O   LIG    1       -4.667   2.346   5.504  0.00  0.00    -0.510 OA
ATOM      6  C   LIG    1       -3.397   1.603   2.900  0.00  0.00    +0.290 C 
ENDROOT
BRANCH   4   7
ATOM      7  C   LIG    1       -3.614   4.424   5.569  0.00  0.00    -0.020 A 
ATOM      8  C   LIG    1       -4.134   4.869   6.741  0.00  0.00    +0.060 A 
ATOM      9  C   LIG    1       -3.564   6.199   6.958  0.00  0.00    -0.150 A 
ATOM     10  C   LIG    1       -3.695   7.162   7.960  0.00  0.00    +0.070 A 
ATOM     11  C   LIG    1       -3.011   8.341   7.861  0.00  0.00    -0.010 A 
ATOM     12  C   LIG    1       -2.187   8.586   6.770  0.00  0.00    +0.060 A 
ATOM     13  C   LIG    1       -2.044   7.648   5.771  0.00  0.00    +0.030 A 
ATOM     14  C   LIG    1       -2.731   6.442   5.850  0.00  0.00    +0.070 A 
ATOM     15  O   LIG    1       -2.791   5.359   5.050  0.00  0.00    -0.180 OA
ENDBRANCH   4   7
BRANCH   1  19
ATOM     16  C   LIG    1       -0.811   1.623  -1.203  0.00  0.00    +0.000 C 
ATOM     17  C   LIG    1       -0.013   1.086   0.008  0.00  0.00    +0.070 C 
ATOM     18  C   LIG    1       -0.771   1.598   1.213  0.00  0.00    +0.520 C 
ATOM     19  N   LIG    1       -2.003   2.000   0.844  0.00  0.00    -0.610 N 
ATOM     20  O   LIG    1       -0.333   1.640   2.343  0.00  0.00    -0.510 OA
ATOM     21  C   LIG    1       -2.219   1.807  -0.595  0.00  0.00    +0.310 C 
BRANCH  16  25
ATOM     22  C   LIG    1        0.296  -0.757  -3.989  0.00  0.00    +0.280 C 
ATOM     23  N   LIG    1        0.319   0.223  -2.900  0.00  0.00    -0.730 N 
ATOM     24  H   LIG    1        1.164   0.588  -2.594  0.00  0.00    +0.400 HD
ATOM     25  C   LIG    1       -0.834   0.615  -2.323  0.00  0.00    +0.520 C 
ATOM     26  O   LIG    1       -1.890   0.158  -2.706  0.00  0.00    -0.530 OA
ENDBRANCH  16  25
ENDBRANCH   1  19
TORSDOF 3
