REMARK  Name = ZINCrD000000fgVn.0
REMARK                            x       y       z     vdW  Elec       q    Type
REMARK                         _______ _______ _______ _____ _____    ______ ____
ROOT
ATOM      1  C   LIG    1       -1.276   3.697   5.765  0.00  0.00    +0.140 C 
ATOM      2  C   LIG    1        0.035   2.913   5.673  0.00  0.00    +0.050 C 
ATOM      3  C   LIG    1       -0.188   1.648   4.838  0.00  0.00    +0.310 C 
ATOM      4  N   LIG    1       -0.753   2.034   3.537  0.00  0.00    -0.590 N 
ATOM      5  C   LIG    1       -1.960   2.871   3.511  0.00  0.00    +0.290 C 
ATOM      6  C   LIG    1       -0.171   1.633   2.390  0.00  0.00    +0.650 C 
ATOM      7  O   LIG    1        0.831   0.945   2.425  0.00  0.00    -0.570 OA
ATOM      8  C   LIG    1       -1.720   4.117   4.362  0.00  0.00    -0.000 C 
ENDROOT
BRANCH   1   9
ATOM      9  O   LIG    1       -2.283   2.873   6.356  0.00  0.00    -0.550 OA
ATOM     10  H   LIG    1       -3.143   3.307   6.445  0.00  0.00    +0.380 HD
ENDBRANCH   1   9
BRANCH   1  11
ATOM     11  C   LIG    1       -1.065   4.943   6.627  0.00  0.00    +0.000 C 
BRANCH  11  12
ATOM     12  C   LIG    1       -2.376   5.727   6.719  0.00  0.00    +0.250 C 
BRANCH  12  14
ATOM     13  C   LIG    1       -3.199   7.768   7.766  0.00  0.00    +0.530 C 
ATOM     14  N   LIG    1       -2.174   6.920   7.545  0.00  0.00    -0.730 N 
ATOM     15  H   LIG    1       -1.304   7.100   7.932  0.00  0.00    +0.400 HD
ATOM     16  O   LIG    1       -4.287   7.542   7.282  0.00  0.00    -0.540 OA
BRANCH  13  17
ATOM     17  C   LIG    1       -2.991   8.995   8.616  0.00  0.00    -0.080 C 
ATOM     18  C   LIG    1       -2.622   8.594  10.066  0.00  0.00    +0.040 C 
ATOM     19  C   LIG    1       -4.005   8.264  10.689  0.00  0.00    +0.000 C 
ATOM     20  C   LIG    1       -4.955   9.315  10.080  0.00  0.00    +0.020 C 
ATOM     21  C   LIG    1       -4.311   9.780   8.762  0.00  0.00    +0.040 C 
BRANCH  17  22
ATOM     22  C   LIG    1       -1.903   9.885   8.012  0.00  0.00    +0.080 C 
BRANCH  22  24
ATOM     23  C   LIG    1        0.007   9.002   6.773  0.00  0.00    +0.020 C 
ATOM     24  C   LIG    1       -0.614   9.110   7.922  0.00  0.00    -0.060 C 
ENDBRANCH  22  24
ENDBRANCH  17  22
ENDBRANCH  13  17
ENDBRANCH  12  14
ENDBRANCH  11  12
ENDBRANCH   1  11
BRANCH   6  25
ATOM     25  O   LIG    1       -0.698   1.994   1.205  0.00  0.00    -0.360 OA
BRANCH  25  26
ATOM     26  C   LIG    1       -0.019   1.526   0.010  0.00  0.00    +0.140 C 
ATOM     27  C   LIG    1       -0.759   2.033  -1.229  0.00  0.00    +0.080 C 
ATOM     28  C   LIG    1        1.417   2.055  -0.000  0.00  0.00    +0.040 C 
ATOM     29  C   LIG    1        0.002  -0.004   0.002  0.00  0.00    +0.040 C 
ENDBRANCH  25  26
ENDBRANCH   6  25
TORSDOF 9
