REMARK  Name = ZINCqH0000038ign.0
REMARK                            x       y       z     vdW  Elec       q    Type
REMARK                         _______ _______ _______ _____ _____    ______ ____
ROOT
ATOM      1  C   LIG    1       -0.816   3.662   7.056  0.00  0.00    +0.260 C 
ATOM      2  C   LIG    1       -0.317   5.081   7.401  0.00  0.00    +0.050 C 
ATOM      3  C   LIG    1        0.496   4.859   8.703  0.00  0.00    +0.030 C 
ATOM      4  C   LIG    1        1.129   3.470   8.444  0.00  0.00    +0.180 C 
ATOM      5  N   LIG    1        0.086   2.707   7.726  0.00  0.00    -0.500 NA
ENDROOT
BRANCH   1  13
ATOM      6  C   LIG    1        0.323   3.880  -0.257  0.00  0.00    +0.100 C 
ATOM      7  C   LIG    1       -0.182   3.437   1.092  0.00  0.00    -0.090 A 
ATOM      8  C   LIG    1       -1.013   2.329   1.184  0.00  0.00    +0.030 A 
ATOM      9  C   LIG    1       -1.480   1.906   2.410  0.00  0.00    +0.010 A 
ATOM     10  C   LIG    1       -1.125   2.601   3.558  0.00  0.00    +0.050 A 
ATOM     11  N   LIG    1       -1.414   2.453   4.900  0.00  0.00    -0.600 N 
ATOM     12  H   LIG    1       -1.972   1.764   5.296  0.00  0.00    +0.420 HD
ATOM     13  C   LIG    1       -0.772   3.451   5.565  0.00  0.00    +0.270 A 
ATOM     14  N   LIG    1       -0.114   4.196   4.726  0.00  0.00    -0.480 NA
ATOM     15  C   LIG    1       -0.289   3.726   3.464  0.00  0.00    +0.050 A 
ATOM     16  C   LIG    1        0.177   4.133   2.211  0.00  0.00    +0.060 A 
ENDBRANCH   1  13
BRANCH   5  17
ATOM     17  C   LIG    1        0.685   1.781   6.755  0.00  0.00    +0.200 C 
BRANCH  17  18
ATOM     18  C   LIG    1        1.662   0.877   7.461  0.00  0.00    +0.520 C 
ATOM     19  N   LIG    1        2.514   0.115   6.746  0.00  0.00    -0.620 N 
ATOM     20  C   LIG    1        3.757  -0.385   7.348  0.00  0.00    +0.220 C 
ATOM     21  C   LIG    1        3.815  -1.905   7.168  0.00  0.00    +0.020 C 
ATOM     22  C   LIG    1        3.654  -2.245   5.684  0.00  0.00    +0.010 C 
ATOM     23  C   LIG    1        2.292  -1.752   5.191  0.00  0.00    +0.020 C 
ATOM     24  C   LIG    1        3.779  -0.042   8.839  0.00  0.00    +0.050 C 
ATOM     25  C   LIG    1        2.214  -0.235   5.351  0.00  0.00    +0.220 C 
ATOM     26  C   LIG    1        0.805   0.245   4.994  0.00  0.00    +0.040 C 
ATOM     27  O   LIG    1        1.683   0.834   8.673  0.00  0.00    -0.500 OA
ENDBRANCH  17  18
ENDBRANCH   5  17
TORSDOF 3
