REMARK  Name = ZINCqH0000038ign.1
REMARK                            x       y       z     vdW  Elec       q    Type
REMARK                         _______ _______ _______ _____ _____    ______ ____
ROOT
ATOM      1  C   LIG    1        2.124  -1.915   0.280  0.00  0.00    +0.260 C 
ATOM      2  C   LIG    1        2.625  -2.554   1.592  0.00  0.00    +0.050 C 
ATOM      3  C   LIG    1        3.795  -3.456   1.118  0.00  0.00    +0.030 C 
ATOM      4  C   LIG    1        4.398  -2.608  -0.029  0.00  0.00    +0.180 C 
ATOM      5  N   LIG    1        3.233  -1.981  -0.690  0.00  0.00    -0.500 NA
ENDROOT
BRANCH   1  12
ATOM      6  C   LIG    1       -0.403   5.085   0.307  0.00  0.00    +0.100 C 
ATOM      7  C   LIG    1        0.290   3.808   0.708  0.00  0.00    -0.060 A 
ATOM      8  C   LIG    1        0.992   3.752   1.903  0.00  0.00    +0.000 A 
ATOM      9  C   LIG    1        1.626   2.603   2.285  0.00  0.00    +0.070 A 
ATOM     10  C   LIG    1        1.571   1.472   1.467  0.00  0.00    +0.040 A 
ATOM     11  N   LIG    1        2.083   0.218   1.567  0.00  0.00    -0.480 NA
ATOM     12  C   LIG    1        1.741  -0.478   0.522  0.00  0.00    +0.270 A 
ATOM     13  N   LIG    1        0.987   0.280  -0.319  0.00  0.00    -0.600 N 
ATOM     14  H   LIG    1        0.608  -0.004  -1.165  0.00  0.00    +0.420 HD
ATOM     15  C   LIG    1        0.861   1.529   0.256  0.00  0.00    +0.060 A 
ATOM     16  C   LIG    1        0.219   2.703  -0.114  0.00  0.00    +0.000 A 
ENDBRANCH   1  12
BRANCH   5  17
ATOM     17  C   LIG    1        3.571  -0.644  -1.196  0.00  0.00    +0.200 C 
BRANCH  17  18
ATOM     18  C   LIG    1        4.759  -0.741  -2.117  0.00  0.00    +0.520 C 
ATOM     19  N   LIG    1        5.404   0.377  -2.506  0.00  0.00    -0.620 N 
ATOM     20  C   LIG    1        6.794   0.314  -2.977  0.00  0.00    +0.220 C 
ATOM     21  C   LIG    1        6.878   0.982  -4.353  0.00  0.00    +0.020 C 
ATOM     22  C   LIG    1        6.308   2.399  -4.264  0.00  0.00    +0.010 C 
ATOM     23  C   LIG    1        4.837   2.334  -3.848  0.00  0.00    +0.020 C 
ATOM     24  C   LIG    1        7.233  -1.147  -3.085  0.00  0.00    +0.050 C 
ATOM     25  C   LIG    1        4.727   1.681  -2.472  0.00  0.00    +0.220 C 
ATOM     26  C   LIG    1        3.252   1.484  -2.115  0.00  0.00    +0.040 C 
ATOM     27  O   LIG    1        5.136  -1.826  -2.509  0.00  0.00    -0.500 OA
ENDBRANCH  17  18
ENDBRANCH   5  17
TORSDOF 3
