REMARK  Name = ZINCBI0000000aRZ.0
REMARK                            x       y       z     vdW  Elec       q    Type
REMARK                         _______ _______ _______ _____ _____    ______ ____
ROOT
ATOM      1  N   LIG    1       -0.406   0.096   0.622  0.00  0.00    -0.480 N 
ATOM      2  C   LIG    1       -0.401   1.563   0.687  0.00  0.00    +0.210 C 
ATOM      3  C   LIG    1        1.007   2.080   0.370  0.00  0.00    +0.300 C 
ATOM      4  N   LIG    1        1.962   1.413   1.268  0.00  0.00    -0.610 N 
ATOM      5  C   LIG    1        1.924  -0.054   1.360  0.00  0.00    +0.320 C 
ATOM      6  C   LIG    1        2.849   2.128   1.988  0.00  0.00    +0.610 C 
ATOM      7  O   LIG    1        3.546   1.576   2.817  0.00  0.00    -0.500 OA
ATOM      8  C   LIG    1        0.480  -0.487   1.638  0.00  0.00    +0.210 C 
ENDROOT
BRANCH   6   9
ATOM      9  C   LIG    1        2.976   3.585   1.769  0.00  0.00    +0.080 A 
ATOM     10  N   LIG    1        2.383   4.276   0.808  0.00  0.00    -0.270 NA
ATOM     11  N   LIG    1        2.745   5.623   0.933  0.00  0.00    -0.300 N 
ATOM     12  C   LIG    1        3.595   5.734   2.006  0.00  0.00    +0.270 A 
ATOM     13  N   LIG    1        4.104   6.923   2.353  0.00  0.00    -0.430 NA
ATOM     14  C   LIG    1        3.800   8.012   1.672  0.00  0.00    +0.260 A 
ATOM     15  C   LIG    1        2.928   7.933   0.561  0.00  0.00    +0.060 A 
ATOM     16  C   LIG    1        2.412   6.735   0.208  0.00  0.00    +0.090 A 
ATOM     17  C   LIG    1        3.747   4.462   2.539  0.00  0.00    +0.000 A 
BRANCH  14  18
ATOM     18  C   LIG    1        4.372   9.318   2.072  0.00  0.00    -0.080 A 
ATOM     19  C   LIG    1        4.058  10.470   1.351  0.00  0.00    +0.050 A 
ATOM     20  C   LIG    1        4.591  11.685   1.731  0.00  0.00    +0.010 A 
ATOM     21  C   LIG    1        5.444  11.760   2.818  0.00  0.00    +0.040 A 
ATOM     22  C   LIG    1        5.763  10.620   3.534  0.00  0.00    +0.010 A 
ATOM     23  C   LIG    1        5.233   9.400   3.166  0.00  0.00    +0.080 A 
ENDBRANCH  14  18
BRANCH  16  24
ATOM     24  C   LIG    1        1.481   6.625  -0.972  0.00  0.00    +0.520 C 
ATOM     25  F   LIG    1        0.246   6.123  -0.546  0.00  0.00    -0.160 F 
ATOM     26  F   LIG    1        2.033   5.760  -1.923  0.00  0.00    -0.150 F 
ATOM     27  F   LIG    1        1.298   7.889  -1.542  0.00  0.00    -0.150 F 
ENDBRANCH  16  24
ENDBRANCH   6   9
BRANCH   1  31
ATOM     28  C   LIG    1       -4.240  -1.349   0.982  0.00  0.00    -0.260 A 
ATOM     29  C   LIG    1       -3.204  -2.260   0.826  0.00  0.00    +0.130 A 
ATOM     30  C   LIG    1       -1.914  -1.777   0.699  0.00  0.00    -0.030 A 
ATOM     31  C   LIG    1       -1.698  -0.403   0.743  0.00  0.00    +0.350 A 
ATOM     32  N   LIG    1       -2.713   0.434   0.893  0.00  0.00    -0.520 NA
ATOM     33  C   LIG    1       -3.954   0.002   1.012  0.00  0.00    +0.330 A 
BRANCH  28  34
ATOM     34  C   LIG    1       -5.662  -1.830   1.118  0.00  0.00    +0.330 C 
BRANCH  34  36
ATOM     35  C   LIG    1       -7.620  -2.505  -0.092  0.00  0.00    +0.310 C 
ATOM     36  N   LIG    1       -6.276  -1.924  -0.213  0.00  0.00    -0.390 N 
ATOM     37  C   LIG    1       -6.374  -0.582  -0.803  0.00  0.00    +0.310 C 
ATOM     38  H   LIG    1       -5.708  -2.511  -0.805  0.00  0.00    +0.430 HD
ENDBRANCH  34  36
ENDBRANCH  28  34
ENDBRANCH   1  31
TORSDOF 6
