REMARK  Name = ZINCpk00000xIgSt.0
REMARK                            x       y       z     vdW  Elec       q    Type
REMARK                         _______ _______ _______ _____ _____    ______ ____
ROOT
ATOM      1  C   LIG    1        3.580   3.470  -0.397  0.00  0.00    -0.240 C 
ATOM      2  C   LIG    1        3.510   2.128  -0.391  0.00  0.00    +0.240 C 
ATOM      3  N   LIG    1        2.362   1.486  -0.018  0.00  0.00    -0.630 N 
ATOM      4  H   LIG    1        2.392   0.549   0.233  0.00  0.00    +0.420 HD
ATOM      5  C   LIG    1        1.165   2.160   0.003  0.00  0.00    +0.440 A 
ATOM      6  C   LIG    1        1.140   3.523   0.012  0.00  0.00    -0.300 A 
ATOM      7  C   LIG    1       -0.102   4.182   0.024  0.00  0.00    +0.570 A 
ATOM      8  N   LIG    1       -1.239   3.459   0.030  0.00  0.00    -0.560 N 
ATOM      9  C   LIG    1       -1.194   2.114   0.019  0.00  0.00    +0.710 A 
ATOM     10  O   LIG    1       -2.232   1.480   0.022  0.00  0.00    -0.530 OA
ATOM     11  C   LIG    1       -2.535   4.142   0.043  0.00  0.00    +0.350 C 
ATOM     12  O   LIG    1       -0.150   5.400   0.029  0.00  0.00    -0.500 OA
ATOM     13  N   LIG    1       -0.018   1.461   0.010  0.00  0.00    -0.540 N 
ATOM     14  C   LIG    1        0.002  -0.004   0.002  0.00  0.00    +0.350 C 
ATOM     15  C   LIG    1        4.714   1.320  -0.801  0.00  0.00    +0.170 C 
ATOM     16  C   LIG    1        2.413   4.322   0.011  0.00  0.00    +0.240 C 
ENDROOT
BRANCH  16  17
ATOM     17  C   LIG    1        2.657   4.868   1.394  0.00  0.00    -0.160 A 
ATOM     18  C   LIG    1        2.730   6.162   1.708  0.00  0.00    -0.080 A 
ATOM     19  C   LIG    1        2.960   6.425   3.048  0.00  0.00    +0.010 A 
ATOM     20  C   LIG    1        3.082   5.344   3.820  0.00  0.00    -0.050 A 
ATOM     21  C   LIG    1        2.571   7.255   0.683  0.00  0.00    +0.110 C 
ATOM     22  S   LIG    1        2.897   3.895   2.840  0.00  0.00    +0.070 S 
ENDBRANCH  16  17
BRANCH   1  23
ATOM     23  C   LIG    1        4.783   4.096  -0.798  0.00  0.00    +0.520 C 
ATOM     24  O   LIG    1        5.738   3.420  -1.132  0.00  0.00    -0.520 OA
BRANCH  23  26
ATOM     25  C   LIG    1        6.117   6.006  -1.227  0.00  0.00    +0.260 C 
ATOM     26  O   LIG    1        4.872   5.442  -0.810  0.00  0.00    -0.340 OA
ENDBRANCH  23  26
ENDBRANCH   1  23
TORSDOF 3
