REMARK  Name = ZINCvU0000000FGZ.0
REMARK                            x       y       z     vdW  Elec       q    Type
REMARK                         _______ _______ _______ _____ _____    ______ ____
ROOT
ATOM      1  N   LIG    1        1.236  -2.018  -0.017  0.00  0.00    -0.660 N 
ATOM      2  H   LIG    1        2.021  -2.489   0.304  0.00  0.00    +0.410 HD
ATOM      3  C   LIG    1        0.178  -2.712  -0.482  0.00  0.00    +0.560 C 
ATOM      4  O   LIG    1       -0.833  -2.126  -0.818  0.00  0.00    -0.510 OA
ENDROOT
BRANCH   1  10
ATOM      5  C   LIG    1        2.390   0.110  -0.043  0.00  0.00    +0.090 A 
ATOM      6  C   LIG    1        2.350   1.495  -0.024  0.00  0.00    -0.040 A 
ATOM      7  C   LIG    1        1.134   2.151   0.037  0.00  0.00    +0.030 A 
ATOM      8  C   LIG    1       -0.044   1.429   0.080  0.00  0.00    +0.000 A 
ATOM      9  C   LIG    1       -0.013   0.047   0.062  0.00  0.00    +0.060 A 
ATOM     10  C   LIG    1        1.202  -0.618   0.001  0.00  0.00    +0.120 A 
BRANCH   5  11
ATOM     11  O   LIG    1        3.584  -0.537  -0.103  0.00  0.00    -0.260 OA
BRANCH  11  15
ATOM     12  C   LIG    1        7.028   1.730   0.103  0.00  0.00    +0.140 A 
ATOM     13  C   LIG    1        6.281   1.497   1.248  0.00  0.00    +0.000 A 
ATOM     14  C   LIG    1        5.129   0.739   1.180  0.00  0.00    +0.050 A 
ATOM     15  C   LIG    1        4.718   0.210  -0.035  0.00  0.00    +0.040 A 
ATOM     16  C   LIG    1        5.468   0.438  -1.180  0.00  0.00    +0.050 A 
ATOM     17  C   LIG    1        6.618   1.200  -1.112  0.00  0.00    -0.060 A 
BRANCH  12  18
ATOM     18  O   LIG    1        8.163   2.476   0.171  0.00  0.00    -0.310 OA
BRANCH  18  20
ATOM     19  C   LIG    1       10.120   3.532  -0.775  0.00  0.00    +0.070 C 
ATOM     20  C   LIG    1        8.882   2.675  -1.048  0.00  0.00    +0.170 C 
ENDBRANCH  18  20
ENDBRANCH  12  18
ENDBRANCH  11  15
ENDBRANCH   5  11
ENDBRANCH   1  10
BRANCH   3  21
ATOM     21  C   LIG    1        0.247  -4.185  -0.584  0.00  0.00    -0.130 A 
ATOM     22  C   LIG    1        1.409  -4.860  -0.205  0.00  0.00    +0.040 A 
ATOM     23  C   LIG    1        1.464  -6.236  -0.296  0.00  0.00    +0.020 A 
ATOM     24  C   LIG    1        0.376  -6.944  -0.774  0.00  0.00    -0.080 A 
ATOM     25  C   LIG    1       -0.776  -6.281  -1.157  0.00  0.00    +0.020 A 
ATOM     26  C   LIG    1       -0.847  -4.906  -1.065  0.00  0.00    +0.080 A 
BRANCH  24  27
ATOM     27  C   LIG    1        0.446  -8.446  -0.877  0.00  0.00    +0.320 C 
BRANCH  27  28
ATOM     28  N   LIG    1        0.961  -8.822  -2.196  0.00  0.00    -0.730 N 
ATOM     29  H   LIG    1        1.194  -8.134  -2.840  0.00  0.00    +0.400 HD
ATOM     30  C   LIG    1        1.110 -10.122  -2.516  0.00  0.00    +0.510 C 
ATOM     31  O   LIG    1        0.819 -10.982  -1.712  0.00  0.00    -0.540 OA
BRANCH  30  32
ATOM     32  C   LIG    1        1.639 -10.508  -3.874  0.00  0.00    +0.040 C 
ATOM     33  C   LIG    1        1.711 -12.033  -3.978  0.00  0.00    +0.040 C 
ENDBRANCH  30  32
ENDBRANCH  27  28
ENDBRANCH  24  27
ENDBRANCH   3  21
TORSDOF 9
