REMARK  Name = ZINCrD00000hQ6gm.0
REMARK                            x       y       z     vdW  Elec       q    Type
REMARK                         _______ _______ _______ _____ _____    ______ ____
ROOT
ATOM      1  O   LIG    1        0.230   5.452   3.223  0.00  0.00    -0.510 OA
ATOM      2  C   LIG    1       -0.722   5.528   3.974  0.00  0.00    +0.620 C 
ATOM      3  N   LIG    1       -1.639   4.541   4.003  0.00  0.00    -0.590 N 
ATOM      4  C   LIG    1       -2.836   4.505   4.862  0.00  0.00    +0.280 C 
ATOM      5  C   LIG    1       -3.184   3.001   4.995  0.00  0.00    +0.040 C 
ATOM      6  C   LIG    1       -2.840   2.475   3.576  0.00  0.00    +0.050 C 
ATOM      7  C   LIG    1       -1.609   3.320   3.184  0.00  0.00    +0.220 C 
ENDROOT
BRANCH   7   8
ATOM      8  C   LIG    1       -1.681   3.682   1.723  0.00  0.00    +0.530 C 
ATOM      9  N   LIG    1       -1.301   2.789   0.788  0.00  0.00    -0.610 N 
ATOM     10  C   LIG    1       -0.796   1.429   1.054  0.00  0.00    +0.250 C 
ATOM     11  C   LIG    1        0.050   1.070  -0.193  0.00  0.00    +0.040 C 
ATOM     12  C   LIG    1       -0.775   1.728  -1.331  0.00  0.00    +0.040 C 
ATOM     13  C   LIG    1       -1.319   3.009  -0.666  0.00  0.00    +0.220 C 
ATOM     14  O   LIG    1       -2.082   4.777   1.388  0.00  0.00    -0.520 OA
BRANCH  13  15
ATOM     15  C   LIG    1       -2.752   3.270  -1.134  0.00  0.00    -0.020 C 
ATOM     16  C   LIG    1       -3.655   2.075  -0.762  0.00  0.00    +0.020 C 
ATOM     17  C   LIG    1       -4.627   1.946  -1.962  0.00  0.00    -0.010 C 
ATOM     18  C   LIG    1       -3.717   2.265  -3.174  0.00  0.00    +0.010 C 
ATOM     19  C   LIG    1       -2.792   3.390  -2.668  0.00  0.00    +0.010 C 
ENDBRANCH  13  15
ENDBRANCH   7   8
BRANCH   2  20
ATOM     20  C   LIG    1       -0.876   6.709   4.859  0.00  0.00    -0.010 A 
ATOM     21  N   LIG    1       -1.845   6.933   5.711  0.00  0.00    -0.330 NA
ATOM     22  O   LIG    1       -1.690   7.983   6.291  0.00  0.00    +0.120 OA
ATOM     23  C   LIG    1       -0.580   8.616   5.887  0.00  0.00    +0.010 A 
ATOM     24  C   LIG    1       -0.004   7.829   4.949  0.00  0.00    +0.000 A 
BRANCH  23  25
ATOM     25  C   LIG    1       -0.071   9.945   6.382  0.00  0.00    +0.050 C 
ATOM     26  C   LIG    1       -0.775  10.565   7.591  0.00  0.00    +0.060 C 
ATOM     27  C   LIG    1       -0.980  11.162   6.197  0.00  0.00    +0.050 C 
ENDBRANCH  23  25
ENDBRANCH   2  20
TORSDOF 4
