REMARK  Name = ZINCpe00000VVGh0.0
REMARK                            x       y       z     vdW  Elec       q    Type
REMARK                         _______ _______ _______ _____ _____    ______ ____
ROOT
ATOM      1  C   LIG    1        1.390  -1.192  -3.362  0.00  0.00    +0.200 C 
ENDROOT
BRANCH   1   2
ATOM      2  N   LIG    1        0.649  -1.359  -4.620  0.00  0.00    -0.480 NA
ATOM      3  C   LIG    1       -0.206  -2.574  -4.576  0.00  0.00    +0.190 C 
ATOM      4  C   LIG    1       -0.473  -2.915  -6.058  0.00  0.00    +0.040 C 
ATOM      5  C   LIG    1        0.699  -2.279  -6.833  0.00  0.00    +0.050 C 
ATOM      6  C   LIG    1        1.575  -1.606  -5.755  0.00  0.00    +0.240 C 
BRANCH   6   7
ATOM      7  C   LIG    1        2.137  -0.305  -6.267  0.00  0.00    +0.180 A 
ATOM      8  N   LIG    1        1.468   0.784  -6.498  0.00  0.00    -0.350 NA
ATOM      9  O   LIG    1        2.209   1.656  -6.900  0.00  0.00    +0.080 OA
ATOM     10  C   LIG    1        3.459   1.188  -6.975  0.00  0.00    +0.210 A 
ATOM     11  N   LIG    1        3.424  -0.060  -6.574  0.00  0.00    -0.480 NA
BRANCH  10  12
ATOM     12  C   LIG    1        4.676   1.950  -7.433  0.00  0.00    +0.070 C 
ATOM     13  C   LIG    1        4.522   3.454  -7.666  0.00  0.00    +0.060 C 
ATOM     14  C   LIG    1        4.666   2.506  -8.858  0.00  0.00    +0.070 C 
ENDBRANCH  10  12
ENDBRANCH   6   7
ENDBRANCH   1   2
BRANCH   1  16
ATOM     15  O   LIG    1       -0.718  -0.515  -2.545  0.00  0.00    -0.500 OA
ATOM     16  C   LIG    1        0.452  -0.704  -2.288  0.00  0.00    +0.510 C 
ATOM     17  N   LIG    1        0.914  -0.478  -1.042  0.00  0.00    -0.730 N 
ATOM     18  H   LIG    1        1.849  -0.630  -0.837  0.00  0.00    +0.400 HD
BRANCH  17  19
ATOM     19  C   LIG    1        0.002  -0.004   0.002  0.00  0.00    +0.260 C 
ATOM     20  C   LIG    1        0.645  -0.205   1.376  0.00  0.00    +0.050 C 
ATOM     21  C   LIG    1        2.147   0.008   1.303  0.00  0.00    +0.010 C 
ATOM     22  C   LIG    1        2.549   1.439   0.996  0.00  0.00    +0.010 C 
ATOM     23  C   LIG    1        2.131   1.830  -0.423  0.00  0.00    +0.260 C 
ATOM     24  N   LIG    1        0.743   2.321  -0.386  0.00  0.00    -0.720 N 
ATOM     25  H   LIG    1        0.563   3.267  -0.505  0.00  0.00    +0.400 HD
ATOM     26  C   LIG    1       -0.268   1.473  -0.191  0.00  0.00    +0.510 C 
ATOM     27  O   LIG    1       -1.408   1.887  -0.173  0.00  0.00    -0.530 OA
ENDBRANCH  17  19
ENDBRANCH   1  16
TORSDOF 5
