REMARK  Name = ZINCqH0000002Z9H.0
REMARK                            x       y       z     vdW  Elec       q    Type
REMARK                         _______ _______ _______ _____ _____    ______ ____
ROOT
ATOM      1  N   LIG    1       -3.036   0.360   0.155  0.00  0.00    -0.490 NA
ENDROOT
BRANCH   1   3
ATOM      2  C   LIG    1       -2.996   2.562   1.225  0.00  0.00    +0.040 C 
ATOM      3  C   LIG    1       -2.680   1.074   1.388  0.00  0.00    +0.180 C 
ENDBRANCH   1   3
BRANCH   1   4
ATOM      4  C   LIG    1       -2.401  -0.964   0.111  0.00  0.00    +0.290 C 
BRANCH   4   5
ATOM      5  C   LIG    1       -0.906  -0.800   0.011  0.00  0.00    +0.440 A 
ATOM      6  N   LIG    1       -0.405   0.404  -0.016  0.00  0.00    -0.540 NA
ATOM      7  C   LIG    1        0.921   0.604  -0.109  0.00  0.00    +0.550 A 
ATOM      8  C   LIG    1        1.792  -0.516  -0.174  0.00  0.00    -0.330 A 
ATOM      9  C   LIG    1        1.250  -1.790  -0.139  0.00  0.00    +0.170 A 
ATOM     10  C   LIG    1        2.213  -2.792  -0.210  0.00  0.00    -0.010 A 
ATOM     11  C   LIG    1        3.474  -2.378  -0.298  0.00  0.00    +0.010 A 
ATOM     12  S   LIG    1        3.542  -0.623  -0.298  0.00  0.00    +0.240 S 
ATOM     13  O   LIG    1        1.372   1.738  -0.138  0.00  0.00    -0.500 OA
ATOM     14  N   LIG    1       -0.137  -1.898  -0.041  0.00  0.00    -0.600 N 
ATOM     15  H   LIG    1       -0.550  -2.776  -0.015  0.00  0.00    +0.420 HD
ENDBRANCH   4   5
ENDBRANCH   1   4
BRANCH   1  16
ATOM     16  C   LIG    1       -4.494   0.248   0.013  0.00  0.00    +0.220 C 
BRANCH  16  17
ATOM     17  C   LIG    1       -4.840  -0.010  -1.431  0.00  0.00    +0.500 C 
ATOM     18  N   LIG    1       -6.131  -0.103  -1.808  0.00  0.00    -0.680 N 
ATOM     19  H   LIG    1       -6.835  -0.056  -1.143  0.00  0.00    +0.410 HD
ATOM     20  O   LIG    1       -3.958  -0.135  -2.253  0.00  0.00    -0.470 OA
BRANCH  18  21
ATOM     21  C   LIG    1       -6.455  -0.269  -3.160  0.00  0.00    +0.170 A 
ATOM     22  C   LIG    1       -5.784   0.463  -4.132  0.00  0.00    -0.030 A 
ATOM     23  C   LIG    1       -6.103   0.293  -5.466  0.00  0.00    +0.050 A 
ATOM     24  C   LIG    1       -7.096  -0.596  -5.833  0.00  0.00    +0.030 A 
ATOM     25  C   LIG    1       -7.770  -1.322  -4.869  0.00  0.00    +0.050 A 
ATOM     26 CL   LIG    1       -4.542   1.585  -3.671  0.00  0.00    -0.010 Cl
ATOM     27  C   LIG    1       -7.452  -1.162  -3.533  0.00  0.00    -0.050 A 
ATOM     28 CL   LIG    1       -8.299  -2.074  -2.323  0.00  0.00    -0.050 Cl
ENDBRANCH  18  21
ENDBRANCH  16  17
ENDBRANCH   1  16
TORSDOF 6
