REMARK  Name = ZINCrg000000rgSb.0
REMARK                            x       y       z     vdW  Elec       q    Type
REMARK                         _______ _______ _______ _____ _____    ______ ____
ROOT
ATOM      1  N   LIG    1       -4.044  -5.310   1.682  0.00  0.00    -0.720 N 
ATOM      2  H   LIG    1       -4.320  -5.877   0.945  0.00  0.00    +0.400 HD
ATOM      3  C   LIG    1       -3.481  -4.111   1.436  0.00  0.00    +0.500 C 
ATOM      4  O   LIG    1       -3.136  -3.402   2.358  0.00  0.00    -0.520 OA
ENDROOT
BRANCH   1   6
ATOM      5  C   LIG    1       -2.957  -6.421   3.571  0.00  0.00    +0.040 C 
ATOM      6  C   LIG    1       -4.240  -5.758   3.063  0.00  0.00    +0.290 C 
BRANCH   6   7
ATOM      7  C   LIG    1       -5.372  -6.752   3.113  0.00  0.00    -0.090 A 
ATOM      8  C   LIG    1       -5.508  -7.693   2.111  0.00  0.00    +0.040 A 
ATOM      9  C   LIG    1       -6.543  -8.610   2.155  0.00  0.00    +0.050 A 
ATOM     10  C   LIG    1       -7.451  -8.579   3.200  0.00  0.00    +0.040 A 
ATOM     11  O   LIG    1       -8.543  -9.352   3.472  0.00  0.00    -0.310 OA
ATOM     12  C   LIG    1       -8.836  -9.126   4.864  0.00  0.00    +0.430 C 
ATOM     13  O   LIG    1       -8.325  -7.803   5.111  0.00  0.00    -0.310 OA
ATOM     14  C   LIG    1       -7.317  -7.627   4.207  0.00  0.00    +0.040 A 
ATOM     15  C   LIG    1       -6.276  -6.715   4.159  0.00  0.00    +0.050 A 
ENDBRANCH   6   7
ENDBRANCH   1   6
BRANCH   3  16
ATOM     16  C   LIG    1       -3.280  -3.649   0.016  0.00  0.00    +0.410 C 
BRANCH  16  17
ATOM     17  N   LIG    1       -2.654  -2.325   0.016  0.00  0.00    -0.460 N 
ATOM     18  N   LIG    1       -3.322  -1.094   0.029  0.00  0.00    +0.040 NA
ATOM     19  N   LIG    1       -2.491  -0.178   0.025  0.00  0.00    +0.030 NA
ATOM     20  N   LIG    1       -1.201  -0.723   0.010  0.00  0.00    -0.410 N 
ATOM     21  C   LIG    1       -1.329  -2.067  -0.001  0.00  0.00    +0.660 A 
ATOM     22  O   LIG    1       -0.426  -2.885  -0.020  0.00  0.00    -0.510 OA
BRANCH  20  23
ATOM     23  C   LIG    1        0.002  -0.004   0.002  0.00  0.00    +0.160 A 
ATOM     24  C   LIG    1       -0.017   1.384   0.010  0.00  0.00    +0.020 A 
ATOM     25  C   LIG    1        1.171   2.090   0.002  0.00  0.00    +0.040 A 
ATOM     26  C   LIG    1        2.377   1.415  -0.013  0.00  0.00    +0.010 A 
ATOM     27  C   LIG    1        2.400   0.032  -0.021  0.00  0.00    +0.050 A 
ATOM     28  C   LIG    1        1.215  -0.679  -0.013  0.00  0.00    +0.020 A 
ENDBRANCH  20  23
ENDBRANCH  16  17
ENDBRANCH   3  16
TORSDOF 5
