REMARK  Name = ZINC5d0000002nCI.0
REMARK                            x       y       z     vdW  Elec       q    Type
REMARK                         _______ _______ _______ _____ _____    ______ ____
ROOT
ATOM      1  C   LIG    1        2.040   1.127  -1.261  0.00  0.00    +0.010 C 
ATOM      2  C   LIG    1        1.286   1.562  -0.002  0.00  0.00    +0.120 C 
ATOM      3  C   LIG    1        2.064   1.114   1.238  0.00  0.00    +0.010 C 
ATOM      4  C   LIG    1        1.145   3.085   0.008  0.00  0.00    +0.050 C 
ENDROOT
BRANCH   2   5
ATOM      5  O   LIG    1       -0.011   0.963   0.007  0.00  0.00    -0.560 OA
ATOM      6  H   LIG    1        0.002  -0.004   0.002  0.00  0.00    +0.380 HD
ENDBRANCH   2   5
TORSDOF 1
