REMARK  Name = ZINCpk00000y6uqH.2
REMARK                            x       y       z     vdW  Elec       q    Type
REMARK                         _______ _______ _______ _____ _____    ______ ____
ROOT
ATOM      1  C   LIG    1       -0.046   1.252   0.008  0.00  0.00    +0.310 C 
ENDROOT
BRANCH   1   6
ATOM      2  N   LIG    1       -0.409   2.918  -1.888  0.00  0.00    -0.320 N 
ATOM      3  N   LIG    1       -1.007   2.898  -3.155  0.00  0.00    -0.280 NA
ATOM      4  C   LIG    1       -1.491   1.700  -3.361  0.00  0.00    +0.240 A 
ATOM      5  C   LIG    1       -1.213   0.916  -2.235  0.00  0.00    -0.100 A 
ATOM      6  C   LIG    1       -0.544   1.686  -1.346  0.00  0.00    +0.050 A 
BRANCH   2  13
ATOM      7  C   LIG    1       -1.799   5.402  -1.840  0.00  0.00    +0.090 C 
ATOM      8  C   LIG    1       -0.423   5.248  -1.245  0.00  0.00    -0.070 A 
ATOM      9  C   LIG    1        0.198   6.329  -0.649  0.00  0.00    +0.020 A 
ATOM     10  C   LIG    1        1.463   6.190  -0.109  0.00  0.00    +0.020 A 
ATOM     11  C   LIG    1        2.108   4.968  -0.157  0.00  0.00    +0.020 A 
ATOM     12  C   LIG    1        1.490   3.882  -0.746  0.00  0.00    +0.010 A 
ATOM     13  C   LIG    1        0.220   4.018  -1.290  0.00  0.00    +0.140 A 
ENDBRANCH   2  13
ENDBRANCH   1   6
BRANCH   1  14
ATOM     14  N   LIG    1       -1.052   1.577   1.028  0.00  0.00    -0.490 NA
ATOM     15  C   LIG    1       -2.199   0.646   0.956  0.00  0.00    +0.180 C 
ATOM     16  C   LIG    1       -3.458   1.451   1.329  0.00  0.00    +0.020 C 
ATOM     17  C   LIG    1       -2.956   2.891   1.583  0.00  0.00    +0.120 C 
ATOM     18  C   LIG    1       -1.616   2.933   0.806  0.00  0.00    +0.210 C 
BRANCH  17  19
ATOM     19  O   LIG    1       -2.742   3.114   2.978  0.00  0.00    -0.530 OA
ATOM     20  H   LIG    1       -3.540   3.022   3.518  0.00  0.00    +0.370 HD
ENDBRANCH  17  19
BRANCH  17  21
ATOM     21  C   LIG    1       -3.942   3.915   1.018  0.00  0.00    +0.320 C 
BRANCH  21  22
ATOM     22  N   LIG    1       -5.235   3.771   1.690  0.00  0.00    -0.290 N 
ATOM     23  C   LIG    1       -5.908   4.752   2.334  0.00  0.00    +0.140 A 
ATOM     24  C   LIG    1       -7.046   4.186   2.801  0.00  0.00    +0.140 A 
ATOM     25  N   LIG    1       -7.010   2.901   2.431  0.00  0.00    -0.270 NA
ATOM     26  N   LIG    1       -5.924   2.687   1.775  0.00  0.00    -0.080 NA
ENDBRANCH  21  22
ENDBRANCH  17  21
ENDBRANCH   1  14
TORSDOF 6
