REMARK  Name = ZINCvU00000008hU.0
REMARK                            x       y       z     vdW  Elec       q    Type
REMARK                         _______ _______ _______ _____ _____    ______ ____
ROOT
ATOM      1  C   LIG    1       -3.608   3.002   0.054  0.00  0.00    +0.220 C 
ENDROOT
BRANCH   1   2
ATOM      2  C   LIG    1       -4.817   3.902   0.071  0.00  0.00    +0.430 C 
ATOM      3  O   LIG    1       -4.677   5.107   0.076  0.00  0.00    -0.450 OA
BRANCH   2   7
ATOM      4  C   LIG    1       -8.667   0.565   0.089  0.00  0.00    +0.140 C 
ATOM      5  C   LIG    1       -7.852   1.832   0.089  0.00  0.00    +0.030 A 
ATOM      6  C   LIG    1       -6.510   1.894   0.071  0.00  0.00    -0.010 A 
ATOM      7  C   LIG    1       -6.162   3.321   0.081  0.00  0.00    -0.270 A 
ATOM      8  C   LIG    1       -7.364   4.003   0.097  0.00  0.00    +0.110 A 
ATOM      9  C   LIG    1       -7.530   5.501   0.107  0.00  0.00    +0.150 C 
ATOM     10  N   LIG    1       -8.359   3.099   0.101  0.00  0.00    -0.430 N 
BRANCH  10  11
ATOM     11  C   LIG    1       -9.786   3.427   0.117  0.00  0.00    +0.310 C 
BRANCH  11  12
ATOM     12  C   LIG    1      -10.297   3.550  -1.320  0.00  0.00    +0.140 C 
ATOM     13  C   LIG    1      -11.769   4.019  -1.329  0.00  0.00    +0.010 C 
ATOM     14  C   LIG    1      -12.405   3.238  -2.501  0.00  0.00    +0.010 C 
ATOM     15  C   LIG    1      -11.241   2.390  -3.062  0.00  0.00    +0.200 C 
ATOM     16  O   LIG    1      -10.318   2.255  -1.959  0.00  0.00    -0.360 OA
ENDBRANCH  11  12
ENDBRANCH  10  11
ENDBRANCH   2   7
ENDBRANCH   1   2
BRANCH   1  17
ATOM     17  O   LIG    1       -2.422   3.799   0.047  0.00  0.00    -0.290 OA
BRANCH  17  18
ATOM     18  C   LIG    1       -1.235   3.138   0.031  0.00  0.00    +0.140 A 
ATOM     19  C   LIG    1       -1.215   1.750   0.017  0.00  0.00    -0.080 A 
ATOM     20  C   LIG    1       -0.013   1.076   0.008  0.00  0.00    +0.070 A 
ATOM     21  C   LIG    1        1.185   1.790   0.000  0.00  0.00    -0.100 A 
ATOM     22  C   LIG    1        1.162   3.185   0.008  0.00  0.00    +0.080 A 
ATOM     23  C   LIG    1       -0.044   3.852   0.023  0.00  0.00    -0.010 A 
BRANCH  21  24
ATOM     24  C   LIG    1        2.480   1.069  -0.016  0.00  0.00    -0.000 A 
ATOM     25  C   LIG    1        2.501  -0.326  -0.019  0.00  0.00    +0.020 A 
ATOM     26  C   LIG    1        3.702  -0.997  -0.040  0.00  0.00    +0.070 A 
ATOM     27  C   LIG    1        4.902  -0.280  -0.047  0.00  0.00    -0.040 A 
ATOM     28  C   LIG    1        4.880   1.118  -0.039  0.00  0.00    +0.080 A 
ATOM     29  C   LIG    1        3.677   1.786  -0.024  0.00  0.00    +0.020 A 
BRANCH  27  30
ATOM     30  C   LIG    1        6.153  -0.977  -0.063  0.00  0.00    +0.250 C 
ATOM     31  N   LIG    1        7.146  -1.529  -0.075  0.00  0.00    -0.420 NA
ENDBRANCH  27  30
ENDBRANCH  21  24
ENDBRANCH  17  18
ENDBRANCH   1  17
TORSDOF 8
