REMARK  Name = ZINCvU0000000F92.0
REMARK                            x       y       z     vdW  Elec       q    Type
REMARK                         _______ _______ _______ _____ _____    ______ ____
ROOT
ATOM      1  C   LIG    1       -3.643  -6.007   0.123  0.00  0.00    +0.060 C 
ATOM      2  S   LIG    1       -2.723  -6.879   1.435  0.00  0.00    +0.070 S 
ATOM      3  C   LIG    1       -3.969  -8.116   1.679  0.00  0.00    +0.380 C 
ATOM      4  N   LIG    1       -4.990  -7.847   0.808  0.00  0.00    -0.680 N 
ATOM      5  H   LIG    1       -5.773  -8.419   0.792  0.00  0.00    +0.420 HD
ATOM      6  N   LIG    1       -3.922  -9.107   2.538  0.00  0.00    -0.480 NA
ATOM      7  C   LIG    1       -4.916  -6.810  -0.014  0.00  0.00    +0.540 C 
ATOM      8  O   LIG    1       -5.790  -6.528  -0.805  0.00  0.00    -0.470 OA
ENDROOT
BRANCH   6   9
ATOM      9  C   LIG    1       -4.930 -10.033   2.571  0.00  0.00    +0.150 A 
ATOM     10  C   LIG    1       -5.369 -10.634   1.390  0.00  0.00    -0.040 A 
ATOM     11  C   LIG    1       -6.385 -11.566   1.431  0.00  0.00    +0.080 A 
ATOM     12  C   LIG    1       -6.970 -11.905   2.639  0.00  0.00    +0.010 A 
ATOM     13  C   LIG    1       -6.540 -11.312   3.813  0.00  0.00    +0.100 A 
ATOM     14  C   LIG    1       -5.520 -10.383   3.787  0.00  0.00    -0.180 A 
BRANCH  14  15
ATOM     15  C   LIG    1       -5.049  -9.744   5.068  0.00  0.00    +0.520 C 
ATOM     16  F   LIG    1       -5.231  -8.359   4.992  0.00  0.00    -0.180 F 
ATOM     17  F   LIG    1       -3.692 -10.026   5.258  0.00  0.00    -0.170 F 
ATOM     18  F   LIG    1       -5.786 -10.253   6.142  0.00  0.00    -0.180 F 
ENDBRANCH  14  15
ENDBRANCH   6   9
BRANCH   1  19
ATOM     19  C   LIG    1       -3.956  -4.571   0.549  0.00  0.00    +0.130 C 
BRANCH  19  21
ATOM     20  O   LIG    1       -1.620  -4.305   0.341  0.00  0.00    -0.510 OA
ATOM     21  C   LIG    1       -2.677  -3.775   0.611  0.00  0.00    +0.520 C 
ATOM     22  N   LIG    1       -2.708  -2.476   0.965  0.00  0.00    -0.670 N 
ATOM     23  H   LIG    1       -3.544  -2.069   1.244  0.00  0.00    +0.410 HD
BRANCH  22  24
ATOM     24  C   LIG    1       -1.536  -1.713   0.931  0.00  0.00    +0.150 A 
ATOM     25  C   LIG    1       -1.596  -0.388   0.561  0.00  0.00    -0.010 A 
ATOM     26  C   LIG    1       -0.418   0.375   0.528  0.00  0.00    -0.030 A 
ATOM     27  C   LIG    1       -0.438   1.730   0.155  0.00  0.00    +0.020 A 
ATOM     28  C   LIG    1        0.724   2.440   0.134  0.00  0.00    +0.010 A 
ATOM     29  C   LIG    1        1.935   1.843   0.476  0.00  0.00    +0.000 A 
ATOM     30  C   LIG    1        1.993   0.533   0.842  0.00  0.00    +0.030 A 
ATOM     31  C   LIG    1        0.815  -0.232   0.877  0.00  0.00    -0.060 A 
ATOM     32  C   LIG    1        0.840  -1.588   1.250  0.00  0.00    +0.040 A 
ATOM     33  C   LIG    1       -0.315  -2.304   1.274  0.00  0.00    +0.030 A 
ENDBRANCH  22  24
ENDBRANCH  19  21
ENDBRANCH   1  19
TORSDOF 5
