REMARK  Name = ZINCvU0000000F92.1
REMARK                            x       y       z     vdW  Elec       q    Type
REMARK                         _______ _______ _______ _____ _____    ______ ____
ROOT
ATOM      1  C   LIG    1        2.747   0.372   0.210  0.00  0.00    +0.060 C 
ATOM      2  S   LIG    1        2.554   0.127  -1.587  0.00  0.00    +0.070 S 
ATOM      3  C   LIG    1        4.220   0.612  -1.968  0.00  0.00    +0.380 C 
ATOM      4  N   LIG    1        4.837   0.924  -0.787  0.00  0.00    -0.680 N 
ATOM      5  H   LIG    1        5.763   1.214  -0.789  0.00  0.00    +0.420 HD
ATOM      6  N   LIG    1        4.761   0.658  -3.163  0.00  0.00    -0.480 NA
ATOM      7  C   LIG    1        4.178   0.834   0.355  0.00  0.00    +0.540 C 
ATOM      8  O   LIG    1        4.678   1.101   1.427  0.00  0.00    -0.470 OA
ENDROOT
BRANCH   6   9
ATOM      9  C   LIG    1        6.027   1.156  -3.323  0.00  0.00    +0.150 A 
ATOM     10  C   LIG    1        6.368   2.393  -2.774  0.00  0.00    -0.040 A 
ATOM     11  C   LIG    1        7.647   2.886  -2.935  0.00  0.00    +0.080 A 
ATOM     12  C   LIG    1        8.586   2.162  -3.646  0.00  0.00    +0.010 A 
ATOM     13  C   LIG    1        8.253   0.937  -4.197  0.00  0.00    +0.100 A 
ATOM     14  C   LIG    1        6.980   0.430  -4.040  0.00  0.00    -0.180 A 
BRANCH  14  15
ATOM     15  C   LIG    1        6.619  -0.904  -4.640  0.00  0.00    +0.520 C 
ATOM     16  F   LIG    1        5.569  -0.738  -5.549  0.00  0.00    -0.170 F 
ATOM     17  F   LIG    1        6.223  -1.780  -3.625  0.00  0.00    -0.180 F 
ATOM     18  F   LIG    1        7.731  -1.433  -5.305  0.00  0.00    -0.180 F 
ENDBRANCH  14  15
ENDBRANCH   6   9
BRANCH   1  19
ATOM     19  C   LIG    1        1.780   1.446   0.714  0.00  0.00    +0.130 C 
BRANCH  19  21
ATOM     20  O   LIG    1        0.153  -0.183   0.196  0.00  0.00    -0.510 OA
ATOM     21  C   LIG    1        0.366   0.932   0.622  0.00  0.00    +0.520 C 
ATOM     22  N   LIG    1       -0.661   1.714   1.009  0.00  0.00    -0.670 N 
ATOM     23  H   LIG    1       -0.487   2.575   1.420  0.00  0.00    +0.410 HD
BRANCH  22  24
ATOM     24  C   LIG    1       -1.978   1.284   0.817  0.00  0.00    +0.140 A 
ATOM     25  C   LIG    1       -2.296   0.537  -0.295  0.00  0.00    +0.040 A 
ATOM     26  C   LIG    1       -3.618   0.102  -0.482  0.00  0.00    -0.030 A 
ATOM     27  C   LIG    1       -3.980  -0.666  -1.602  0.00  0.00    +0.020 A 
ATOM     28  C   LIG    1       -5.272  -1.067  -1.755  0.00  0.00    +0.010 A 
ATOM     29  C   LIG    1       -6.244  -0.727  -0.816  0.00  0.00    +0.000 A 
ATOM     30  C   LIG    1       -5.930   0.016   0.280  0.00  0.00    +0.030 A 
ATOM     31  C   LIG    1       -4.607   0.448   0.473  0.00  0.00    -0.060 A 
ATOM     32  C   LIG    1       -4.249   1.217   1.594  0.00  0.00    +0.040 A 
ATOM     33  C   LIG    1       -2.961   1.621   1.755  0.00  0.00    +0.000 A 
ENDBRANCH  22  24
ENDBRANCH  19  21
ENDBRANCH   1  19
TORSDOF 5
