REMARK  Name = ZINCrH000004sxjA.1
REMARK                            x       y       z     vdW  Elec       q    Type
REMARK                         _______ _______ _______ _____ _____    ______ ____
ROOT
ATOM      1  N   LIG    1        1.071   5.615   6.261  0.00  0.00    -0.670 N 
ATOM      2  H   LIG    1        0.623   5.884   7.078  0.00  0.00    +0.410 HD
ATOM      3  C   LIG    1        0.404   4.911   5.326  0.00  0.00    +0.560 C 
ATOM      4  O   LIG    1        0.935   4.657   4.261  0.00  0.00    -0.470 OA
ENDROOT
BRANCH   1  11
ATOM      5  C   LIG    1        7.948   8.938   6.039  0.00  0.00    +0.200 C 
ATOM      6  C   LIG    1        6.603   8.258   6.066  0.00  0.00    +0.120 A 
ATOM      7  N   LIG    1        6.346   7.125   5.529  0.00  0.00    -0.450 NA
ATOM      8  C   LIG    1        5.093   6.641   5.636  0.00  0.00    +0.030 A 
ATOM      9  C   LIG    1        4.567   5.428   5.135  0.00  0.00    +0.180 A 
ATOM     10  C   LIG    1        3.252   5.099   5.349  0.00  0.00    +0.010 A 
ATOM     11  C   LIG    1        2.412   5.959   6.053  0.00  0.00    +0.210 A 
ATOM     12  C   LIG    1        2.907   7.150   6.551  0.00  0.00    +0.020 A 
ATOM     13  F   LIG    1        5.366   4.585   4.445  0.00  0.00    -0.120 F 
ATOM     14  C   LIG    1        4.242   7.494   6.346  0.00  0.00    -0.120 A 
ATOM     15  S   LIG    1        5.165   8.911   6.841  0.00  0.00    +0.060 S 
ENDBRANCH   1  11
BRANCH   3  16
ATOM     16  C   LIG    1       -0.970   4.449   5.593  0.00  0.00    -0.120 A 
ATOM     17  C   LIG    1       -1.585   4.738   6.814  0.00  0.00    +0.050 A 
ATOM     18  C   LIG    1       -2.869   4.303   7.057  0.00  0.00    +0.000 A 
ATOM     19  C   LIG    1       -3.557   3.579   6.097  0.00  0.00    +0.050 A 
ATOM     20  C   LIG    1       -2.966   3.290   4.884  0.00  0.00    -0.030 A 
ATOM     21  C   LIG    1       -1.670   3.715   4.622  0.00  0.00    +0.160 A 
BRANCH  21  22
ATOM     22  N   LIG    1       -1.072   3.421   3.403  0.00  0.00    -0.490 N 
ATOM     23  C   LIG    1       -0.983   1.969   3.197  0.00  0.00    +0.200 C 
ATOM     24  C   LIG    1       -0.248   1.687   1.884  0.00  0.00    +0.190 C 
ATOM     25  N   LIG    1       -0.967   2.330   0.776  0.00  0.00    -0.550 NA
ATOM     26  C   LIG    1       -1.056   3.783   0.982  0.00  0.00    +0.190 C 
ATOM     27  C   LIG    1       -0.334   2.020  -0.513  0.00  0.00    +0.190 C 
ATOM     28  C   LIG    1       -1.790   4.065   2.295  0.00  0.00    +0.200 C 
ENDBRANCH  21  22
ENDBRANCH   3  16
TORSDOF 3
