REMARK  Name = ZINCpk00000xIgjA.0
REMARK                            x       y       z     vdW  Elec       q    Type
REMARK                         _______ _______ _______ _____ _____    ______ ____
ROOT
ATOM      1  N   LIG    1       -0.535   1.528   1.269  0.00  0.00    -0.580 N 
ATOM      2  C   LIG    1       -0.208   2.696   1.854  0.00  0.00    +0.570 C 
ATOM      3  C   LIG    1       -0.944   3.144   3.052  0.00  0.00    +0.090 C 
ATOM      4  C   LIG    1       -1.707   2.273   3.718  0.00  0.00    +0.040 C 
ATOM      5  C   LIG    1       -1.796   0.841   3.260  0.00  0.00    +0.110 C 
ATOM      6  O   LIG    1        0.687   3.379   1.396  0.00  0.00    -0.470 OA
ATOM      7  C   LIG    1       -1.694   0.767   1.738  0.00  0.00    +0.330 C 
ENDROOT
BRANCH   3   8
ATOM      8  N   LIG    1       -0.841   4.470   3.490  0.00  0.00    -0.670 N 
ATOM      9  H   LIG    1       -0.529   4.661   4.389  0.00  0.00    +0.410 HD
ATOM     10  C   LIG    1       -1.174   5.480   2.663  0.00  0.00    +0.560 C 
ATOM     11  O   LIG    1       -1.651   5.240   1.571  0.00  0.00    -0.500 OA
BRANCH  10  12
ATOM     12  C   LIG    1       -0.960   6.881   3.084  0.00  0.00    -0.130 A 
ATOM     13  C   LIG    1       -0.418   7.161   4.340  0.00  0.00    +0.030 A 
ATOM     14  C   LIG    1       -0.216   8.470   4.724  0.00  0.00    +0.000 A 
ATOM     15  C   LIG    1       -0.559   9.505   3.873  0.00  0.00    +0.040 A 
ATOM     16  C   LIG    1       -1.102   9.235   2.630  0.00  0.00    +0.000 A 
ATOM     17  C   LIG    1       -1.304   7.930   2.230  0.00  0.00    +0.080 A 
ENDBRANCH  10  12
ENDBRANCH   3   8
BRANCH   7  18
ATOM     18  C   LIG    1       -1.547  -0.695   1.312  0.00  0.00    +0.430 C 
ATOM     19  F   LIG    1       -1.472  -0.769  -0.083  0.00  0.00    -0.160 F 
ATOM     20  F   LIG    1       -2.653  -1.426   1.759  0.00  0.00    -0.170 F 
ATOM     21  F   LIG    1       -0.380  -1.228   1.870  0.00  0.00    -0.170 F 
ENDBRANCH   7  18
BRANCH   7  22
ATOM     22  O   LIG    1       -2.882   1.308   1.158  0.00  0.00    -0.530 OA
ATOM     23  H   LIG    1       -3.693   0.853   1.424  0.00  0.00    +0.400 HD
ENDBRANCH   7  22
BRANCH   1  24
ATOM     24  C   LIG    1        0.275   1.014   0.163  0.00  0.00    +0.300 C 
BRANCH  24  25
ATOM     25  C   LIG    1       -0.283   1.535  -1.163  0.00  0.00    +0.160 C 
BRANCH  25  27
ATOM     26  C   LIG    1       -0.631   3.546  -2.420  0.00  0.00    +0.200 C 
ATOM     27  O   LIG    1       -0.138   2.955  -1.216  0.00  0.00    -0.370 OA
ENDBRANCH  25  27
ENDBRANCH  24  25
ENDBRANCH   1  24
TORSDOF 7
