REMARK  Name = ZINCvU0000000Hgx.0
REMARK                            x       y       z     vdW  Elec       q    Type
REMARK                         _______ _______ _______ _____ _____    ______ ____
ROOT
ATOM      1  C   LIG    1        4.677   4.070   0.091  0.00  0.00    +0.420 C 
ATOM      2  O   LIG    1        5.759   3.532   0.187  0.00  0.00    -0.430 OA
ENDROOT
BRANCH   1   3
ATOM      3  C   LIG    1        3.453   3.260   0.069  0.00  0.00    -0.180 A 
ATOM      4  C   LIG    1        3.533   1.864   0.159  0.00  0.00    +0.110 A 
ATOM      5  C   LIG    1        2.391   1.114   0.139  0.00  0.00    -0.020 A 
ATOM      6  C   LIG    1        1.149   1.734   0.028  0.00  0.00    +0.180 A 
ATOM      7  C   LIG    1        1.065   3.121  -0.067  0.00  0.00    +0.020 A 
ATOM      8  C   LIG    1        2.201   3.880  -0.042  0.00  0.00    +0.090 A 
BRANCH   6   9
ATOM      9  N   LIG    1       -0.011   0.966   0.007  0.00  0.00    -0.670 N 
ATOM     10  H   LIG    1       -0.011   0.099  -0.428  0.00  0.00    +0.410 HD
ATOM     11  C   LIG    1       -1.136   1.428   0.588  0.00  0.00    +0.560 C 
ATOM     12  O   LIG    1       -1.160   2.548   1.060  0.00  0.00    -0.510 OA
BRANCH  11  13
ATOM     13  C   LIG    1       -2.341   0.574   0.650  0.00  0.00    -0.140 A 
ATOM     14  C   LIG    1       -2.318  -0.711   0.103  0.00  0.00    +0.040 A 
ATOM     15  C   LIG    1       -3.444  -1.505   0.169  0.00  0.00    +0.000 A 
ATOM     16  C   LIG    1       -4.598  -1.027   0.765  0.00  0.00    +0.040 A 
ATOM     17  C   LIG    1       -4.628   0.247   1.304  0.00  0.00    +0.000 A 
ATOM     18  C   LIG    1       -3.508   1.050   1.250  0.00  0.00    +0.080 A 
ENDBRANCH  11  13
ENDBRANCH   6   9
ENDBRANCH   1   3
BRANCH   1  19
ATOM     19  C   LIG    1        4.588   5.572  -0.006  0.00  0.00    +0.080 C 
BRANCH  19  20
ATOM     20  S   LIG    1        6.257   6.281   0.048  0.00  0.00    +0.090 S 
BRANCH  20  23
ATOM     21  C   LIG    1        6.323  10.147  -0.185  0.00  0.00    +0.340 A 
ATOM     22  N   LIG    1        6.892   8.963  -0.079  0.00  0.00    -0.500 NA
ATOM     23  C   LIG    1        5.956   8.012  -0.076  0.00  0.00    +0.200 A 
ATOM     24  N   LIG    1        4.774   8.575  -0.185  0.00  0.00    -0.320 NA
ATOM     25  N   LIG    1        4.986   9.962  -0.252  0.00  0.00    -0.470 N 
ATOM     26  H   LIG    1        4.307  10.650  -0.334  0.00  0.00    +0.440 HD
BRANCH  21  31
ATOM     27  C   LIG    1        9.050  15.213  -0.338  0.00  0.00    +0.100 C 
ATOM     28  C   LIG    1        8.336  13.887  -0.298  0.00  0.00    -0.060 A 
ATOM     29  C   LIG    1        9.064  12.716  -0.183  0.00  0.00    +0.010 A 
ATOM     30  C   LIG    1        8.416  11.498  -0.146  0.00  0.00    +0.080 A 
ATOM     31  C   LIG    1        7.024  11.450  -0.224  0.00  0.00    -0.050 A 
ATOM     32  C   LIG    1        6.296  12.634  -0.344  0.00  0.00    +0.030 A 
ATOM     33  C   LIG    1        6.955  13.845  -0.375  0.00  0.00    +0.010 A 
ENDBRANCH  21  31
ENDBRANCH  20  23
ENDBRANCH  19  20
ENDBRANCH   1  19
TORSDOF 7
