REMARK  Name = ZINCvU0000000Hgx.1
REMARK                            x       y       z     vdW  Elec       q    Type
REMARK                         _______ _______ _______ _____ _____    ______ ____
ROOT
ATOM      1  C   LIG    1        4.676   4.071   0.090  0.00  0.00    +0.420 C 
ATOM      2  O   LIG    1        5.759   3.533   0.185  0.00  0.00    -0.440 OA
ENDROOT
BRANCH   1   3
ATOM      3  C   LIG    1        3.452   3.260   0.069  0.00  0.00    -0.190 A 
ATOM      4  C   LIG    1        3.532   1.865   0.159  0.00  0.00    +0.110 A 
ATOM      5  C   LIG    1        2.391   1.115   0.139  0.00  0.00    -0.020 A 
ATOM      6  C   LIG    1        1.149   1.735   0.028  0.00  0.00    +0.190 A 
ATOM      7  C   LIG    1        1.065   3.121  -0.067  0.00  0.00    +0.010 A 
ATOM      8  C   LIG    1        2.201   3.880  -0.042  0.00  0.00    +0.090 A 
BRANCH   6   9
ATOM      9  N   LIG    1       -0.011   0.966   0.007  0.00  0.00    -0.670 N 
ATOM     10  H   LIG    1       -0.011   0.099  -0.428  0.00  0.00    +0.410 HD
ATOM     11  C   LIG    1       -1.136   1.428   0.588  0.00  0.00    +0.560 C 
ATOM     12  O   LIG    1       -1.161   2.548   1.060  0.00  0.00    -0.510 OA
BRANCH  11  13
ATOM     13  C   LIG    1       -2.341   0.573   0.649  0.00  0.00    -0.140 A 
ATOM     14  C   LIG    1       -2.318  -0.711   0.103  0.00  0.00    +0.040 A 
ATOM     15  C   LIG    1       -3.444  -1.505   0.168  0.00  0.00    +0.000 A 
ATOM     16  C   LIG    1       -4.597  -1.028   0.764  0.00  0.00    +0.040 A 
ATOM     17  C   LIG    1       -4.628   0.246   1.304  0.00  0.00    +0.000 A 
ATOM     18  C   LIG    1       -3.508   1.049   1.250  0.00  0.00    +0.090 A 
ENDBRANCH  11  13
ENDBRANCH   6   9
ENDBRANCH   1   3
BRANCH   1  19
ATOM     19  C   LIG    1        4.587   5.573  -0.007  0.00  0.00    +0.110 C 
BRANCH  19  20
ATOM     20  S   LIG    1        6.252   6.280   0.045  0.00  0.00    +0.070 S 
BRANCH  20  25
ATOM     21  C   LIG    1        4.734   9.841  -0.260  0.00  0.00    +0.280 A 
ATOM     22  N   LIG    1        5.998  10.194  -0.209  0.00  0.00    -0.290 NA
ATOM     23  N   LIG    1        6.748   9.013  -0.094  0.00  0.00    -0.460 N 
ATOM     24  H   LIG    1        7.714   8.942  -0.034  0.00  0.00    +0.450 HD
ATOM     25  C   LIG    1        5.860   7.994  -0.083  0.00  0.00    +0.250 A 
ATOM     26  N   LIG    1        4.653   8.504  -0.189  0.00  0.00    -0.530 NA
BRANCH  21  31
ATOM     27  C   LIG    1        0.268  13.445  -0.744  0.00  0.00    +0.090 C 
ATOM     28  C   LIG    1        1.436  12.502  -0.617  0.00  0.00    -0.070 A 
ATOM     29  C   LIG    1        2.725  13.003  -0.572  0.00  0.00    +0.000 A 
ATOM     30  C   LIG    1        3.799  12.144  -0.456  0.00  0.00    +0.050 A 
ATOM     31  C   LIG    1        3.583  10.770  -0.384  0.00  0.00    -0.030 A 
ATOM     32  C   LIG    1        2.284  10.270  -0.435  0.00  0.00    +0.060 A 
ATOM     33  C   LIG    1        1.217  11.138  -0.546  0.00  0.00    +0.000 A 
ENDBRANCH  21  31
ENDBRANCH  20  25
ENDBRANCH  19  20
ENDBRANCH   1  19
TORSDOF 7
