REMARK  Name = ZINCrD00000hQ649.0
REMARK                            x       y       z     vdW  Elec       q    Type
REMARK                         _______ _______ _______ _____ _____    ______ ____
ROOT
ATOM      1  O   LIG    1        0.002  -0.004   0.002  0.00  0.00    -0.520 OA
ATOM      2  C   LIG    1       -0.014   1.209   0.009  0.00  0.00    +0.520 C 
ATOM      3  N   LIG    1       -1.191   1.867   0.018  0.00  0.00    -0.620 N 
ATOM      4  C   LIG    1       -1.236   3.337   0.032  0.00  0.00    +0.250 C 
ATOM      5  C   LIG    1       -2.180   3.799  -1.089  0.00  0.00    +0.230 C 
ATOM      6  O   LIG    1       -3.433   3.124  -0.954  0.00  0.00    -0.370 OA
ATOM      7  C   LIG    1       -3.352   1.704  -1.095  0.00  0.00    +0.220 C 
ATOM      8  C   LIG    1       -2.468   1.135   0.020  0.00  0.00    +0.280 C 
ENDROOT
BRANCH   7   9
ATOM      9  C   LIG    1       -4.732   1.107  -0.997  0.00  0.00    +0.200 A 
ATOM     10  C   LIG    1       -5.846   1.927  -0.906  0.00  0.00    -0.070 A 
ATOM     11  C   LIG    1       -7.098   1.338  -0.817  0.00  0.00    +0.340 A 
ATOM     12  N   LIG    1       -7.191   0.018  -0.822  0.00  0.00    -0.550 NA
ATOM     13  C   LIG    1       -6.106  -0.737  -0.910  0.00  0.00    +0.490 A 
ATOM     14  N   LIG    1       -4.896  -0.205  -1.002  0.00  0.00    -0.520 NA
BRANCH  13  15
ATOM     15  N   LIG    1       -6.240  -2.115  -0.912  0.00  0.00    -0.450 N 
ATOM     16  C   LIG    1       -5.567  -2.717   0.266  0.00  0.00    +0.200 C 
ATOM     17  C   LIG    1       -6.242  -4.106   0.389  0.00  0.00    +0.030 C 
ATOM     18  C   LIG    1       -7.712  -3.811   0.012  0.00  0.00    +0.020 C 
ATOM     19  C   LIG    1       -7.662  -2.509  -0.809  0.00  0.00    +0.220 C 
ENDBRANCH  13  15
ENDBRANCH   7   9
BRANCH   2  20
ATOM     20  C   LIG    1        1.280   1.980   0.001  0.00  0.00    +0.040 C 
BRANCH  20  21
ATOM     21  C   LIG    1        2.457   1.002  -0.016  0.00  0.00    +0.010 C 
ATOM     22  C   LIG    1        2.438   0.176   1.287  0.00  0.00    +0.020 C 
ATOM     23  C   LIG    1        3.230  -1.085   1.064  0.00  0.00    +0.010 C 
ATOM     24  C   LIG    1        4.697  -0.945   1.513  0.00  0.00    +0.000 C 
ATOM     25  C   LIG    1        5.315   0.410   1.120  0.00  0.00    +0.000 C 
ATOM     26  C   LIG    1        4.930   0.837  -0.271  0.00  0.00    +0.010 C 
ATOM     27  C   LIG    1        3.692   1.753  -0.177  0.00  0.00    +0.010 C 
ENDBRANCH  20  21
ENDBRANCH   2  20
TORSDOF 4
