REMARK  Name = ZINCrD000000CFzq.0
REMARK                            x       y       z     vdW  Elec       q    Type
REMARK                         _______ _______ _______ _____ _____    ______ ____
ROOT
ATOM      1  C   LIG    1       -5.013   3.461  -4.052  0.00  0.00    -0.160 A 
ATOM      2  C   LIG    1       -5.427   2.379  -3.271  0.00  0.00    +0.080 A 
ATOM      3  C   LIG    1       -6.709   1.890  -3.399  0.00  0.00    -0.030 A 
ATOM      4  C   LIG    1       -7.590   2.465  -4.301  0.00  0.00    +0.070 A 
ATOM      5  C   LIG    1       -7.193   3.534  -5.079  0.00  0.00    -0.070 A 
ATOM      6  C   LIG    1       -5.909   4.043  -4.959  0.00  0.00    +0.180 A 
ENDROOT
BRANCH   1   8
ATOM      7  O   LIG    1       -2.934   4.097  -4.902  0.00  0.00    -0.520 OA
ATOM      8  C   LIG    1       -3.643   3.990  -3.919  0.00  0.00    +0.570 C 
ATOM      9  N   LIG    1       -3.175   4.355  -2.709  0.00  0.00    -0.610 N 
ATOM     10  C   LIG    1       -1.774   4.764  -2.539  0.00  0.00    +0.300 C 
ATOM     11  C   LIG    1       -1.740   6.140  -1.867  0.00  0.00    +0.050 C 
ATOM     12  C   LIG    1       -2.546   6.089  -0.568  0.00  0.00    +0.260 C 
ATOM     13  O   LIG    1       -1.982   5.108   0.311  0.00  0.00    -0.370 OA
ATOM     14  C   LIG    1       -1.591   5.790   1.520  0.00  0.00    +0.200 C 
ATOM     15  C   LIG    1       -2.452   7.077   1.495  0.00  0.00    +0.200 C 
ATOM     16  C   LIG    1       -4.002   5.732  -0.872  0.00  0.00    +0.020 C 
ATOM     17  O   LIG    1       -2.494   7.373   0.076  0.00  0.00    -0.370 OA
ATOM     18  C   LIG    1       -4.058   4.351  -1.534  0.00  0.00    +0.280 C 
ENDBRANCH   1   8
BRANCH   6  19
ATOM     19  O   LIG    1       -5.520   5.097  -5.720  0.00  0.00    -0.290 OA
BRANCH  19  20
ATOM     20  C   LIG    1       -6.487   5.639  -6.621  0.00  0.00    +0.260 C 
BRANCH  20  21
ATOM     21  C   LIG    1       -5.880   6.793  -7.375  0.00  0.00    -0.110 A 
ATOM     22  C   LIG    1       -5.979   8.077  -6.871  0.00  0.00    +0.070 A 
ATOM     23  C   LIG    1       -5.417   9.136  -7.559  0.00  0.00    -0.020 A 
ATOM     24  C   LIG    1       -4.765   8.912  -8.760  0.00  0.00    +0.110 A 
ATOM     25  C   LIG    1       -4.671   7.627  -9.267  0.00  0.00    -0.020 A 
ATOM     26  F   LIG    1       -4.221   9.947  -9.436  0.00  0.00    -0.140 F 
ATOM     27  C   LIG    1       -5.228   6.569  -8.574  0.00  0.00    +0.080 A 
ENDBRANCH  20  21
ENDBRANCH  19  20
ENDBRANCH   6  19
TORSDOF 4
