REMARK  Name = ZINCrg000000p0Cs.0
REMARK                            x       y       z     vdW  Elec       q    Type
REMARK                         _______ _______ _______ _____ _____    ______ ____
ROOT
ATOM      1  C   LIG    1        1.196   6.102  -1.035  0.00  0.00    -0.010 C 
ATOM      2  C   LIG    1        2.546   5.393  -0.912  0.00  0.00    +0.050 C 
ATOM      3  C   LIG    1        2.498   4.410   0.261  0.00  0.00    +0.300 C 
ATOM      4  N   LIG    1        1.356   3.505   0.072  0.00  0.00    -0.580 N 
ATOM      5  C   LIG    1        0.024   4.084  -0.151  0.00  0.00    +0.300 C 
ATOM      6  C   LIG    1        0.100   5.071  -1.314  0.00  0.00    +0.040 C 
ENDROOT
BRANCH   4   7
ATOM      7  C   LIG    1        1.533   2.126   0.099  0.00  0.00    +0.410 A 
ATOM      8  N   LIG    1        2.747   1.627   0.178  0.00  0.00    -0.300 NA
ATOM      9  N   LIG    1        2.942   0.247   0.206  0.00  0.00    -0.170 N 
ATOM     10  N   LIG    1        4.070  -0.581   0.284  0.00  0.00    -0.050 NA
ATOM     11  N   LIG    1        3.645  -1.799   0.271  0.00  0.00    -0.030 NA
ATOM     12  N   LIG    1        2.362  -1.835   0.193  0.00  0.00    -0.290 NA
ATOM     13  C   LIG    1        1.872  -0.604   0.150  0.00  0.00    +0.170 A 
ATOM     14  C   LIG    1        0.573  -0.071   0.064  0.00  0.00    +0.180 A 
ATOM     15  C   LIG    1        0.411   1.279   0.039  0.00  0.00    +0.020 A 
ENDBRANCH   4   7
BRANCH   1  18
ATOM     16  C   LIG    1       -0.773   8.127  -1.286  0.00  0.00    +0.290 C 
ATOM     17  N   LIG    1        0.285   8.027  -2.294  0.00  0.00    -0.610 N 
ATOM     18  C   LIG    1        1.251   7.096  -2.167  0.00  0.00    +0.520 C 
ATOM     19  O   LIG    1        2.164   7.056  -2.964  0.00  0.00    -0.530 OA
BRANCH  17  20
ATOM     20  C   LIG    1        0.294   8.940  -3.439  0.00  0.00    +0.340 C 
BRANCH  20  21
ATOM     21  C   LIG    1       -0.493   8.333  -4.572  0.00  0.00    -0.120 A 
ATOM     22  C   LIG    1        0.142   7.534  -5.504  0.00  0.00    +0.050 A 
ATOM     23  C   LIG    1       -0.579   6.972  -6.540  0.00  0.00    -0.020 A 
ATOM     24  C   LIG    1       -1.940   7.219  -6.650  0.00  0.00    +0.110 A 
ATOM     25  C   LIG    1       -2.574   8.026  -5.716  0.00  0.00    -0.020 A 
ATOM     26  C   LIG    1       -1.850   8.581  -4.679  0.00  0.00    +0.040 A 
BRANCH  24  27
ATOM     27  O   LIG    1       -2.650   6.673  -7.672  0.00  0.00    -0.500 OA
ATOM     28  H   LIG    1       -2.686   7.224  -8.465  0.00  0.00    +0.390 HD
ENDBRANCH  24  27
ENDBRANCH  20  21
ENDBRANCH  17  20
ENDBRANCH   1  18
TORSDOF 5
