REMARK  Name = ZINCvU0000000BZV.0
REMARK                            x       y       z     vdW  Elec       q    Type
REMARK                         _______ _______ _______ _____ _____    ______ ____
ROOT
ATOM      1  C   LIG    1       -2.546  -0.126  -0.072  0.00  0.00    +0.360 C 
ATOM      2  C   LIG    1       -3.494  -1.279  -0.028  0.00  0.00    -0.230 A 
ATOM      3  C   LIG    1       -2.753  -2.423   0.075  0.00  0.00    +0.090 A 
ATOM      4  C   LIG    1       -1.329  -2.050   0.099  0.00  0.00    +0.580 C 
ATOM      5  O   LIG    1       -0.406  -2.835   0.187  0.00  0.00    -0.460 OA
ATOM      6  O   LIG    1       -3.312  -3.647   0.136  0.00  0.00    -0.180 OA
ATOM      7  C   LIG    1       -4.645  -3.766   0.333  0.00  0.00    +0.150 A 
ATOM      8  C   LIG    1       -5.175  -5.019   0.639  0.00  0.00    +0.040 A 
ATOM      9  C   LIG    1       -6.529  -5.170   0.837  0.00  0.00    +0.120 A 
ATOM     10  C   LIG    1       -7.388  -4.083   0.736  0.00  0.00    -0.060 A 
ATOM     11  C   LIG    1       -6.888  -2.834   0.438  0.00  0.00    +0.140 A 
ATOM     12 CL   LIG    1       -9.092  -4.299   0.986  0.00  0.00    -0.040 Cl
ATOM     13  C   LIG    1       -5.518  -2.669   0.239  0.00  0.00    -0.200 A 
ATOM     14  C   LIG    1       -4.959  -1.329  -0.070  0.00  0.00    +0.460 A 
ATOM     15  O   LIG    1       -5.652  -0.361  -0.333  0.00  0.00    -0.420 OA
ATOM     16  N   LIG    1       -1.198  -0.710   0.010  0.00  0.00    -0.520 N 
ENDROOT
BRANCH  16  17
ATOM     17  C   LIG    1        0.002  -0.004   0.002  0.00  0.00    +0.380 A 
ATOM     18  C   LIG    1        1.208  -0.696  -0.013  0.00  0.00    -0.040 A 
ATOM     19  C   LIG    1        2.393   0.019  -0.020  0.00  0.00    +0.100 A 
ATOM     20  C   LIG    1        2.331   1.405  -0.013  0.00  0.00    -0.050 A 
ATOM     21  C   LIG    1        1.098   2.027   0.003  0.00  0.00    +0.160 A 
ATOM     22  C   LIG    1        1.023   3.532   0.011  0.00  0.00    +0.140 C 
ATOM     23  N   LIG    1       -0.016   1.320   0.009  0.00  0.00    -0.500 NA
ENDBRANCH  16  17
BRANCH   1  27
ATOM     24  C   LIG    1       -3.228   2.480   3.247  0.00  0.00    -0.070 A 
ATOM     25  C   LIG    1       -3.706   2.818   1.986  0.00  0.00    +0.030 A 
ATOM     26  C   LIG    1       -3.484   1.974   0.916  0.00  0.00    +0.070 A 
ATOM     27  C   LIG    1       -2.787   0.793   1.098  0.00  0.00    -0.090 A 
ATOM     28  C   LIG    1       -2.314   0.451   2.352  0.00  0.00    +0.030 A 
ATOM     29  C   LIG    1       -2.527   1.293   3.425  0.00  0.00    -0.010 A 
BRANCH  24  31
ATOM     30  C   LIG    1       -2.707   2.683   5.989  0.00  0.00    +0.120 C 
ATOM     31  S   LIG    1       -3.508   3.555   4.615  0.00  0.00    -0.110 S 
ENDBRANCH  24  31
ENDBRANCH   1  27
TORSDOF 3
