REMARK  Name = ZINCqH0000006OmI.0
REMARK                            x       y       z     vdW  Elec       q    Type
REMARK                         _______ _______ _______ _____ _____    ______ ____
ROOT
ATOM      1  N   LIG    1        1.231  -2.085  -0.021  0.00  0.00    -0.660 N 
ATOM      2  H   LIG    1        0.402  -2.580   0.066  0.00  0.00    +0.420 HD
ATOM      3  C   LIG    1        2.401  -2.743  -0.137  0.00  0.00    +0.520 C 
ATOM      4  O   LIG    1        3.446  -2.127  -0.144  0.00  0.00    -0.510 OA
ENDROOT
BRANCH   1   8
ATOM      5  C   LIG    1        1.171   2.089  -0.028  0.00  0.00    +0.100 A 
ATOM      6  C   LIG    1        0.149   1.382   0.585  0.00  0.00    +0.010 A 
ATOM      7  C   LIG    1        0.169  -0.001   0.587  0.00  0.00    -0.070 A 
ATOM      8  C   LIG    1        1.212  -0.683  -0.024  0.00  0.00    +0.160 A 
ATOM      9  C   LIG    1        2.237   0.023  -0.639  0.00  0.00    -0.010 A 
ATOM     10 CL   LIG    1       -1.113  -0.885   1.355  0.00  0.00    -0.060 Cl
ATOM     11  C   LIG    1        2.218   1.408  -0.642  0.00  0.00    +0.130 A 
BRANCH   5  13
ATOM     12  C   LIG    1        0.045   4.083   0.617  0.00  0.00    +0.240 C 
ATOM     13  O   LIG    1        1.150   3.449  -0.031  0.00  0.00    -0.300 OA
ENDBRANCH   5  13
BRANCH  11  14
ATOM     14  O   LIG    1        3.221   2.101  -1.243  0.00  0.00    -0.300 OA
ATOM     15  C   LIG    1        4.264   1.337  -1.853  0.00  0.00    +0.240 C 
ENDBRANCH  11  14
ENDBRANCH   1   8
BRANCH   3  16
ATOM     16  C   LIG    1        2.412  -4.245  -0.258  0.00  0.00    +0.070 C 
BRANCH  16  17
ATOM     17  C   LIG    1        3.856  -4.737  -0.376  0.00  0.00    +0.290 C 
BRANCH  17  18
ATOM     18  N   LIG    1        3.866  -6.197  -0.494  0.00  0.00    -0.730 N 
ATOM     19  H   LIG    1        3.031  -6.690  -0.488  0.00  0.00    +0.400 HD
ATOM     20  C   LIG    1        5.036  -6.856  -0.611  0.00  0.00    +0.560 C 
ATOM     21  O   LIG    1        6.083  -6.238  -0.618  0.00  0.00    -0.520 OA
BRANCH  20  22
ATOM     22  C   LIG    1        5.046  -8.329  -0.729  0.00  0.00    -0.130 A 
ATOM     23  C   LIG    1        3.846  -9.042  -0.716  0.00  0.00    +0.070 A 
ATOM     24  C   LIG    1        3.862 -10.416  -0.831  0.00  0.00    +0.020 A 
ATOM     25  C   LIG    1        5.066 -11.090  -0.951  0.00  0.00    -0.010 A 
ATOM     26  C   LIG    1        6.260 -10.389  -0.960  0.00  0.00    +0.020 A 
ATOM     27 CL   LIG    1        5.078 -12.820  -1.089  0.00  0.00    -0.060 Cl
ATOM     28  C   LIG    1        6.257  -9.014  -0.850  0.00  0.00    +0.100 A 
ENDBRANCH  20  22
ENDBRANCH  17  18
ENDBRANCH  16  17
ENDBRANCH   3  16
TORSDOF 7
