REMARK  Name = ZINCrD00000F5LBV.0
REMARK                            x       y       z     vdW  Elec       q    Type
REMARK                         _______ _______ _______ _____ _____    ______ ____
ROOT
ATOM      1  N   LIG    1        2.858   4.194  -1.383  0.00  0.00    -0.470 N 
ATOM      2  C   LIG    1        3.653   3.325  -2.062  0.00  0.00    +0.250 A 
ATOM      3  C   LIG    1        3.960   3.647  -3.313  0.00  0.00    -0.080 A 
ATOM      4  S   LIG    1        3.162   5.201  -3.610  0.00  0.00    +0.190 S 
ATOM      5  C   LIG    1        2.463   5.310  -2.040  0.00  0.00    +0.380 A 
ATOM      6  N   LIG    1        1.692   6.291  -1.568  0.00  0.00    -0.620 NA
ENDROOT
BRANCH   6   7
ATOM      7  C   LIG    1        1.391   7.328  -2.339  0.00  0.00    +0.490 C 
ATOM      8  O   LIG    1        1.818   7.383  -3.477  0.00  0.00    -0.520 OA
BRANCH   7   9
ATOM      9  C   LIG    1        0.520   8.436  -1.806  0.00  0.00    +0.300 C 
BRANCH   9  10
ATOM     10  O   LIG    1        0.339   9.446  -2.834  0.00  0.00    -0.330 OA
BRANCH  10  11
ATOM     11  C   LIG    1       -0.421  10.512  -2.516  0.00  0.00    +0.510 C 
ATOM     12  O   LIG    1       -0.918  10.596  -1.411  0.00  0.00    -0.500 OA
BRANCH  11  13
ATOM     13  C   LIG    1       -0.649  11.578  -3.511  0.00  0.00    -0.140 A 
ATOM     14  C   LIG    1       -0.074  11.487  -4.781  0.00  0.00    +0.120 A 
ATOM     15  C   LIG    1       -0.295  12.483  -5.707  0.00  0.00    -0.020 A 
ATOM     16  C   LIG    1       -1.077  13.580  -5.378  0.00  0.00    +0.140 A 
ATOM     17  C   LIG    1       -1.645  13.678  -4.117  0.00  0.00    -0.020 A 
ATOM     18  F   LIG    1       -1.285  14.556  -6.288  0.00  0.00    -0.130 F 
ATOM     19  C   LIG    1       -1.436  12.685  -3.184  0.00  0.00    +0.130 A 
ENDBRANCH  11  13
ENDBRANCH  10  11
ENDBRANCH   9  10
ENDBRANCH   7   9
ENDBRANCH   6   7
BRANCH   1  20
ATOM     20  C   LIG    1        2.451   3.937   0.000  0.00  0.00    +0.360 C 
BRANCH  20  25
ATOM     21  C   LIG    1       -2.514   0.980   0.019  0.00  0.00    +0.090 C 
ATOM     22  C   LIG    1       -1.219   1.751   0.017  0.00  0.00    -0.070 A 
ATOM     23  C   LIG    1       -0.013   1.076   0.008  0.00  0.00    -0.010 A 
ATOM     24  C   LIG    1        1.175   1.783   0.000  0.00  0.00    +0.020 A 
ATOM     25  C   LIG    1        1.156   3.165   0.008  0.00  0.00    -0.130 A 
ATOM     26  C   LIG    1       -0.050   3.840   0.022  0.00  0.00    +0.050 A 
ATOM     27  C   LIG    1       -1.238   3.133   0.029  0.00  0.00    +0.000 A 
ENDBRANCH  20  25
ENDBRANCH   1  20
TORSDOF 7
