REMARK  Name = ZINCvU00000008Uz.0
REMARK                            x       y       z     vdW  Elec       q    Type
REMARK                         _______ _______ _______ _____ _____    ______ ____
ROOT
ATOM      1  C   LIG    1       -6.082   8.659   0.194  0.00  0.00    +0.260 A 
ATOM      2  N   LIG    1       -7.330   8.515   0.515  0.00  0.00    -0.490 NA
ATOM      3  C   LIG    1       -8.086   9.600   0.513  0.00  0.00    +0.140 A 
ATOM      4  C   LIG    1       -7.434  10.754   0.166  0.00  0.00    -0.220 A 
ATOM      5  S   LIG    1       -5.750  10.351  -0.160  0.00  0.00    +0.230 S 
ENDROOT
BRANCH   4   6
ATOM      6  C   LIG    1       -8.035  12.099   0.085  0.00  0.00    -0.010 A 
ATOM      7  C   LIG    1       -9.230  12.293  -0.613  0.00  0.00    +0.030 A 
ATOM      8  C   LIG    1       -9.789  13.552  -0.679  0.00  0.00    +0.010 A 
ATOM      9  C   LIG    1       -9.164  14.624  -0.065  0.00  0.00    +0.010 A 
ATOM     10  C   LIG    1       -7.978  14.440   0.623  0.00  0.00    +0.010 A 
ATOM     11  C   LIG    1       -7.410  13.186   0.702  0.00  0.00    +0.010 A 
ENDBRANCH   4   6
BRANCH   3  12
ATOM     12  C   LIG    1       -9.525   9.571   0.860  0.00  0.00    -0.020 A 
ATOM     13  C   LIG    1      -10.067  10.556   1.686  0.00  0.00    +0.030 A 
ATOM     14  C   LIG    1      -11.410  10.526   2.001  0.00  0.00    +0.000 A 
ATOM     15  C   LIG    1      -12.216   9.516   1.509  0.00  0.00    +0.010 A 
ATOM     16  C   LIG    1      -11.684   8.532   0.694  0.00  0.00    +0.010 A 
ATOM     17  C   LIG    1      -10.344   8.554   0.367  0.00  0.00    +0.030 A 
ENDBRANCH   3  12
BRANCH   1  20
ATOM     18  O   LIG    1       -3.543   9.041  -0.474  0.00  0.00    -0.490 OA
ATOM     19  C   LIG    1       -3.873   7.902  -0.205  0.00  0.00    +0.570 C 
ATOM     20  N   LIG    1       -5.148   7.635   0.142  0.00  0.00    -0.620 N 
ATOM     21  H   LIG    1       -5.412   6.726   0.357  0.00  0.00    +0.420 HD
BRANCH  19  22
ATOM     22  C   LIG    1       -2.880   6.812  -0.260  0.00  0.00    -0.210 A 
ATOM     23  C   LIG    1       -1.551   7.078  -0.620  0.00  0.00    +0.200 A 
ATOM     24  C   LIG    1       -0.657   6.027  -0.651  0.00  0.00    -0.030 A 
ATOM     25  C   LIG    1       -1.101   4.747  -0.337  0.00  0.00    +0.390 A 
ATOM     26  N   LIG    1       -2.364   4.527  -0.001  0.00  0.00    -0.500 NA
ATOM     27  C   LIG    1       -3.248   5.501   0.046  0.00  0.00    +0.350 A 
BRANCH  25  28
ATOM     28  N   LIG    1       -0.204   3.679  -0.371  0.00  0.00    -0.420 N 
ATOM     29  C   LIG    1       -0.504   2.354  -0.183  0.00  0.00    +0.160 A 
ATOM     30  C   LIG    1        0.650   1.672  -0.297  0.00  0.00    +0.160 A 
ATOM     31  N   LIG    1        1.632   2.550  -0.556  0.00  0.00    -0.470 NA
ATOM     32  C   LIG    1        1.134   3.755  -0.603  0.00  0.00    +0.420 A 
ENDBRANCH  25  28
ENDBRANCH  19  22
ENDBRANCH   1  20
TORSDOF 5
