REMARK  Name = ZINCpk00000xKGaG.0
REMARK                            x       y       z     vdW  Elec       q    Type
REMARK                         _______ _______ _______ _____ _____    ______ ____
ROOT
ATOM      1  N   LIG    1       -5.944  -0.014   1.853  0.00  0.00    -0.550 N 
ATOM      2  C   LIG    1       -6.715  -0.772   0.861  0.00  0.00    +0.310 C 
ATOM      3  C   LIG    1       -8.195  -0.597   1.268  0.00  0.00    +0.000 C 
ATOM      4  C   LIG    1       -8.074  -0.315   2.784  0.00  0.00    +0.100 C 
ATOM      5  C   LIG    1       -6.679   0.246   2.948  0.00  0.00    +0.520 C 
ATOM      6  O   LIG    1       -6.282   0.846   3.924  0.00  0.00    -0.510 OA
ENDROOT
BRANCH   1  10
ATOM      7  C   LIG    1       -1.976   1.165   1.347  0.00  0.00    +0.110 A 
ATOM      8  C   LIG    1       -2.688   1.585   2.461  0.00  0.00    -0.050 A 
ATOM      9  C   LIG    1       -4.003   1.199   2.627  0.00  0.00    +0.050 A 
ATOM     10  C   LIG    1       -4.611   0.382   1.683  0.00  0.00    +0.120 A 
ATOM     11  C   LIG    1       -3.896  -0.043   0.571  0.00  0.00    +0.020 A 
ATOM     12  C   LIG    1       -2.582   0.348   0.404  0.00  0.00    +0.020 A 
BRANCH   7  14
ATOM     13  C   LIG    1       -0.122   2.391   2.192  0.00  0.00    +0.250 C 
ATOM     14  O   LIG    1       -0.683   1.550   1.182  0.00  0.00    -0.320 OA
ENDBRANCH   7  14
ENDBRANCH   1  10
BRANCH   3  15
ATOM     15  C   LIG    1       -8.977  -1.860   1.015  0.00  0.00    +0.530 C 
ATOM     16  N   LIG    1      -10.293  -1.907   1.306  0.00  0.00    -0.720 N 
ATOM     17  H   LIG    1      -10.735  -1.129   1.679  0.00  0.00    +0.400 HD
ATOM     18  O   LIG    1       -8.424  -2.833   0.549  0.00  0.00    -0.520 OA
BRANCH  16  19
ATOM     19  C   LIG    1      -11.053  -3.135   1.060  0.00  0.00    +0.350 C 
BRANCH  19  20
ATOM     20  C   LIG    1      -12.489  -2.927   1.468  0.00  0.00    +0.160 A 
ATOM     21  C   LIG    1      -13.437  -2.548   0.532  0.00  0.00    -0.070 A 
ATOM     22  C   LIG    1      -14.745  -2.368   0.954  0.00  0.00    +0.330 A 
ATOM     23  N   LIG    1      -15.043  -2.563   2.228  0.00  0.00    -0.510 NA
ATOM     24  C   LIG    1      -14.114  -2.924   3.091  0.00  0.00    +0.320 A 
ATOM     25  C   LIG    1      -14.495  -3.135   4.534  0.00  0.00    +0.180 C 
ATOM     26  N   LIG    1      -12.862  -3.109   2.725  0.00  0.00    -0.510 NA
ENDBRANCH  19  20
ENDBRANCH  16  19
ENDBRANCH   3  15
TORSDOF 5
