REMARK  Name = ZINCrH00000No4Wu.0
REMARK                            x       y       z     vdW  Elec       q    Type
REMARK                         _______ _______ _______ _____ _____    ______ ____
ROOT
ATOM      1  N   LIG    1       -4.796   2.738   2.476  0.00  0.00    -0.690 NA
ATOM      2  C   LIG    1       -5.929   3.223   2.996  0.00  0.00    +0.480 A 
ATOM      3  C   LIG    1       -5.978   3.601   4.346  0.00  0.00    -0.070 A 
ATOM      4  C   LIG    1       -7.143   4.094   4.861  0.00  0.00    +0.130 A 
ATOM      5  C   LIG    1       -8.266   4.212   4.033  0.00  0.00    -0.070 A 
ATOM      6  C   LIG    1       -8.195   3.839   2.733  0.00  0.00    +0.310 A 
ATOM      7  N   LIG    1       -7.040   3.354   2.213  0.00  0.00    -0.450 N 
ENDROOT
BRANCH   1   8
ATOM      8  C   LIG    1       -3.745   2.505   3.266  0.00  0.00    +0.580 C 
ATOM      9  O   LIG    1       -3.851   1.740   4.212  0.00  0.00    -0.520 OA
BRANCH   8  14
ATOM     10  C   LIG    1       -0.329   3.834   3.115  0.00  0.00    -0.260 A 
ATOM     11  C   LIG    1       -0.928   4.454   2.031  0.00  0.00    +0.090 A 
ATOM     12  N   LIG    1       -2.208   4.053   1.971  0.00  0.00    -0.510 N 
ATOM     13  H   LIG    1       -2.855   4.340   1.307  0.00  0.00    +0.420 HD
ATOM     14  C   LIG    1       -2.458   3.169   2.996  0.00  0.00    -0.050 A 
ATOM     15  C   LIG    1       -0.260   5.418   1.086  0.00  0.00    +0.130 C 
ATOM     16  C   LIG    1       -1.317   3.017   3.721  0.00  0.00    -0.040 A 
ATOM     17  C   LIG    1       -1.137   2.146   4.937  0.00  0.00    +0.130 C 
BRANCH  10  19
ATOM     18  C   LIG    1        2.145   3.144   2.937  0.00  0.00    +0.060 C 
ATOM     19  C   LIG    1        1.061   3.991   3.552  0.00  0.00    +0.440 C 
ATOM     20  O   LIG    1        1.339   4.804   4.410  0.00  0.00    -0.450 OA
ENDBRANCH  10  19
ENDBRANCH   8  14
ENDBRANCH   1   8
BRANCH   7  21
ATOM     21  C   LIG    1       -6.984   2.963   0.803  0.00  0.00    +0.360 C 
BRANCH  21  22
ATOM     22  C   LIG    1       -7.368   1.512   0.668  0.00  0.00    -0.130 A 
ATOM     23  C   LIG    1       -6.396   0.531   0.733  0.00  0.00    +0.050 A 
ATOM     24  C   LIG    1       -6.748  -0.800   0.614  0.00  0.00    -0.010 A 
ATOM     25  C   LIG    1       -8.071  -1.150   0.420  0.00  0.00    -0.070 A 
ATOM     26  C   LIG    1       -9.043  -0.169   0.351  0.00  0.00    -0.010 A 
ATOM     27  C   LIG    1       -8.455  -2.601   0.286  0.00  0.00    +0.090 C 
ATOM     28  C   LIG    1       -8.691   1.162   0.474  0.00  0.00    +0.020 A 
ENDBRANCH  21  22
ENDBRANCH   7  21
TORSDOF 5
