REMARK  Name = ZINCpk00000KfL3l.0
REMARK                            x       y       z     vdW  Elec       q    Type
REMARK                         _______ _______ _______ _____ _____    ______ ____
ROOT
ATOM      1  N   LIG    1       -0.018   1.465   0.010  0.00  0.00    -0.530 NA
ATOM      2  C   LIG    1        1.344   2.016   0.000  0.00  0.00    +0.160 C 
ATOM      3  C   LIG    1        2.072   1.594   1.280  0.00  0.00    +0.280 C 
ATOM      4  N   LIG    1        1.995   0.130   1.400  0.00  0.00    -0.610 N 
ATOM      5  C   LIG    1        0.675  -0.509   1.282  0.00  0.00    +0.290 C 
ATOM      6  C   LIG    1        3.103  -0.606   1.613  0.00  0.00    +0.540 C 
ATOM      7  O   LIG    1        3.021  -1.813   1.710  0.00  0.00    -0.520 OA
ATOM      8  C   LIG    1        0.002  -0.004   0.002  0.00  0.00    +0.170 C 
ENDROOT
BRANCH   6   9
ATOM      9  C   LIG    1        4.445   0.069   1.730  0.00  0.00    -0.070 C 
ATOM     10  C   LIG    1        5.455  -0.165   0.605  0.00  0.00    +0.060 C 
ATOM     11  C   LIG    1        5.666  -0.821   1.972  0.00  0.00    +0.090 C 
BRANCH  11  12
ATOM     12  C   LIG    1        5.434  -2.307   2.073  0.00  0.00    -0.200 A 
ATOM     13  C   LIG    1        5.729  -3.087   3.139  0.00  0.00    +0.230 A 
ATOM     14  N   LIG    1        5.368  -4.352   2.835  0.00  0.00    -0.380 N 
ATOM     15  N   LIG    1        4.842  -4.349   1.536  0.00  0.00    -0.310 NA
ATOM     16  C   LIG    1        5.506  -5.521   3.707  0.00  0.00    +0.340 C 
ATOM     17  C   LIG    1        4.883  -3.123   1.081  0.00  0.00    +0.280 A 
ENDBRANCH  11  12
ENDBRANCH   6   9
BRANCH   1  18
ATOM     18  C   LIG    1       -0.806   1.987  -1.115  0.00  0.00    +0.270 C 
BRANCH  18  25
ATOM     19  C   LIG    1       -3.246   3.485   0.410  0.00  0.00    +0.160 C 
ATOM     20  C   LIG    1       -2.070   4.130  -0.277  0.00  0.00    +0.040 A 
ATOM     21  N   LIG    1       -1.828   5.405  -0.376  0.00  0.00    -0.370 NA
ATOM     22  O   LIG    1       -0.808   5.618  -0.990  0.00  0.00    +0.100 OA
ATOM     23  C   LIG    1       -0.224   4.478  -1.385  0.00  0.00    -0.030 A 
ATOM     24  C   LIG    1        1.056   4.346  -2.170  0.00  0.00    +0.190 C 
ATOM     25  C   LIG    1       -1.010   3.470  -0.939  0.00  0.00    -0.190 A 
ENDBRANCH  18  25
ENDBRANCH   1  18
TORSDOF 4
