REMARK  Name = ZINCrH00000tj14C.0
REMARK                            x       y       z     vdW  Elec       q    Type
REMARK                         _______ _______ _______ _____ _____    ______ ____
ROOT
ATOM      1  O   LIG    1       -0.784   2.784   3.666  0.00  0.00    -0.580 OA
ATOM      2  C   LIG    1       -0.083   1.794   3.594  0.00  0.00    +0.710 C 
ATOM      3  N   LIG    1        0.599   1.372   4.677  0.00  0.00    -0.610 N 
ATOM      4  N   LIG    1        0.013   1.119   2.432  0.00  0.00    -0.740 N 
ATOM      5  H   LIG    1        0.573   0.329   2.375  0.00  0.00    +0.400 HD
ENDROOT
BRANCH   4   6
ATOM      6  C   LIG    1       -0.728   1.578   1.254  0.00  0.00    +0.310 C 
ATOM      7  C   LIG    1       -0.013   1.086   0.008  0.00  0.00    +0.060 C 
ATOM      8  C   LIG    1       -0.759   1.596  -1.232  0.00  0.00    +0.110 C 
ATOM      9  S   LIG    1       -2.303   0.649  -1.362  0.00  0.00    -0.100 S 
ATOM     10  C   LIG    1       -2.923   0.693   0.289  0.00  0.00    -0.110 A 
ATOM     11  C   LIG    1       -4.248   0.300   0.497  0.00  0.00    +0.110 A 
ATOM     12  C   LIG    1       -4.790   0.303   1.766  0.00  0.00    +0.010 A 
ATOM     13  C   LIG    1       -4.011   0.696   2.838  0.00  0.00    +0.030 A 
ATOM     14  C   LIG    1       -2.705   1.087   2.635  0.00  0.00    +0.050 A 
ATOM     15  F   LIG    1       -5.004  -0.086  -0.553  0.00  0.00    -0.130 F 
ATOM     16  C   LIG    1       -2.147   1.097   1.358  0.00  0.00    -0.080 A 
ENDBRANCH   4   6
BRANCH   3  17
ATOM     17  C   LIG    1        1.445   0.179   4.591  0.00  0.00    +0.280 C 
BRANCH  17  18
ATOM     18  C   LIG    1        2.860   0.585   4.176  0.00  0.00    +0.140 C 
ATOM     19  C   LIG    1        3.727  -0.675   3.966  0.00  0.00    +0.010 C 
ATOM     20  C   LIG    1        5.094  -0.237   4.562  0.00  0.00    +0.000 C 
ATOM     21  C   LIG    1        4.630   0.684   5.719  0.00  0.00    +0.200 C 
ATOM     22  O   LIG    1        3.467   1.361   5.216  0.00  0.00    -0.370 OA
ENDBRANCH  17  18
ENDBRANCH   3  17
BRANCH   3  23
ATOM     23  C   LIG    1        0.495   2.106   5.941  0.00  0.00    +0.310 C 
BRANCH  23  24
ATOM     24  C   LIG    1       -0.662   1.540   6.766  0.00  0.00    +0.140 C 
ATOM     25  C   LIG    1       -0.857   2.384   8.043  0.00  0.00    +0.010 C 
ATOM     26  C   LIG    1       -1.179   1.298   9.108  0.00  0.00    +0.000 C 
ATOM     27  C   LIG    1       -0.303   0.123   8.605  0.00  0.00    +0.190 C 
ATOM     28  O   LIG    1       -0.359   0.200   7.172  0.00  0.00    -0.380 OA
ENDBRANCH  23  24
ENDBRANCH   3  23
TORSDOF 5
