REMARK  Name = ZINCqH0000003svO.0
REMARK                            x       y       z     vdW  Elec       q    Type
REMARK                         _______ _______ _______ _____ _____    ______ ____
ROOT
ATOM      1  N   LIG    1        1.146   3.433  -0.000  0.00  0.00    -0.660 N 
ATOM      2  H   LIG    1        1.969   3.943  -0.066  0.00  0.00    +0.430 HD
ATOM      3  C   LIG    1       -0.036   4.073   0.100  0.00  0.00    +0.510 C 
ATOM      4  O   LIG    1       -1.055   3.440   0.278  0.00  0.00    -0.510 OA
ENDROOT
BRANCH   1  10
ATOM      5  C   LIG    1        2.254   1.362   0.596  0.00  0.00    -0.160 A 
ATOM      6  C   LIG    1        2.282  -0.035   0.578  0.00  0.00    +0.100 A 
ATOM      7  C   LIG    1        1.264  -0.735  -0.032  0.00  0.00    -0.010 A 
ATOM      8  C   LIG    1        0.211  -0.061  -0.629  0.00  0.00    +0.080 A 
ATOM      9  C   LIG    1        0.169   1.319  -0.620  0.00  0.00    +0.000 A 
ATOM     10  C   LIG    1        1.186   2.042  -0.010  0.00  0.00    +0.220 A 
BRANCH   5  11
ATOM     11  C   LIG    1        3.339   2.117   1.247  0.00  0.00    +0.520 C 
ATOM     12  O   LIG    1        3.358   3.331   1.183  0.00  0.00    -0.520 OA
BRANCH  11  13
ATOM     13  O   LIG    1        4.310   1.462   1.914  0.00  0.00    -0.350 OA
BRANCH  13  15
ATOM     14  C   LIG    1        6.352   1.359   3.237  0.00  0.00    +0.070 C 
ATOM     15  C   LIG    1        5.346   2.271   2.531  0.00  0.00    +0.200 C 
ENDBRANCH  13  15
ENDBRANCH  11  13
ENDBRANCH   5  11
ENDBRANCH   1  10
BRANCH   3  16
ATOM     16  C   LIG    1       -0.092   5.575  -0.009  0.00  0.00    +0.310 C 
BRANCH  16  17
ATOM     17  N   LIG    1       -1.479   6.024   0.133  0.00  0.00    -0.740 N 
ATOM     18  H   LIG    1       -2.187   5.375   0.272  0.00  0.00    +0.410 HD
BRANCH  17  19
ATOM     19  C   LIG    1       -1.783   7.386   0.066  0.00  0.00    +0.220 A 
ATOM     20  C   LIG    1       -0.768   8.309  -0.134  0.00  0.00    -0.090 A 
ATOM     21  C   LIG    1       -1.072   9.655  -0.199  0.00  0.00    +0.050 A 
ATOM     22  C   LIG    1       -2.380  10.072  -0.064  0.00  0.00    -0.060 A 
ATOM     23  C   LIG    1       -3.401   9.151   0.140  0.00  0.00    -0.030 A 
ATOM     24  C   LIG    1       -4.802   9.681   0.295  0.00  0.00    +0.070 C 
ATOM     25  C   LIG    1       -5.825   8.567   0.057  0.00  0.00    +0.020 C 
ATOM     26  C   LIG    1       -5.446   7.374   0.943  0.00  0.00    +0.020 C 
ATOM     27  C   LIG    1       -4.164   6.754   0.391  0.00  0.00    +0.070 C 
ATOM     28  C   LIG    1       -3.107   7.808   0.195  0.00  0.00    -0.140 A 
ENDBRANCH  17  19
ENDBRANCH  16  17
ENDBRANCH   3  16
TORSDOF 7
