REMARK  Name = ZINCkj000005h8gT.0
REMARK                            x       y       z     vdW  Elec       q    Type
REMARK                         _______ _______ _______ _____ _____    ______ ____
ROOT
ATOM      1  C   LIG    1       -2.819   1.602  -0.015  0.00  0.00    +0.160 C 
ATOM      2  C   LIG    1       -2.097   1.094   1.236  0.00  0.00    +0.220 C 
ATOM      3  N   LIG    1       -0.703   1.561   1.216  0.00  0.00    -0.470 N 
ATOM      4  C   LIG    1       -0.013   1.086   0.008  0.00  0.00    +0.190 C 
ATOM      5  C   LIG    1       -0.755   1.594  -1.231  0.00  0.00    +0.270 C 
ATOM      6  O   LIG    1       -2.115   1.157  -1.178  0.00  0.00    -0.390 OA
ENDROOT
BRANCH   3   7
ATOM      7  C   LIG    1       -0.028   1.165   2.361  0.00  0.00    +0.280 A 
ATOM      8  N   LIG    1       -0.662   0.473   3.289  0.00  0.00    -0.470 NA
ATOM      9  C   LIG    1       -0.007   0.088   4.391  0.00  0.00    +0.110 A 
ATOM     10  C   LIG    1       -0.653  -0.654   5.394  0.00  0.00    +0.040 A 
ATOM     11  C   LIG    1        0.036  -1.028   6.508  0.00  0.00    +0.060 A 
ATOM     12  C   LIG    1        1.376  -0.685   6.669  0.00  0.00    +0.040 A 
ATOM     13  C   LIG    1        2.034   0.033   5.718  0.00  0.00    +0.070 A 
ATOM     14  C   LIG    1        1.356   0.437   4.555  0.00  0.00    +0.060 A 
ATOM     15  N   LIG    1        1.980   1.144   3.604  0.00  0.00    -0.400 NA
ATOM     16  C   LIG    1        1.325   1.510   2.529  0.00  0.00    +0.260 A 
ENDBRANCH   3   7
BRANCH   1  17
ATOM     17  C   LIG    1       -4.247   1.054  -0.040  0.00  0.00    +0.290 C 
BRANCH  17  19
ATOM     18  C   LIG    1       -6.265   0.918  -1.330  0.00  0.00    +0.320 C 
ATOM     19  N   LIG    1       -4.936   1.538  -1.244  0.00  0.00    -0.380 N 
ATOM     20  C   LIG    1       -5.081   2.998  -1.171  0.00  0.00    +0.320 C 
ATOM     21  H   LIG    1       -4.397   1.294  -2.061  0.00  0.00    +0.430 HD
ENDBRANCH  17  19
ENDBRANCH   1  17
TORSDOF 3
