REMARK  Name = ZINCpe000000YVDX.0
REMARK                            x       y       z     vdW  Elec       q    Type
REMARK                         _______ _______ _______ _____ _____    ______ ____
ROOT
ATOM      1  N   LIG    1       -4.129  -4.524   0.019  0.00  0.00    -0.520 N 
ATOM      2  H   LIG    1       -4.875  -3.905   0.029  0.00  0.00    +0.430 HD
ATOM      3  C   LIG    1       -4.355  -5.853   0.014  0.00  0.00    +0.570 C 
ATOM      4  O   LIG    1       -3.419  -6.629   0.001  0.00  0.00    -0.530 OA
ENDROOT
BRANCH   3   5
ATOM      5  C   LIG    1       -5.739  -6.365   0.025  0.00  0.00    -0.130 A 
ATOM      6  C   LIG    1       -6.815  -5.474   0.046  0.00  0.00    +0.070 A 
ATOM      7  C   LIG    1       -8.108  -5.952   0.051  0.00  0.00    +0.020 A 
ATOM      8  C   LIG    1       -8.342  -7.320   0.045  0.00  0.00    +0.130 A 
ATOM      9  N   LIG    1       -9.648  -7.817   0.054  0.00  0.00    -0.660 N 
ATOM     10  H   LIG    1      -10.396  -7.237  -0.159  0.00  0.00    +0.420 HD
ATOM     11  C   LIG    1       -9.854  -9.115   0.363  0.00  0.00    +0.490 C 
ATOM     12  C   LIG    1       -8.684  -9.993   0.729  0.00  0.00    +0.310 C 
ATOM     13  O   LIG    1       -7.518  -9.554   0.027  0.00  0.00    -0.300 OA
ATOM     14  O   LIG    1      -10.977  -9.573   0.348  0.00  0.00    -0.500 OA
ATOM     15  C   LIG    1       -7.271  -8.217   0.030  0.00  0.00    +0.070 A 
ATOM     16  C   LIG    1       -5.975  -7.744   0.020  0.00  0.00    +0.120 A 
ENDBRANCH   3   5
BRANCH   1  19
ATOM     17  O   LIG    1       -3.522  -1.934   0.027  0.00  0.00    -0.530 OA
ATOM     18  C   LIG    1       -2.588  -2.709   0.013  0.00  0.00    +0.510 C 
ATOM     19  N   LIG    1       -2.815  -4.037   0.008  0.00  0.00    -0.520 N 
ATOM     20  H   LIG    1       -2.068  -4.657  -0.002  0.00  0.00    +0.440 HD
BRANCH  18  21
ATOM     21  C   LIG    1       -1.175  -2.185   0.002  0.00  0.00    +0.320 C 
BRANCH  21  22
ATOM     22  N   LIG    1       -1.197  -0.720   0.010  0.00  0.00    -0.740 N 
ATOM     23  H   LIG    1       -2.044  -0.248   0.021  0.00  0.00    +0.410 HD
BRANCH  22  24
ATOM     24  C   LIG    1        0.002  -0.004   0.002  0.00  0.00    +0.210 A 
ATOM     25  C   LIG    1       -0.017   1.385   0.010  0.00  0.00    -0.070 A 
ATOM     26  C   LIG    1        1.171   2.090   0.002  0.00  0.00    +0.050 A 
ATOM     27  C   LIG    1        2.377   1.415  -0.013  0.00  0.00    -0.060 A 
ATOM     28  C   LIG    1        2.400   0.032  -0.021  0.00  0.00    +0.050 A 
ATOM     29  C   LIG    1        1.216  -0.679  -0.013  0.00  0.00    -0.080 A 
ENDBRANCH  22  24
ENDBRANCH  21  22
ENDBRANCH  18  21
ENDBRANCH   1  19
TORSDOF 5
