REMARK  Name = ZINCqH0000035D9E.0
REMARK                            x       y       z     vdW  Elec       q    Type
REMARK                         _______ _______ _______ _____ _____    ______ ____
ROOT
ATOM      1  C   LIG    1        2.525   1.550  -0.271  0.00  0.00    +0.580 C 
ATOM      2  N   LIG    1        3.768   2.012  -0.030  0.00  0.00    -0.610 N 
ATOM      3  C   LIG    1        4.135   3.426   0.172  0.00  0.00    +0.250 C 
ATOM      4  C   LIG    1        5.447   3.381   0.995  0.00  0.00    +0.040 C 
ATOM      5  C   LIG    1        6.155   2.143   0.384  0.00  0.00    +0.050 C 
ATOM      6  C   LIG    1        4.981   1.189   0.081  0.00  0.00    +0.260 C 
ATOM      7  O   LIG    1        1.594   2.327  -0.359  0.00  0.00    -0.530 OA
ENDROOT
BRANCH   6   8
ATOM      8  C   LIG    1        5.232   0.468  -1.218  0.00  0.00    -0.100 A 
ATOM      9  C   LIG    1        4.877   1.060  -2.415  0.00  0.00    +0.030 A 
ATOM     10  C   LIG    1        5.104   0.401  -3.609  0.00  0.00    +0.020 A 
ATOM     11  C   LIG    1        5.690  -0.856  -3.608  0.00  0.00    +0.060 A 
ATOM     12  O   LIG    1        5.901  -1.496  -4.791  0.00  0.00    -0.310 OA
ATOM     13  C   LIG    1        6.827  -2.588  -4.775  0.00  0.00    +0.220 C 
ATOM     14  C   LIG    1        6.505  -3.474  -3.565  0.00  0.00    +0.220 C 
ATOM     15  O   LIG    1        6.633  -2.680  -2.381  0.00  0.00    -0.310 OA
ATOM     16  C   LIG    1        6.050  -1.450  -2.404  0.00  0.00    +0.060 A 
ATOM     17  C   LIG    1        5.822  -0.782  -1.210  0.00  0.00    +0.030 A 
ENDBRANCH   6   8
BRANCH   1  20
ATOM     18  C   LIG    1        0.825  -1.734  -0.947  0.00  0.00    +0.110 A 
ATOM     19  C   LIG    1        1.036  -0.373  -0.808  0.00  0.00    -0.010 A 
ATOM     20  C   LIG    1        2.293   0.098  -0.427  0.00  0.00    -0.100 A 
ATOM     21  C   LIG    1        3.330  -0.806  -0.193  0.00  0.00    +0.020 A 
ATOM     22  C   LIG    1        3.111  -2.160  -0.339  0.00  0.00    +0.040 A 
ATOM     23  C   LIG    1        1.865  -2.626  -0.717  0.00  0.00    -0.090 A 
ATOM     24  C   LIG    1        1.633  -4.107  -0.873  0.00  0.00    +0.100 C 
BRANCH  18  26
ATOM     25  C   LIG    1       -1.421  -1.225  -1.538  0.00  0.00    +0.240 C 
ATOM     26  O   LIG    1       -0.399  -2.198  -1.313  0.00  0.00    -0.310 OA
ENDBRANCH  18  26
ENDBRANCH   1  20
TORSDOF 3
