REMARK  Name = ZINCnE000001TQoU.0
REMARK                            x       y       z     vdW  Elec       q    Type
REMARK                         _______ _______ _______ _____ _____    ______ ____
ROOT
ATOM      1  C   LIG    1        2.473   5.870  -0.059  0.00  0.00    -0.130 A 
ATOM      2  C   LIG    1        1.158   5.517   0.259  0.00  0.00    +0.080 A 
ATOM      3  C   LIG    1        0.767   4.200   0.200  0.00  0.00    +0.050 A 
ATOM      4  C   LIG    1        1.683   3.215  -0.178  0.00  0.00    +0.040 A 
ATOM      5  C   LIG    1        2.998   3.567  -0.490  0.00  0.00    +0.040 A 
ATOM      6  C   LIG    1        3.389   4.885  -0.437  0.00  0.00    +0.040 A 
ENDROOT
BRANCH   1   8
ATOM      7  O   LIG    1        2.059   8.169  -0.030  0.00  0.00    -0.520 OA
ATOM      8  C   LIG    1        2.893   7.285   0.004  0.00  0.00    +0.580 C 
ATOM      9  N   LIG    1        4.201   7.596   0.098  0.00  0.00    -0.610 N 
ATOM     10  C   LIG    1        5.316   6.630   0.097  0.00  0.00    +0.250 C 
ATOM     11  C   LIG    1        6.473   7.360   0.824  0.00  0.00    +0.030 C 
ATOM     12  C   LIG    1        6.287   8.816   0.322  0.00  0.00    +0.030 C 
ATOM     13  C   LIG    1        4.753   8.953   0.212  0.00  0.00    +0.230 C 
BRANCH  13  14
ATOM     14  C   LIG    1        4.388   9.770  -1.029  0.00  0.00    -0.030 C 
ATOM     15  C   LIG    1        4.616  11.281  -0.861  0.00  0.00    +0.010 C 
ATOM     16  C   LIG    1        3.297  11.484  -1.630  0.00  0.00    -0.030 C 
ATOM     17  C   LIG    1        2.887  10.085  -1.140  0.00  0.00    +0.050 C 
ENDBRANCH  13  14
ENDBRANCH   1   8
BRANCH   4  18
ATOM     18  C   LIG    1        1.262   1.800  -0.241  0.00  0.00    +0.160 A 
ATOM     19  N   LIG    1        0.069   1.353   0.032  0.00  0.00    -0.290 NA
ATOM     20  N   LIG    1        0.082  -0.038  -0.149  0.00  0.00    -0.370 NA
ATOM     21  C   LIG    1        1.331  -0.371  -0.536  0.00  0.00    +0.350 A 
ATOM     22  S   LIG    1        1.894  -1.948  -0.893  0.00  0.00    -0.690 S 
ATOM     23  O   LIG    1        2.053   0.761  -0.591  0.00  0.00    -0.260 OA
ENDBRANCH   4  18
TORSDOF 3
