REMARK  Name = ZINCpk00000xYhNz.0
REMARK                            x       y       z     vdW  Elec       q    Type
REMARK                         _______ _______ _______ _____ _____    ______ ____
ROOT
ATOM      1  C   LIG    1       -0.014   1.212   0.009  0.00  0.00    +0.540 C 
ATOM      2  O   LIG    1        0.002  -0.004   0.002  0.00  0.00    -0.490 OA
ENDROOT
BRANCH   1   6
ATOM      3  C   LIG    1        3.986   3.574   2.013  0.00  0.00    +0.150 C 
ATOM      4  C   LIG    1        3.060   3.034   0.954  0.00  0.00    -0.250 A 
ATOM      5  C   LIG    1        1.940   2.370   1.201  0.00  0.00    -0.050 A 
ATOM      6  C   LIG    1        1.244   1.962   0.001  0.00  0.00    -0.190 A 
ATOM      7  C   LIG    1        1.885   2.357  -1.146  0.00  0.00    +0.050 A 
ATOM      8  C   LIG    1        1.445   2.067   2.592  0.00  0.00    +0.130 C 
ATOM      9  S   LIG    1        3.315   3.205  -0.773  0.00  0.00    +0.310 S 
BRANCH   7  10
ATOM     10  N   LIG    1        1.432   2.101  -2.431  0.00  0.00    -0.630 N 
ATOM     11  H   LIG    1        0.606   1.611  -2.565  0.00  0.00    +0.420 HD
ATOM     12  C   LIG    1        2.139   2.535  -3.493  0.00  0.00    +0.540 C 
ATOM     13  O   LIG    1        3.171   3.148  -3.325  0.00  0.00    -0.500 OA
BRANCH  12  14
ATOM     14  C   LIG    1        1.646   2.257  -4.890  0.00  0.00    -0.070 C 
ATOM     15  C   LIG    1        2.455   1.277  -5.743  0.00  0.00    +0.060 C 
ATOM     16  C   LIG    1        2.493   2.775  -6.054  0.00  0.00    +0.080 C 
ENDBRANCH  12  14
ENDBRANCH   7  10
ENDBRANCH   1   6
BRANCH   1  17
ATOM     17  O   LIG    1       -1.192   1.871   0.018  0.00  0.00    -0.340 OA
BRANCH  17  18
ATOM     18  C   LIG    1       -2.398   1.063   0.019  0.00  0.00    +0.350 C 
BRANCH  18  19
ATOM     19  C   LIG    1       -3.606   1.965   0.030  0.00  0.00    +0.430 A 
ATOM     20  N   LIG    1       -4.132   2.349   1.180  0.00  0.00    -0.620 NA
ATOM     21  C   LIG    1       -5.196   3.149   1.193  0.00  0.00    +0.630 A 
ATOM     22  N   LIG    1       -5.735   3.554   0.049  0.00  0.00    -0.650 NA
ATOM     23  C   LIG    1       -5.206   3.162  -1.106  0.00  0.00    +0.630 A 
ATOM     24  N   LIG    1       -4.139   2.365  -1.111  0.00  0.00    -0.620 NA
BRANCH  23  25
ATOM     25  N   LIG    1       -5.762   3.580  -2.297  0.00  0.00    -0.800 N 
ATOM     26  H   LIG    1       -6.540   4.160  -2.293  0.00  0.00    +0.420 HD
ATOM     27  H   LIG    1       -5.376   3.293  -3.140  0.00  0.00    +0.420 HD
ENDBRANCH  23  25
BRANCH  21  28
ATOM     28  N   LIG    1       -5.740   3.553   2.395  0.00  0.00    -0.800 N 
ATOM     29  H   LIG    1       -5.346   3.258   3.230  0.00  0.00    +0.420 HD
ATOM     30  H   LIG    1       -6.518   4.134   2.404  0.00  0.00    +0.420 HD
ENDBRANCH  21  28
ENDBRANCH  18  19
ENDBRANCH  17  18
ENDBRANCH   1  17
TORSDOF 8
