REMARK  Name = ZINCqH0000005NwD.0
REMARK                            x       y       z     vdW  Elec       q    Type
REMARK                         _______ _______ _______ _____ _____    ______ ____
ROOT
ATOM      1  C   LIG    1       -3.625   1.730   0.034  0.00  0.00    -0.170 A 
ATOM      2  C   LIG    1       -2.381   1.157   0.020  0.00  0.00    +0.040 A 
ATOM      3  S   LIG    1       -2.492  -0.543   0.011  0.00  0.00    +0.330 S 
ATOM      4  C   LIG    1       -4.246  -0.511   0.020  0.00  0.00    -0.080 A 
ATOM      5  C   LIG    1       -4.697   0.748   0.029  0.00  0.00    -0.010 A 
ENDROOT
BRANCH   5   6
ATOM      6  C   LIG    1       -6.136   1.104   0.038  0.00  0.00    -0.030 A 
ATOM      7  C   LIG    1       -6.932   0.772   1.132  0.00  0.00    +0.050 A 
ATOM      8  C   LIG    1       -8.272   1.106   1.135  0.00  0.00    +0.010 A 
ATOM      9  C   LIG    1       -8.825   1.769   0.054  0.00  0.00    +0.030 A 
ATOM     10  C   LIG    1       -8.040   2.102  -1.036  0.00  0.00    +0.030 A 
ATOM     11  C   LIG    1       -6.697   1.779  -1.047  0.00  0.00    -0.020 A 
ATOM     12 CL   LIG    1       -5.712   2.204  -2.412  0.00  0.00    -0.040 Cl
ENDBRANCH   5   6
BRANCH   2  13
ATOM     13  N   LIG    1       -1.191   1.867   0.018  0.00  0.00    -0.630 N 
ATOM     14  H   LIG    1       -1.204   2.836   0.023  0.00  0.00    +0.420 HD
ATOM     15  C   LIG    1       -0.014   1.209   0.009  0.00  0.00    +0.530 C 
ATOM     16  O   LIG    1        0.002  -0.004   0.002  0.00  0.00    -0.480 OA
BRANCH  15  17
ATOM     17  C   LIG    1        1.280   1.980   0.001  0.00  0.00    +0.110 C 
BRANCH  17  18
ATOM     18  S   LIG    1        2.675   0.820  -0.019  0.00  0.00    +0.110 S 
BRANCH  18  19
ATOM     19  C   LIG    1        4.077   1.886  -0.027  0.00  0.00    +0.190 A 
ATOM     20  N   LIG    1        5.332   1.500  -0.041  0.00  0.00    -0.280 NA
ATOM     21  N   LIG    1        6.115   2.666  -0.043  0.00  0.00    -0.480 N 
ATOM     22  H   LIG    1        7.083   2.714  -0.052  0.00  0.00    +0.450 HD
ATOM     23  C   LIG    1        5.258   3.700  -0.030  0.00  0.00    +0.510 A 
ATOM     24  N   LIG    1        4.039   3.223  -0.025  0.00  0.00    -0.550 NA
ENDBRANCH  18  19
ENDBRANCH  17  18
ENDBRANCH  15  17
ENDBRANCH   2  13
BRANCH   1  25
ATOM     25  C   LIG    1       -3.851   3.175   0.049  0.00  0.00    +0.530 C 
ATOM     26  O   LIG    1       -3.953   3.786  -0.998  0.00  0.00    -0.470 OA
BRANCH  25  28
ATOM     27  C   LIG    1       -4.171   5.264   1.163  0.00  0.00    +0.250 C 
ATOM     28  O   LIG    1       -3.946   3.831   1.224  0.00  0.00    -0.350 OA
ENDBRANCH  25  28
ENDBRANCH   1  25
TORSDOF 7
