REMARK  Name = ZINCkj000005hwyw.0
REMARK                            x       y       z     vdW  Elec       q    Type
REMARK                         _______ _______ _______ _____ _____    ______ ____
ROOT
ATOM      1  C   LIG    1        3.293  -2.588   3.943  0.00  0.00    -0.010 C 
ATOM      2  C   LIG    1        2.589  -3.101   2.685  0.00  0.00    +0.050 C 
ATOM      3  C   LIG    1        3.554  -3.026   1.498  0.00  0.00    +0.310 C 
ATOM      4  N   LIG    1        4.062  -1.652   1.387  0.00  0.00    -1.000 NA
ATOM      5  C   LIG    1        4.682  -1.031   2.566  0.00  0.00    +0.300 C 
ATOM      6  C   LIG    1        3.699  -1.126   3.742  0.00  0.00    +0.000 C 
ENDROOT
BRANCH   4   7
ATOM      7  S   LIG    1        3.944  -0.821  -0.041  0.00  0.00    +2.700 S 
ATOM      8  O   LIG    1        4.956   0.175  -0.010  0.00  0.00    -0.950 OA
ATOM      9  O   LIG    1        3.847  -1.799  -1.067  0.00  0.00    -0.940 OA
BRANCH   7  10
ATOM     10  C   LIG    1        2.403   0.034  -0.021  0.00  0.00    -0.710 A 
ATOM     11  C   LIG    1        2.379   1.415  -0.013  0.00  0.00    +0.160 A 
ATOM     12  C   LIG    1        1.170   2.086   0.002  0.00  0.00    -0.030 A 
ATOM     13  C   LIG    1       -0.017   1.377   0.010  0.00  0.00    +0.120 A 
ATOM     14  C   LIG    1        0.002  -0.004   0.002  0.00  0.00    -0.090 A 
ATOM     15  C   LIG    1        1.213  -0.680  -0.013  0.00  0.00    +0.220 A 
BRANCH  15  16
ATOM     16  O   LIG    1        1.234  -2.039  -0.021  0.00  0.00    -0.310 OA
ATOM     17  C   LIG    1       -0.029  -2.707  -0.013  0.00  0.00    +0.260 C 
ENDBRANCH  15  16
ENDBRANCH   7  10
ENDBRANCH   4   7
BRANCH   1  18
ATOM     18  C   LIG    1        2.343  -2.693   5.138  0.00  0.00    +0.250 C 
BRANCH  18  20
ATOM     19  C   LIG    1        2.143  -2.414   7.512  0.00  0.00    +0.320 C 
ATOM     20  N   LIG    1        3.056  -2.313   6.365  0.00  0.00    -0.510 N 
ATOM     21  H   LIG    1        3.387  -1.364   6.282  0.00  0.00    +0.430 HD
ATOM     22  H   LIG    1        3.840  -2.933   6.504  0.00  0.00    +0.430 HD
ENDBRANCH  18  20
ENDBRANCH   1  18
TORSDOF 5
