REMARK  Name = ZINCqH0000008w6A.0
REMARK                            x       y       z     vdW  Elec       q    Type
REMARK                         _______ _______ _______ _____ _____    ______ ____
ROOT
ATOM      1  S   LIG    1       -1.742   5.000   0.050  0.00  0.00    +0.080 S 
ENDROOT
BRANCH   1   2
ATOM      2  C   LIG    1       -0.734   3.555   0.015  0.00  0.00    +0.150 A 
ATOM      3  N   LIG    1        0.579   3.522  -0.022  0.00  0.00    -0.290 NA
ATOM      4  N   LIG    1        0.989   2.304  -0.040  0.00  0.00    -0.260 NA
ATOM      5  C   LIG    1       -0.037   1.485  -0.015  0.00  0.00    +0.230 A 
ATOM      6  N   LIG    1       -1.172   2.261   0.014  0.00  0.00    -0.460 N 
ATOM      7  C   LIG    1       -2.562   1.797   0.043  0.00  0.00    +0.350 C 
BRANCH   5   8
ATOM      8  C   LIG    1        0.018   0.008  -0.024  0.00  0.00    -0.030 A 
ATOM      9  C   LIG    1       -1.092  -0.736   0.380  0.00  0.00    +0.060 A 
ATOM     10  C   LIG    1       -1.037  -2.114   0.366  0.00  0.00    -0.010 A 
ATOM     11  C   LIG    1        0.120  -2.760  -0.040  0.00  0.00    +0.120 A 
ATOM     12  C   LIG    1        1.226  -2.026  -0.437  0.00  0.00    +0.000 A 
ATOM     13  F   LIG    1        0.170  -4.110  -0.047  0.00  0.00    -0.130 F 
ATOM     14  C   LIG    1        1.181  -0.648  -0.431  0.00  0.00    +0.110 A 
ENDBRANCH   5   8
ENDBRANCH   1   2
BRANCH   1  16
ATOM     15  C   LIG    1        0.366   6.199   1.306  0.00  0.00    +0.080 C 
ATOM     16  C   LIG    1       -0.461   6.278   0.022  0.00  0.00    +0.020 C 
BRANCH  16  17
ATOM     17  C   LIG    1       -1.107   7.636  -0.077  0.00  0.00    +0.540 C 
ATOM     18  N   LIG    1       -0.425   8.670  -0.607  0.00  0.00    -0.570 N 
ATOM     19  C   LIG    1        0.901   8.451  -1.190  0.00  0.00    +0.300 C 
ATOM     20  O   LIG    1       -2.242   7.797   0.319  0.00  0.00    -0.510 OA
BRANCH  18  21
ATOM     21  C   LIG    1       -0.982   9.954  -0.599  0.00  0.00    +0.140 A 
ATOM     22  C   LIG    1       -1.310  10.577  -1.796  0.00  0.00    +0.010 A 
ATOM     23  C   LIG    1       -1.865  11.842  -1.785  0.00  0.00    +0.020 A 
ATOM     24  C   LIG    1       -2.084  12.492  -0.584  0.00  0.00    +0.010 A 
ATOM     25  C   LIG    1       -1.753  11.876   0.609  0.00  0.00    +0.020 A 
ATOM     26  C   LIG    1       -1.203  10.609   0.605  0.00  0.00    +0.010 A 
ENDBRANCH  18  21
ENDBRANCH  16  17
ENDBRANCH   1  16
TORSDOF 5
