REMARK  Name = ZINCqH0000000scn.0
REMARK                            x       y       z     vdW  Elec       q    Type
REMARK                         _______ _______ _______ _____ _____    ______ ____
ROOT
ATOM      1  C   LIG    1       -2.411   1.210   0.146  0.00  0.00    +0.160 A 
ATOM      2  C   LIG    1       -3.601   1.926   0.147  0.00  0.00    +0.070 A 
ATOM      3  C   LIG    1       -4.817   1.259   0.216  0.00  0.00    +0.150 A 
ATOM      4  C   LIG    1       -4.847  -0.124   0.295  0.00  0.00    +0.040 A 
ATOM      5  C   LIG    1       -3.653  -0.847   0.299  0.00  0.00    -0.090 A 
ATOM      6  C   LIG    1       -2.433  -0.174   0.225  0.00  0.00    +0.040 A 
ENDROOT
BRANCH   1   9
ATOM      7  C   LIG    1        0.191   3.819  -0.625  0.00  0.00    +0.110 C 
ATOM      8  C   LIG    1       -1.091   3.026  -0.642  0.00  0.00    +0.500 C 
ATOM      9  N   LIG    1       -1.188   1.887   0.071  0.00  0.00    -0.680 N 
ATOM     10  H   LIG    1       -0.411   1.536   0.533  0.00  0.00    +0.410 HD
ATOM     11  O   LIG    1       -2.036   3.416  -1.294  0.00  0.00    -0.500 OA
ENDBRANCH   1   9
BRANCH   3  12
ATOM     12  N   LIG    1       -6.013   1.985   0.211  0.00  0.00    -0.680 N 
ATOM     13  H   LIG    1       -6.767   1.682   0.741  0.00  0.00    +0.410 HD
ATOM     14  C   LIG    1       -6.119   3.106  -0.530  0.00  0.00    +0.500 C 
ATOM     15  O   LIG    1       -5.152   3.532  -1.126  0.00  0.00    -0.500 OA
ATOM     16  C   LIG    1       -7.437   3.831  -0.617  0.00  0.00    +0.110 C 
ENDBRANCH   3  12
BRANCH   5  17
ATOM     17  C   LIG    1       -3.681  -2.322   0.383  0.00  0.00    +0.520 C 
ATOM     18  O   LIG    1       -2.641  -2.950   0.387  0.00  0.00    -0.500 OA
BRANCH  17  19
ATOM     19  O   LIG    1       -4.859  -2.971   0.455  0.00  0.00    -0.340 OA
BRANCH  19  20
ATOM     20  C   LIG    1       -4.810  -4.420   0.535  0.00  0.00    +0.290 C 
BRANCH  20  21
ATOM     21  C   LIG    1       -6.213  -4.966   0.608  0.00  0.00    -0.130 A 
ATOM     22  C   LIG    1       -6.819  -5.156   1.838  0.00  0.00    +0.140 A 
ATOM     23  C   LIG    1       -8.110  -5.652   1.903  0.00  0.00    +0.000 A 
ATOM     24  C   LIG    1       -8.788  -5.970   0.742  0.00  0.00    +0.090 A 
ATOM     25  C   LIG    1       -8.181  -5.786  -0.486  0.00  0.00    +0.030 A 
ATOM     26  F   LIG    1       -6.153  -4.851   2.973  0.00  0.00    -0.120 F 
ATOM     27  C   LIG    1       -6.893  -5.284  -0.554  0.00  0.00    +0.010 A 
ATOM     28 CL   LIG    1       -6.131  -5.054  -2.097  0.00  0.00    -0.040 Cl
ENDBRANCH  20  21
ENDBRANCH  19  20
ENDBRANCH  17  19
ENDBRANCH   5  17
TORSDOF 6
