REMARK  Name = ZINCrH00000No4SX.0
REMARK                            x       y       z     vdW  Elec       q    Type
REMARK                         _______ _______ _______ _____ _____    ______ ____
ROOT
ATOM      1  C   LIG    1       -1.384   7.292  -0.158  0.00  0.00    -0.450 C 
ATOM      2  C   LIG    1       -1.256   5.907  -0.057  0.00  0.00    +0.490 C 
ATOM      3  O   LIG    1       -2.459   5.323  -0.064  0.00  0.00    -0.210 OA
ATOM      4  C   LIG    1       -3.456   6.235  -0.158  0.00  0.00    -0.020 C 
ATOM      5  C   LIG    1       -4.786   5.972  -0.187  0.00  0.00    +0.170 C 
ATOM      6  C   LIG    1       -2.827   7.564  -0.228  0.00  0.00    +0.430 C 
ATOM      7  O   LIG    1       -3.379   8.647  -0.324  0.00  0.00    -0.410 OA
ENDROOT
BRANCH   5   8
ATOM      8  C   LIG    1       -5.263   4.586  -0.108  0.00  0.00    -0.150 A 
ATOM      9  C   LIG    1       -4.726   3.606  -0.955  0.00  0.00    +0.160 A 
ATOM     10  C   LIG    1       -5.178   2.303  -0.869  0.00  0.00    -0.010 A 
ATOM     11  C   LIG    1       -6.163   1.966   0.042  0.00  0.00    +0.100 A 
ATOM     12  C   LIG    1       -6.702   2.927   0.879  0.00  0.00    -0.010 A 
ATOM     13  F   LIG    1       -3.768   3.933  -1.849  0.00  0.00    -0.120 F 
ATOM     14  C   LIG    1       -6.261   4.234   0.812  0.00  0.00    +0.150 A 
ATOM     15  F   LIG    1       -6.789   5.171   1.630  0.00  0.00    -0.120 F 
ENDBRANCH   5   8
BRANCH   1  16
ATOM     16  C   LIG    1       -0.301   8.276  -0.188  0.00  0.00    +0.560 C 
ATOM     17  O   LIG    1        0.857   7.908  -0.121  0.00  0.00    -0.550 OA
BRANCH  16  18
ATOM     18  O   LIG    1       -0.586   9.590  -0.289  0.00  0.00    -0.340 OA
BRANCH  18  20
ATOM     19  C   LIG    1        0.021  11.944  -0.432  0.00  0.00    +0.070 C 
ATOM     20  C   LIG    1        0.538  10.509  -0.313  0.00  0.00    +0.200 C 
ENDBRANCH  18  20
ENDBRANCH  16  18
ENDBRANCH   1  16
BRANCH   2  21
ATOM     21  N   LIG    1       -0.069   5.240   0.031  0.00  0.00    -0.590 N 
ATOM     22  H   LIG    1        0.767   5.726  -0.050  0.00  0.00    +0.450 HD
BRANCH  21  23
ATOM     23  C   LIG    1       -0.057   3.858   0.239  0.00  0.00    +0.120 A 
ATOM     24  C   LIG    1        0.980   3.086  -0.270  0.00  0.00    +0.000 A 
ATOM     25  C   LIG    1        0.988   1.721  -0.064  0.00  0.00    +0.040 A 
ATOM     26  C   LIG    1       -0.035   1.121   0.649  0.00  0.00    +0.010 A 
ATOM     27  C   LIG    1       -1.072   1.886   1.151  0.00  0.00    +0.040 A 
ATOM     28  C   LIG    1       -1.083   3.252   0.953  0.00  0.00    +0.000 A 
ENDBRANCH  21  23
ENDBRANCH   2  21
TORSDOF 6
