REMARK  Name = ZINCvU00000006nc.1
REMARK                            x       y       z     vdW  Elec       q    Type
REMARK                         _______ _______ _______ _____ _____    ______ ____
ROOT
ATOM      1  C   LIG    1        2.307  -3.958   1.004  0.00  0.00    -0.660 A 
ATOM      2  C   LIG    1        3.443  -3.894   0.219  0.00  0.00    +0.110 A 
ATOM      3  C   LIG    1        4.678  -3.679   0.802  0.00  0.00    +0.020 A 
ATOM      4  C   LIG    1        4.782  -3.540   2.172  0.00  0.00    +0.060 A 
ATOM      5  C   LIG    1        3.643  -3.610   2.964  0.00  0.00    +0.120 A 
ATOM      6  C   LIG    1        2.404  -3.820   2.375  0.00  0.00    +0.140 A 
ENDROOT
BRANCH   5   7
ATOM      7  N   LIG    1        3.745  -3.469   4.353  0.00  0.00    -0.670 N 
ATOM      8  H   LIG    1        4.399  -2.862   4.732  0.00  0.00    +0.410 HD
ATOM      9  C   LIG    1        2.934  -4.178   5.163  0.00  0.00    +0.530 C 
ATOM     10  O   LIG    1        2.060  -4.873   4.689  0.00  0.00    -0.490 OA
BRANCH   9  11
ATOM     11  C   LIG    1        3.113  -4.106   6.658  0.00  0.00    +0.100 C 
BRANCH  11  12
ATOM     12  S   LIG    1        1.879  -5.163   7.465  0.00  0.00    -0.160 S 
BRANCH  12  13
ATOM     13  C   LIG    1        2.249  -4.948   9.228  0.00  0.00    +0.110 C 
BRANCH  13  14
ATOM     14  C   LIG    1        1.293  -5.776  10.047  0.00  0.00    -0.070 A 
ATOM     15  C   LIG    1        0.097  -5.230  10.474  0.00  0.00    +0.050 A 
ATOM     16  C   LIG    1       -0.783  -5.991  11.221  0.00  0.00    +0.030 A 
ATOM     17  C   LIG    1       -0.461  -7.296  11.550  0.00  0.00    -0.030 A 
ATOM     18  C   LIG    1        0.738  -7.840  11.127  0.00  0.00    +0.030 A 
ATOM     19 CL   LIG    1       -1.562  -8.249  12.495  0.00  0.00    -0.070 Cl
ATOM     20  C   LIG    1        1.614  -7.080  10.375  0.00  0.00    +0.050 A 
ENDBRANCH  13  14
ENDBRANCH  12  13
ENDBRANCH  11  12
ENDBRANCH   9  11
ENDBRANCH   5   7
BRANCH   1  21
ATOM     21  S   LIG    1        0.734  -4.225   0.256  0.00  0.00    +2.690 S 
ATOM     22  O   LIG    1        0.985  -4.859  -0.991  0.00  0.00    -0.950 OA
ATOM     23  O   LIG    1       -0.099  -4.788   1.260  0.00  0.00    -0.940 OA
BRANCH  21  24
ATOM     24  N   LIG    1        0.100  -2.736  -0.097  0.00  0.00    -1.050 N 
ATOM     25  H   LIG    1       -0.743  -2.462   0.297  0.00  0.00    +0.430 HD
BRANCH  24  31
ATOM     26  C   LIG    1        0.751  -0.496  -0.742  0.00  0.00    +0.110 A 
ATOM     27  C   LIG    1        1.432   0.354  -1.597  0.00  0.00    -0.060 A 
ATOM     28  C   LIG    1        2.135  -0.163  -2.671  0.00  0.00    +0.040 A 
ATOM     29  C   LIG    1        2.161  -1.527  -2.893  0.00  0.00    +0.010 A 
ATOM     30  C   LIG    1        1.484  -2.382  -2.043  0.00  0.00    +0.030 A 
ATOM     31  C   LIG    1        0.782  -1.872  -0.961  0.00  0.00    +0.130 A 
BRANCH  26  33
ATOM     32  C   LIG    1        0.078   1.430   0.481  0.00  0.00    +0.250 C 
ATOM     33  O   LIG    1        0.060   0.011   0.314  0.00  0.00    -0.320 OA
ENDBRANCH  26  33
ENDBRANCH  24  31
ENDBRANCH  21  24
ENDBRANCH   1  21
TORSDOF 9
