REMARK  Name = ZINCvU00000006nC.0
REMARK                            x       y       z     vdW  Elec       q    Type
REMARK                         _______ _______ _______ _____ _____    ______ ____
ROOT
ATOM      1  C   LIG    1       -5.148   3.271  -0.001  0.00  0.00    +0.180 A 
ATOM      2  N   LIG    1       -6.307   2.713  -0.272  0.00  0.00    -0.290 NA
ATOM      3  N   LIG    1       -6.511   1.717   0.513  0.00  0.00    -0.260 NA
ATOM      4  C   LIG    1       -5.494   1.574   1.330  0.00  0.00    +0.210 A 
ATOM      5  N   LIG    1       -4.588   2.563   1.024  0.00  0.00    -0.450 N 
ENDROOT
BRANCH   4   6
ATOM      6  C   LIG    1       -5.350   0.545   2.382  0.00  0.00    -0.010 A 
ATOM      7  C   LIG    1       -4.090   0.251   2.906  0.00  0.00    +0.030 A 
ATOM      8  C   LIG    1       -3.962  -0.706   3.891  0.00  0.00    +0.040 A 
ATOM      9  C   LIG    1       -5.079  -1.383   4.352  0.00  0.00    -0.020 A 
ATOM     10  C   LIG    1       -6.331  -1.100   3.831  0.00  0.00    +0.040 A 
ATOM     11 CL   LIG    1       -4.910  -2.591   5.587  0.00  0.00    -0.060 Cl
ATOM     12  C   LIG    1       -6.472  -0.141   2.850  0.00  0.00    +0.090 A 
ENDBRANCH   4   6
BRANCH   1  13
ATOM     13  S   LIG    1       -4.446   4.670  -0.810  0.00  0.00    +0.040 S 
BRANCH  13  14
ATOM     14  C   LIG    1       -5.752   5.026  -2.012  0.00  0.00    +0.160 C 
BRANCH  14  20
ATOM     15  C   LIG    1       -4.644   6.040  -4.021  0.00  0.00    +0.180 A 
ATOM     16  C   LIG    1       -4.278   7.138  -4.792  0.00  0.00    -0.080 A 
ATOM     17  C   LIG    1       -4.623   8.408  -4.390  0.00  0.00    +0.120 A 
ATOM     18  C   LIG    1       -5.344   8.589  -3.203  0.00  0.00    -0.210 A 
ATOM     19  C   LIG    1       -5.712   7.477  -2.436  0.00  0.00    +0.140 A 
ATOM     20  C   LIG    1       -5.359   6.221  -2.842  0.00  0.00    -0.130 A 
BRANCH  18  21
ATOM     21  C   LIG    1       -5.717   9.941  -2.766  0.00  0.00    +0.400 C 
ATOM     22  O   LIG    1       -6.341  10.095  -1.738  0.00  0.00    -0.460 OA
ATOM     23  C   LIG    1       -5.324  11.136  -3.596  0.00  0.00    +0.070 C 
ENDBRANCH  18  21
BRANCH  15  25
ATOM     24  C   LIG    1       -3.568   4.676  -5.640  0.00  0.00    +0.250 C 
ATOM     25  O   LIG    1       -4.302   4.790  -4.419  0.00  0.00    -0.300 OA
ENDBRANCH  15  25
ENDBRANCH  14  20
ENDBRANCH  13  14
ENDBRANCH   1  13
BRANCH   5  26
ATOM     26  C   LIG    1       -3.294   2.808   1.666  0.00  0.00    +0.330 C 
BRANCH  26  27
ATOM     27  C   LIG    1       -2.197   2.059   0.907  0.00  0.00    +0.140 C 
ATOM     28  C   LIG    1       -0.823   2.259   1.606  0.00  0.00    +0.030 C 
ATOM     29  C   LIG    1        0.144   2.020   0.414  0.00  0.00    +0.020 C 
ATOM     30  C   LIG    1       -0.651   2.594  -0.779  0.00  0.00    +0.190 C 
ATOM     31  O   LIG    1       -2.035   2.611  -0.408  0.00  0.00    -0.360 OA
ENDBRANCH  26  27
ENDBRANCH   5  26
TORSDOF 8
