REMARK  Name = ZINCpe000000Z4iq.0
REMARK                            x       y       z     vdW  Elec       q    Type
REMARK                         _______ _______ _______ _____ _____    ______ ____
ROOT
ATOM      1  O   LIG    1        1.658  -6.510   3.361  0.00  0.00    -0.530 OA
ATOM      2  C   LIG    1        2.042  -5.689   4.167  0.00  0.00    +0.530 C 
ATOM      3  N   LIG    1        1.942  -4.374   3.888  0.00  0.00    -0.730 N 
ATOM      4  H   LIG    1        2.249  -3.717   4.532  0.00  0.00    +0.400 HD
ENDROOT
BRANCH   2   5
ATOM      5  C   LIG    1        2.631  -6.138   5.479  0.00  0.00    +0.000 C 
ATOM      6  C   LIG    1        1.709  -5.753   6.660  0.00  0.00    +0.080 C 
ATOM      7  C   LIG    1        1.823  -6.920   7.616  0.00  0.00    +0.520 C 
ATOM      8  N   LIG    1        2.355  -7.982   6.987  0.00  0.00    -0.610 N 
ATOM      9  O   LIG    1        1.485  -6.899   8.780  0.00  0.00    -0.520 OA
ATOM     10  C   LIG    1        2.644  -7.679   5.580  0.00  0.00    +0.300 C 
BRANCH   8  11
ATOM     11  C   LIG    1        2.611  -9.276   7.624  0.00  0.00    +0.350 C 
BRANCH  11  12
ATOM     12  C   LIG    1        4.002  -9.283   8.204  0.00  0.00    -0.110 A 
ATOM     13  C   LIG    1        5.069  -9.716   7.439  0.00  0.00    +0.010 A 
ATOM     14  C   LIG    1        6.345  -9.718   7.970  0.00  0.00    +0.000 A 
ATOM     15  C   LIG    1        6.553  -9.297   9.270  0.00  0.00    +0.010 A 
ATOM     16  C   LIG    1        5.486  -8.870  10.037  0.00  0.00    +0.000 A 
ATOM     17  C   LIG    1        4.210  -8.863   9.505  0.00  0.00    +0.030 A 
ENDBRANCH  11  12
ENDBRANCH   8  11
ENDBRANCH   2   5
BRANCH   3  18
ATOM     18  C   LIG    1        1.370  -3.937   2.612  0.00  0.00    +0.260 C 
BRANCH  18  19
ATOM     19  C   LIG    1        1.373  -2.409   2.548  0.00  0.00    +0.020 C 
BRANCH  19  20
ATOM     20  C   LIG    1        0.776  -1.952   1.215  0.00  0.00    +0.180 C 
BRANCH  20  21
ATOM     21  N   LIG    1        0.779  -0.485   1.154  0.00  0.00    -0.540 NA
ATOM     22  C   LIG    1        0.002  -0.004   0.002  0.00  0.00    +0.150 C 
ATOM     23  C   LIG    1       -0.019   1.527   0.010  0.00  0.00    +0.220 C 
ATOM     24  O   LIG    1        1.325   2.017   0.000  0.00  0.00    -0.390 OA
ATOM     25  C   LIG    1        2.110   1.569   1.109  0.00  0.00    +0.220 C 
ATOM     26  C   LIG    1        2.152   0.038   1.111  0.00  0.00    +0.140 C 
ENDBRANCH  20  21
ENDBRANCH  19  20
ENDBRANCH  18  19
ENDBRANCH   3  18
TORSDOF 7
