REMARK  Name = ZINCpk00000xPKCE.2
REMARK                            x       y       z     vdW  Elec       q    Type
REMARK                         _______ _______ _______ _____ _____    ______ ____
ROOT
ATOM      1  C   LIG    1       -0.729   1.579   1.268  0.00  0.00    +0.120 C 
ATOM      2  C   LIG    1       -0.013   1.086   0.008  0.00  0.00    +0.030 C 
ATOM      3  C   LIG    1       -0.752   1.593  -1.232  0.00  0.00    +0.020 C 
ATOM      4  C   LIG    1       -0.741   3.124  -1.238  0.00  0.00    +0.260 C 
ATOM      5  N   LIG    1       -1.296   3.606   0.034  0.00  0.00    -0.610 N 
ATOM      6  C   LIG    1       -2.317   4.486   0.049  0.00  0.00    +0.520 C 
ATOM      7  O   LIG    1       -2.766   4.877   1.105  0.00  0.00    -0.520 OA
ATOM      8  C   LIG    1       -0.717   3.111   1.290  0.00  0.00    +0.290 C 
ENDROOT
BRANCH   1  13
ATOM      9  C   LIG    1        0.880  -0.946   6.057  0.00  0.00    +0.190 C 
ATOM     10  N   LIG    1        0.188  -0.433   4.867  0.00  0.00    -0.550 NA
ATOM     11  C   LIG    1        0.097   1.033   4.902  0.00  0.00    +0.180 C 
ATOM     12  C   LIG    1       -0.698   1.521   3.688  0.00  0.00    +0.170 C 
ATOM     13  N   LIG    1       -0.036   1.066   2.458  0.00  0.00    -0.530 NA
ATOM     14  C   LIG    1        0.054  -0.400   2.423  0.00  0.00    +0.170 C 
ATOM     15  C   LIG    1        0.849  -0.888   3.636  0.00  0.00    +0.180 C 
ENDBRANCH   1  13
BRANCH   6  16
ATOM     16  C   LIG    1       -2.900   4.985  -1.248  0.00  0.00    +0.210 C 
BRANCH  16  17
ATOM     17  O   LIG    1       -3.962   5.901  -0.972  0.00  0.00    -0.360 OA
BRANCH  17  18
ATOM     18  C   LIG    1       -4.587   6.435  -2.140  0.00  0.00    +0.170 C 
BRANCH  18  19
ATOM     19  C   LIG    1       -5.702   7.398  -1.727  0.00  0.00    +0.080 C 
BRANCH  19  20
ATOM     20  C   LIG    1       -6.362   7.962  -2.959  0.00  0.00    -0.080 A 
ATOM     21  C   LIG    1       -5.886   9.130  -3.524  0.00  0.00    +0.010 A 
ATOM     22  C   LIG    1       -6.488   9.645  -4.657  0.00  0.00    +0.000 A 
ATOM     23  C   LIG    1       -7.571   8.997  -5.220  0.00  0.00    +0.000 A 
ATOM     24  C   LIG    1       -8.050   7.831  -4.652  0.00  0.00    +0.000 A 
ATOM     25  C   LIG    1       -7.445   7.313  -3.521  0.00  0.00    +0.010 A 
ENDBRANCH  19  20
ENDBRANCH  18  19
ENDBRANCH  17  18
ENDBRANCH  16  17
ENDBRANCH   6  16
TORSDOF 6
