REMARK  Name = ZINCpe00000VVGVh.0
REMARK                            x       y       z     vdW  Elec       q    Type
REMARK                         _______ _______ _______ _____ _____    ______ ____
ROOT
ATOM      1  C   LIG    1       -1.250   1.135   2.224  0.00  0.00    +0.140 C 
ATOM      2  C   LIG    1       -2.380   1.829   2.985  0.00  0.00    +0.130 C 
ATOM      3  C   LIG    1       -1.909   3.166   3.498  0.00  0.00    -0.070 A 
ATOM      4  C   LIG    1       -2.646   3.789   4.494  0.00  0.00    +0.000 A 
ATOM      5  C   LIG    1       -2.254   5.018   4.986  0.00  0.00    +0.000 A 
ATOM      6  C   LIG    1       -1.122   5.631   4.483  0.00  0.00    +0.000 A 
ATOM      7  C   LIG    1       -0.387   5.011   3.493  0.00  0.00    +0.010 A 
ATOM      8  C   LIG    1       -0.778   3.775   2.998  0.00  0.00    -0.080 A 
ATOM      9  C   LIG    1        0.059   3.136   1.921  0.00  0.00    +0.230 C 
ATOM     10  N   LIG    1       -0.699   2.081   1.241  0.00  0.00    -0.520 NA
ENDROOT
BRANCH   1  14
ATOM     11  N   LIG    1       -1.714  -1.291   2.096  0.00  0.00    -0.850 N 
ATOM     12  H   LIG    1       -2.061  -2.073   1.637  0.00  0.00    +0.410 HD
ATOM     13  H   LIG    1       -1.312  -1.383   2.974  0.00  0.00    +0.400 HD
ATOM     14  C   LIG    1       -1.790  -0.079   1.512  0.00  0.00    +0.510 C 
ATOM     15  O   LIG    1       -2.292   0.036   0.415  0.00  0.00    -0.510 OA
ENDBRANCH   1  14
BRANCH  10  16
ATOM     16  C   LIG    1        0.137   1.386   0.253  0.00  0.00    +0.450 C 
BRANCH  16  17
ATOM     17  N   LIG    1        0.696   2.361  -0.686  0.00  0.00    -0.590 N 
ATOM     18  C   LIG    1       -0.006   2.878  -1.728  0.00  0.00    +0.540 C 
ATOM     19  C   LIG    1        0.994   3.569  -2.605  0.00  0.00    +0.000 C 
ATOM     20  C   LIG    1        0.582   4.825  -3.330  0.00  0.00    +0.110 C 
ATOM     21  C   LIG    1        1.845   5.498  -3.825  0.00  0.00    -0.040 C 
ATOM     22  C   LIG    1        3.037   5.242  -3.378  0.00  0.00    -0.050 C 
ATOM     23  C   LIG    1        3.340   4.250  -2.275  0.00  0.00    +0.110 C 
ATOM     24  C   LIG    1        2.042   4.003  -1.535  0.00  0.00    +0.000 C 
ATOM     25  O   LIG    1       -1.202   2.796  -1.912  0.00  0.00    -0.440 OA
ATOM     26  C   LIG    1        1.968   2.831  -0.604  0.00  0.00    +0.540 C 
ATOM     27  O   LIG    1        2.863   2.392   0.086  0.00  0.00    -0.470 OA
ENDBRANCH  16  17
ENDBRANCH  10  16
TORSDOF 3
