REMARK  Name = ZINCrm00000IgnI2.1
REMARK                            x       y       z     vdW  Elec       q    Type
REMARK                         _______ _______ _______ _____ _____    ______ ____
ROOT
ATOM      1  N   LIG    1       -2.042   5.210   0.003  0.00  0.00    -0.430 NA
ATOM      2  C   LIG    1       -2.679   5.651  -1.264  0.00  0.00    +0.230 C 
ATOM      3  C   LIG    1       -2.345   7.155  -1.364  0.00  0.00    +0.200 C 
ATOM      4  C   LIG    1       -1.072   7.341  -0.513  0.00  0.00    +0.190 C 
ATOM      5  C   LIG    1       -0.744   5.933   0.030  0.00  0.00    +0.260 C 
ENDROOT
BRANCH   1   8
ATOM      6  C   LIG    1       -0.426   2.022   0.042  0.00  0.00    +0.640 C 
ATOM      7  N   LIG    1       -0.617   3.333   0.041  0.00  0.00    -0.560 NA
ATOM      8  C   LIG    1       -1.846   3.839   0.009  0.00  0.00    +0.450 C 
ATOM      9  C   LIG    1       -2.937   2.967  -0.013  0.00  0.00    -0.030 C 
ATOM     10  C   LIG    1       -2.694   1.607  -0.007  0.00  0.00    +0.460 C 
ATOM     11  N   LIG    1       -1.442   1.173   0.021  0.00  0.00    -0.550 NA
ATOM     12  H   LIG    1       -1.268   0.218   0.025  0.00  0.00    +0.450 HD
BRANCH   6  14
ATOM     13  C   LIG    1        1.097   0.082   0.077  0.00  0.00    +0.350 C 
ATOM     14  N   LIG    1        0.866   1.528   0.070  0.00  0.00    -0.660 NA
ATOM     15  H   LIG    1        1.619   2.140   0.081  0.00  0.00    +0.440 HD
ENDBRANCH   6  14
ENDBRANCH   1   8
BRANCH   4  16
ATOM     16  N   LIG    1        0.033   7.837  -1.345  0.00  0.00    -0.500 N 
ATOM     17  H   LIG    1       -0.219   8.730  -1.741  0.00  0.00    +0.440 HD
ATOM     18  H   LIG    1        0.216   7.179  -2.087  0.00  0.00    +0.430 HD
BRANCH  16  19
ATOM     19  C   LIG    1        1.237   7.990  -0.518  0.00  0.00    +0.160 C 
ATOM     20  C   LIG    1        0.952   9.017   0.561  0.00  0.00    +0.050 C 
ATOM     21  C   LIG    1        2.085   9.054   1.592  0.00  0.00    +0.120 C 
ATOM     22  C   LIG    1        3.164   9.984   1.082  0.00  0.00    -0.150 A 
ATOM     23  C   LIG    1        3.364  11.209   1.698  0.00  0.00    +0.080 A 
ATOM     24  C   LIG    1        4.370  12.029   1.205  0.00  0.00    -0.020 A 
ATOM     25  C   LIG    1        5.123  11.596   0.131  0.00  0.00    +0.270 A 
ATOM     26  N   LIG    1        4.898  10.423  -0.427  0.00  0.00    -0.470 NA
ATOM     27  C   LIG    1        3.947   9.620   0.018  0.00  0.00    +0.120 A 
ATOM     28  C   LIG    1        3.727   8.283  -0.661  0.00  0.00    +0.140 C 
ATOM     29  C   LIG    1        2.401   8.340  -1.424  0.00  0.00    +0.050 C 
ENDBRANCH  16  19
ENDBRANCH   4  16
BRANCH   3  30
ATOM     30  O   LIG    1       -2.090   7.517  -2.723  0.00  0.00    -0.400 OA
ATOM     31  C   LIG    1       -3.233   8.028  -3.412  0.00  0.00    +0.250 C 
ENDBRANCH   3  30
TORSDOF 5
