REMARK  Name = ZINCvU0000000CUC.0
REMARK                            x       y       z     vdW  Elec       q    Type
REMARK                         _______ _______ _______ _____ _____    ______ ____
ROOT
ATOM      1  S   LIG    1        0.895   8.051  -0.161  0.00  0.00    +0.060 S 
ENDROOT
BRANCH   1   2
ATOM      2  C   LIG    1        1.044   6.298  -0.060  0.00  0.00    +0.070 A 
ATOM      3  C   LIG    1        2.040   5.707   0.753  0.00  0.00    -0.060 A 
ATOM      4  C   LIG    1        2.944   6.461   1.508  0.00  0.00    +0.050 A 
ATOM      5  C   LIG    1        3.878   5.820   2.269  0.00  0.00    +0.050 A 
ATOM      6  C   LIG    1        3.943   4.430   2.305  0.00  0.00    +0.050 A 
ATOM      7  C   LIG    1        3.075   3.667   1.580  0.00  0.00    +0.050 A 
ATOM      8  C   LIG    1        2.103   4.291   0.794  0.00  0.00    -0.050 A 
ATOM      9  C   LIG    1        1.171   3.567   0.009  0.00  0.00    +0.150 A 
ATOM     10  N   LIG    1        0.286   4.235  -0.711  0.00  0.00    -0.240 NA
ATOM     11  N   LIG    1        0.226   5.514  -0.744  0.00  0.00    -0.270 NA
BRANCH   9  12
ATOM     12  C   LIG    1        1.184   2.087   0.002  0.00  0.00    -0.050 A 
ATOM     13  C   LIG    1        1.317   1.381   1.198  0.00  0.00    +0.030 A 
ATOM     14  C   LIG    1        1.328   0.002   1.185  0.00  0.00    +0.010 A 
ATOM     15  C   LIG    1        1.207  -0.682  -0.012  0.00  0.00    +0.030 A 
ATOM     16  C   LIG    1        1.075   0.011  -1.202  0.00  0.00    +0.010 A 
ATOM     17  C   LIG    1        1.063   1.391  -1.201  0.00  0.00    +0.050 A 
ENDBRANCH   9  12
ENDBRANCH   1   2
BRANCH   1  18
ATOM     18  C   LIG    1       -0.499   8.182  -1.308  0.00  0.00    +0.000 C 
ATOM     19  C   LIG    1       -1.754   7.599  -0.655  0.00  0.00    +0.090 C 
BRANCH  18  22
ATOM     20  N   LIG    1       -1.426   9.960  -2.756  0.00  0.00    -0.720 N 
ATOM     21  H   LIG    1       -1.770   9.264  -3.338  0.00  0.00    +0.400 HD
ATOM     22  C   LIG    1       -0.736   9.632  -1.646  0.00  0.00    +0.540 C 
ATOM     23  O   LIG    1       -0.306  10.502  -0.919  0.00  0.00    -0.520 OA
BRANCH  20  25
ATOM     24  C   LIG    1       -0.451  11.919  -3.849  0.00  0.00    +0.040 C 
ATOM     25  C   LIG    1       -1.657  11.369  -3.085  0.00  0.00    +0.290 C 
BRANCH  25  26
ATOM     26  C   LIG    1       -2.891  11.490  -3.941  0.00  0.00    -0.110 A 
ATOM     27  C   LIG    1       -3.135  10.562  -4.936  0.00  0.00    +0.040 A 
ATOM     28  C   LIG    1       -4.270  10.668  -5.718  0.00  0.00    -0.010 A 
ATOM     29  C   LIG    1       -5.157  11.711  -5.511  0.00  0.00    +0.100 A 
ATOM     30  C   LIG    1       -4.908  12.643  -4.519  0.00  0.00    -0.010 A 
ATOM     31  F   LIG    1       -6.263  11.819  -6.279  0.00  0.00    -0.140 F 
ATOM     32  C   LIG    1       -3.776  12.532  -3.734  0.00  0.00    +0.060 A 
ENDBRANCH  25  26
ENDBRANCH  20  25
ENDBRANCH  18  22
ENDBRANCH   1  18
TORSDOF 6
