REMARK  Name = ZINCvU0000000847.0
REMARK                            x       y       z     vdW  Elec       q    Type
REMARK                         _______ _______ _______ _____ _____    ______ ____
ROOT
ATOM      1  C   LIG    1        5.651  -1.627  -0.682  0.00  0.00    +0.160 A 
ATOM      2  N   LIG    1        5.585  -1.604   0.629  0.00  0.00    -0.280 NA
ATOM      3  N   LIG    1        4.441  -1.151   1.001  0.00  0.00    -0.240 NA
ATOM      4  C   LIG    1        3.713  -0.860  -0.040  0.00  0.00    +0.190 A 
ATOM      5  N   LIG    1        4.455  -1.157  -1.152  0.00  0.00    -0.400 N 
ENDROOT
BRANCH   5   6
ATOM      6  C   LIG    1        4.070  -1.010  -2.492  0.00  0.00    +0.090 A 
ATOM      7  C   LIG    1        3.030  -1.773  -3.005  0.00  0.00    +0.030 A 
ATOM      8  C   LIG    1        2.650  -1.622  -4.325  0.00  0.00    +0.040 A 
ATOM      9  C   LIG    1        3.310  -0.718  -5.136  0.00  0.00    +0.040 A 
ATOM     10  C   LIG    1        4.349   0.040  -4.629  0.00  0.00    +0.040 A 
ATOM     11  C   LIG    1        4.731  -0.103  -3.310  0.00  0.00    +0.040 A 
ENDBRANCH   5   6
BRANCH   1  12
ATOM     12  S   LIG    1        7.018  -2.168  -1.653  0.00  0.00    +0.060 S 
BRANCH  12  13
ATOM     13  C   LIG    1        8.174  -2.629  -0.338  0.00  0.00    +0.050 C 
BRANCH  13  14
ATOM     14  C   LIG    1        9.497  -3.019  -0.947  0.00  0.00    -0.080 A 
ATOM     15  C   LIG    1        9.565  -4.079  -1.831  0.00  0.00    +0.020 A 
ATOM     16  C   LIG    1       10.777  -4.434  -2.392  0.00  0.00    +0.020 A 
ATOM     17  C   LIG    1       11.923  -3.735  -2.062  0.00  0.00    +0.030 A 
ATOM     18  C   LIG    1       11.856  -2.678  -1.173  0.00  0.00    +0.020 A 
ATOM     19  C   LIG    1       10.643  -2.320  -0.615  0.00  0.00    +0.040 A 
ENDBRANCH  13  14
BRANCH  13  21
ATOM     20  C   LIG    1        6.812  -4.854  -0.271  0.00  0.00    +0.070 C 
ATOM     21  C   LIG    1        7.615  -3.793   0.437  0.00  0.00    +0.380 C 
ATOM     22  O   LIG    1        7.810  -3.876   1.626  0.00  0.00    -0.420 OA
ENDBRANCH  13  21
ENDBRANCH  12  13
ENDBRANCH   1  12
BRANCH   4  23
ATOM     23  C   LIG    1        2.312  -0.304  -0.023  0.00  0.00    +0.350 C 
BRANCH  23  24
ATOM     24  O   LIG    1        2.365   1.123  -0.015  0.00  0.00    -0.300 OA
BRANCH  24  25
ATOM     25  C   LIG    1        1.178   1.786   0.000  0.00  0.00    +0.100 A 
ATOM     26  C   LIG    1       -0.013   1.076   0.008  0.00  0.00    -0.040 A 
ATOM     27  C   LIG    1       -1.219   1.751   0.017  0.00  0.00    +0.050 A 
ATOM     28  C   LIG    1       -1.239   3.133   0.031  0.00  0.00    +0.020 A 
ATOM     29  C   LIG    1       -0.054   3.845   0.023  0.00  0.00    +0.030 A 
ATOM     30  C   LIG    1        1.156   3.175   0.008  0.00  0.00    +0.070 A 
ATOM     31  F   LIG    1        2.314   3.870   0.001  0.00  0.00    -0.130 F 
ENDBRANCH  24  25
ENDBRANCH  23  24
ENDBRANCH   4  23
TORSDOF 8
