REMARK  Name = ZINCrg000000sS02.1
REMARK                            x       y       z     vdW  Elec       q    Type
REMARK                         _______ _______ _______ _____ _____    ______ ____
ROOT
ATOM      1  N   LIG    1       -1.151   6.184  -0.843  0.00  0.00    -0.650 NA
ATOM      2  H   LIG    1       -2.043   6.151  -0.372  0.00  0.00    +0.360 HD
ENDROOT
BRANCH   1   3
ATOM      3  C   LIG    1       -0.865   7.538  -1.334  0.00  0.00    +0.190 C 
ATOM      4  C   LIG    1       -1.363   8.602  -0.329  0.00  0.00    +0.010 C 
ATOM      5  C   LIG    1       -1.957   9.728  -1.196  0.00  0.00    +0.170 C 
ATOM      6  N   LIG    1       -1.772   9.330  -2.609  0.00  0.00    -0.460 N 
ATOM      7  C   LIG    1       -1.695   7.847  -2.606  0.00  0.00    +0.200 C 
BRANCH   6   8
ATOM      8  C   LIG    1       -2.831   9.772  -3.392  0.00  0.00    +0.140 A 
ATOM      9  C   LIG    1       -4.125   9.344  -3.123  0.00  0.00    -0.030 A 
ATOM     10  C   LIG    1       -5.176   9.789  -3.899  0.00  0.00    +0.050 A 
ATOM     11  C   LIG    1       -4.949  10.654  -4.957  0.00  0.00    +0.000 A 
ATOM     12  C   LIG    1       -3.672  11.084  -5.244  0.00  0.00    +0.050 A 
ATOM     13  C   LIG    1       -2.598  10.648  -4.464  0.00  0.00    -0.120 A 
BRANCH  13  14
ATOM     14  C   LIG    1       -1.229  11.105  -4.764  0.00  0.00    +0.560 C 
ATOM     15  O   LIG    1       -0.297  10.724  -4.083  0.00  0.00    -0.500 OA
ATOM     16  N   LIG    1       -1.011  11.947  -5.794  0.00  0.00    -0.860 N 
ATOM     17  H   LIG    1       -0.110  12.248  -5.992  0.00  0.00    +0.400 HD
ATOM     18  H   LIG    1       -1.754  12.251  -6.338  0.00  0.00    +0.400 HD
ENDBRANCH  13  14
ENDBRANCH   6   8
ENDBRANCH   1   3
BRANCH   1  19
ATOM     19  C   LIG    1       -0.075   5.704   0.035  0.00  0.00    +0.230 C 
BRANCH  19  23
ATOM     20  C   LIG    1       -0.017   1.428   0.010  0.00  0.00    -0.020 A 
ATOM     21  C   LIG    1       -1.234   2.113   0.019  0.00  0.00    +0.070 A 
ATOM     22  C   LIG    1       -1.246   3.492   0.033  0.00  0.00    +0.040 A 
ATOM     23  C   LIG    1       -0.055   4.197   0.026  0.00  0.00    -0.050 A 
ATOM     24  C   LIG    1        1.154   3.525   0.010  0.00  0.00    +0.030 A 
ATOM     25  C   LIG    1        1.180   2.146   0.002  0.00  0.00    +0.070 A 
BRANCH  20  27
ATOM     26  N   LIG    1        0.018  -1.140  -0.004  0.00  0.00    -0.410 NA
ATOM     27  C   LIG    1        0.002  -0.004   0.002  0.00  0.00    +0.250 C 
ENDBRANCH  20  27
ENDBRANCH  19  23
BRANCH  19  28
ATOM     28  C   LIG    1       -0.315   6.195   1.439  0.00  0.00    +0.500 C 
ATOM     29  O   LIG    1       -1.287   6.877   1.685  0.00  0.00    -0.530 OA
ATOM     30  N   LIG    1        0.550   5.875   2.422  0.00  0.00    -0.850 N 
ATOM     31  H   LIG    1        0.396   6.191   3.326  0.00  0.00    +0.400 HD
ATOM     32  H   LIG    1        1.327   5.329   2.225  0.00  0.00    +0.400 HD
ENDBRANCH  19  28
ENDBRANCH   1  19
TORSDOF 7
