REMARK  Name = ZINCpe00000MJLKl.0
REMARK                            x       y       z     vdW  Elec       q    Type
REMARK                         _______ _______ _______ _____ _____    ______ ____
ROOT
ATOM      1  C   LIG    1       -3.626   2.098   0.031  0.00  0.00    +0.120 C 
ATOM      2  C   LIG    1       -3.621   2.956  -1.252  0.00  0.00    +0.010 C 
ATOM      3  C   LIG    1       -4.957   2.632  -1.955  0.00  0.00    +0.180 C 
ATOM      4  N   LIG    1       -5.848   2.156  -0.866  0.00  0.00    -0.500 NA
ATOM      5  C   LIG    1       -4.963   1.329  -0.003  0.00  0.00    +0.220 C 
ENDROOT
BRANCH   1   6
ATOM      6  O   LIG    1       -3.563   2.935   1.187  0.00  0.00    -0.540 OA
ATOM      7  H   LIG    1       -2.754   3.460   1.250  0.00  0.00    +0.370 HD
ENDBRANCH   1   6
BRANCH   1   8
ATOM      8  C   LIG    1       -2.449   1.120   0.020  0.00  0.00    +0.280 C 
BRANCH   8  11
ATOM      9  O   LIG    1        0.002  -0.004   0.002  0.00  0.00    -0.500 OA
ATOM     10  C   LIG    1       -0.014   1.212   0.009  0.00  0.00    +0.610 C 
ATOM     11  N   LIG    1       -1.191   1.870   0.018  0.00  0.00    -0.710 N 
ATOM     12  H   LIG    1       -1.204   2.840   0.023  0.00  0.00    +0.410 HD
BRANCH  10  13
ATOM     13  C   LIG    1        1.253   1.966   0.001  0.00  0.00    -0.080 A 
ATOM     14  C   LIG    1        2.518   1.448  -0.009  0.00  0.00    +0.070 A 
ATOM     15  C   LIG    1        3.352   2.590  -0.015  0.00  0.00    +0.050 A 
ATOM     16  N   LIG    1        2.563   3.625  -0.002  0.00  0.00    -0.320 NA
ATOM     17 CL   LIG    1        5.088   2.608  -0.031  0.00  0.00    +0.040 Cl
ATOM     18  O   LIG    1        1.397   3.305   0.007  0.00  0.00    +0.140 OA
ENDBRANCH  10  13
ENDBRANCH   8  11
ENDBRANCH   1   8
BRANCH   4  19
ATOM     19  C   LIG    1       -6.957   1.357  -1.404  0.00  0.00    +0.280 C 
BRANCH  19  20
ATOM     20  C   LIG    1       -7.901   2.254  -2.162  0.00  0.00    +0.080 A 
ATOM     21  N   LIG    1       -8.878   2.951  -1.644  0.00  0.00    -0.250 NA
ATOM     22  N   LIG    1       -9.519   3.651  -2.680  0.00  0.00    -0.390 N 
ATOM     23  C   LIG    1      -10.631   4.584  -2.919  0.00  0.00    +0.310 C 
ATOM     24  C   LIG    1      -10.372   5.189  -4.315  0.00  0.00    +0.060 C 
ATOM     25  C   LIG    1       -9.534   4.080  -4.989  0.00  0.00    +0.120 C 
ATOM     26  C   LIG    1       -8.887   3.348  -3.831  0.00  0.00    +0.060 A 
ATOM     27  C   LIG    1       -7.880   2.489  -3.540  0.00  0.00    -0.110 A 
ENDBRANCH  19  20
ENDBRANCH   4  19
TORSDOF 6
