REMARK  Name = ZINCrD00000l5Ehw.0
REMARK                            x       y       z     vdW  Elec       q    Type
REMARK                         _______ _______ _______ _____ _____    ______ ____
ROOT
ATOM      1  C   LIG    1        3.436  -3.614  -0.044  0.00  0.00    +0.220 C 
ATOM      2  C   LIG    1        4.977  -3.551  -0.089  0.00  0.00    +0.060 C 
ATOM      3  C   LIG    1        5.252  -2.138  -0.668  0.00  0.00    +0.040 C 
ATOM      4  C   LIG    1        4.099  -1.315  -0.041  0.00  0.00    +0.280 C 
ATOM      5  N   LIG    1        2.942  -2.230  -0.037  0.00  0.00    -0.580 N 
ATOM      6  C   LIG    1        1.647  -1.858  -0.024  0.00  0.00    +0.620 C 
ATOM      7  O   LIG    1        0.771  -2.702  -0.022  0.00  0.00    -0.520 OA
ENDROOT
BRANCH   6   8
ATOM      8  C   LIG    1        1.291  -0.428  -0.013  0.00  0.00    +0.020 A 
ATOM      9  C   LIG    1        0.009  -0.001   0.001  0.00  0.00    -0.010 A 
ATOM     10  S   LIG    1       -0.013   1.709   0.011  0.00  0.00    +0.240 S 
ATOM     11  C   LIG    1        1.747   1.750  -0.004  0.00  0.00    +0.110 A 
ATOM     12  N   LIG    1        2.206   0.532  -0.015  0.00  0.00    -0.420 NA
BRANCH  11  13
ATOM     13  C   LIG    1        2.570   2.969  -0.005  0.00  0.00    +0.040 A 
ATOM     14  C   LIG    1        2.103   4.249   0.001  0.00  0.00    +0.000 A 
ATOM     15  C   LIG    1        3.231   5.092   0.001  0.00  0.00    -0.050 A 
ATOM     16  C   LIG    1        4.319   4.296  -0.013  0.00  0.00    +0.200 A 
ATOM     17  O   LIG    1        3.917   3.015  -0.017  0.00  0.00    -0.150 OA
ENDBRANCH  11  13
ENDBRANCH   6   8
BRANCH   1  20
ATOM     18  N   LIG    1        2.990  -5.672   1.254  0.00  0.00    -0.660 N 
ATOM     19  H   LIG    1        3.212  -6.185   0.462  0.00  0.00    +0.420 HD
ATOM     20  C   LIG    1        2.986  -4.325   1.206  0.00  0.00    +0.500 C 
ATOM     21  O   LIG    1        2.620  -3.685   2.169  0.00  0.00    -0.450 OA
BRANCH  18  27
ATOM     22  C   LIG    1        1.519  -5.365   5.802  0.00  0.00    +0.140 C 
ATOM     23  C   LIG    1        1.969  -6.208   4.637  0.00  0.00    +0.160 A 
ATOM     24  C   LIG    1        2.054  -7.579   4.780  0.00  0.00    -0.070 A 
ATOM     25  C   LIG    1        2.469  -8.351   3.703  0.00  0.00    +0.100 A 
ATOM     26  C   LIG    1        2.784  -7.712   2.516  0.00  0.00    -0.080 A 
ATOM     27  C   LIG    1        2.675  -6.328   2.443  0.00  0.00    +0.370 A 
ATOM     28  N   LIG    1        2.281  -5.627   3.495  0.00  0.00    -0.480 NA
ENDBRANCH  18  27
ENDBRANCH   1  20
TORSDOF 4
