REMARK  Name = ZINCpe00000bcSx4.0
REMARK                            x       y       z     vdW  Elec       q    Type
REMARK                         _______ _______ _______ _____ _____    ______ ____
ROOT
ATOM      1  C   LIG    1        2.456   1.929   0.216  0.00  0.00    +0.260 C 
ATOM      2  C   LIG    1        3.695   2.074  -0.671  0.00  0.00    +0.040 C 
ATOM      3  C   LIG    1        4.542   0.804  -0.533  0.00  0.00    +0.050 C 
ATOM      4  C   LIG    1        5.109   0.745   0.886  0.00  0.00    +0.260 C 
ATOM      5  N   LIG    1        4.048   0.935   1.867  0.00  0.00    -0.570 N 
ATOM      6  C   LIG    1        2.865   1.482   1.591  0.00  0.00    +0.500 C 
ATOM      7  O   LIG    1        2.075   1.627   2.500  0.00  0.00    -0.510 OA
ENDROOT
BRANCH   5   8
ATOM      8  C   LIG    1        4.286   0.517   3.177  0.00  0.00    +0.160 A 
ATOM      9  C   LIG    1        4.864   1.394   4.090  0.00  0.00    +0.020 A 
ATOM     10  C   LIG    1        5.096   0.987   5.385  0.00  0.00    +0.080 A 
ATOM     11  C   LIG    1        4.760  -0.311   5.779  0.00  0.00    -0.020 A 
ATOM     12  C   LIG    1        4.184  -1.190   4.858  0.00  0.00    +0.080 A 
ATOM     13  C   LIG    1        3.950  -0.775   3.566  0.00  0.00    +0.030 A 
BRANCH  11  14
ATOM     14  C   LIG    1        5.005  -0.739   7.123  0.00  0.00    +0.250 C 
ATOM     15  N   LIG    1        5.200  -1.079   8.190  0.00  0.00    -0.410 NA
ENDBRANCH  11  14
ENDBRANCH   5   8
BRANCH   1  17
ATOM     16  C   LIG    1        0.449   3.261   0.578  0.00  0.00    +0.500 C 
ATOM     17  N   LIG    1        1.768   3.219   0.308  0.00  0.00    -0.720 N 
ATOM     18  H   LIG    1        2.263   4.043   0.174  0.00  0.00    +0.400 HD
ATOM     19  O   LIG    1       -0.170   2.231   0.745  0.00  0.00    -0.510 OA
BRANCH  16  20
ATOM     20  C   LIG    1       -0.260   4.588   0.666  0.00  0.00    +0.330 C 
BRANCH  20  22
ATOM     21  C   LIG    1       -2.560   4.216  -0.047  0.00  0.00    +0.550 C 
ATOM     22  N   LIG    1       -1.678   4.366   0.961  0.00  0.00    -0.600 N 
ATOM     23  C   LIG    1       -2.136   4.306   2.351  0.00  0.00    +0.290 C 
ATOM     24  O   LIG    1       -2.180   4.266  -1.201  0.00  0.00    -0.540 OA
BRANCH  21  26
ATOM     25  C   LIG    1       -4.855   3.846  -0.745  0.00  0.00    +0.140 C 
ATOM     26  C   LIG    1       -3.984   3.993   0.249  0.00  0.00    -0.090 C 
ENDBRANCH  21  26
ENDBRANCH  20  22
ENDBRANCH  16  20
ENDBRANCH   1  17
TORSDOF 6
