REMARK  Name = ZINCvU0000000ACb.0
REMARK                            x       y       z     vdW  Elec       q    Type
REMARK                         _______ _______ _______ _____ _____    ______ ____
ROOT
ATOM      1  C   LIG    1        4.752   2.484  -0.028  0.00  0.00    +0.350 C 
ENDROOT
BRANCH   1   2
ATOM      2  C   LIG    1        3.245   2.491  -0.015  0.00  0.00    +0.270 A 
ATOM      3  N   LIG    1        2.495   1.428  -0.013  0.00  0.00    -0.480 NA
ATOM      4  C   LIG    1        1.187   1.792   0.000  0.00  0.00    +0.050 A 
ATOM      5  C   LIG    1       -0.013   1.076   0.008  0.00  0.00    +0.070 A 
ATOM      6  C   LIG    1       -1.204   1.744   0.017  0.00  0.00    +0.000 A 
ATOM      7  C   LIG    1       -1.238   3.131   0.030  0.00  0.00    +0.030 A 
ATOM      8  C   LIG    1       -0.067   3.858   0.022  0.00  0.00    +0.010 A 
ATOM      9  C   LIG    1        1.153   3.197   0.008  0.00  0.00    +0.060 A 
ATOM     10  N   LIG    1        2.471   3.609  -0.002  0.00  0.00    -0.470 N 
BRANCH  10  11
ATOM     11  C   LIG    1        2.947   4.995   0.001  0.00  0.00    +0.350 C 
BRANCH  11  12
ATOM     12  C   LIG    1        3.123   5.462   1.423  0.00  0.00    -0.120 A 
ATOM     13  C   LIG    1        2.073   6.071   2.085  0.00  0.00    +0.020 A 
ATOM     14  C   LIG    1        2.232   6.496   3.391  0.00  0.00    +0.010 A 
ATOM     15  C   LIG    1        3.445   6.321   4.031  0.00  0.00    +0.020 A 
ATOM     16  C   LIG    1        4.497   5.717   3.367  0.00  0.00    +0.020 A 
ATOM     17  C   LIG    1        4.335   5.288   2.063  0.00  0.00    +0.020 A 
ENDBRANCH  11  12
ENDBRANCH  10  11
ENDBRANCH   1   2
BRANCH   1  18
ATOM     18  N   LIG    1        5.227   1.510  -1.014  0.00  0.00    -0.710 N 
ATOM     19  H   LIG    1        4.666   0.760  -1.265  0.00  0.00    +0.410 HD
ATOM     20  C   LIG    1        6.445   1.657  -1.572  0.00  0.00    +0.570 C 
ATOM     21  O   LIG    1        7.149   2.596  -1.258  0.00  0.00    -0.530 OA
BRANCH  20  22
ATOM     22  C   LIG    1        6.925   0.674  -2.567  0.00  0.00    -0.140 A 
ATOM     23  C   LIG    1        6.121  -0.409  -2.926  0.00  0.00    +0.070 A 
ATOM     24  C   LIG    1        6.572  -1.320  -3.857  0.00  0.00    +0.020 A 
ATOM     25  C   LIG    1        7.824  -1.167  -4.430  0.00  0.00    -0.010 A 
ATOM     26  C   LIG    1        8.628  -0.097  -4.074  0.00  0.00    +0.020 A 
ATOM     27 CL   LIG    1        8.387  -2.321  -5.598  0.00  0.00    -0.060 Cl
ATOM     28  C   LIG    1        8.186   0.823  -3.147  0.00  0.00    +0.110 A 
ENDBRANCH  20  22
ENDBRANCH   1  18
BRANCH   1  29
ATOM     29  C   LIG    1        5.272   2.101   1.359  0.00  0.00    +0.070 C 
BRANCH  29  30
ATOM     30  C   LIG    1        6.798   2.215   1.381  0.00  0.00    +0.100 C 
BRANCH  30  32
ATOM     31  C   LIG    1        9.211   1.955   2.855  0.00  0.00    +0.140 C 
ATOM     32  S   LIG    1        7.415   1.761   3.025  0.00  0.00    -0.270 S 
ENDBRANCH  30  32
ENDBRANCH  29  30
ENDBRANCH   1  29
TORSDOF 8
