REMARK  Name = ZINCpe000000SAk8.0
REMARK                            x       y       z     vdW  Elec       q    Type
REMARK                         _______ _______ _______ _____ _____    ______ ____
ROOT
ATOM      1  C   LIG    1       -5.907   6.310  -7.283  0.00  0.00    +0.110 C 
ATOM      2  C   LIG    1       -5.284   5.410  -6.247  0.00  0.00    +0.510 C 
ATOM      3  N   LIG    1       -5.977   4.361  -5.762  0.00  0.00    -0.610 N 
ATOM      4  C   LIG    1       -7.292   3.999  -6.302  0.00  0.00    +0.350 C 
ATOM      5  C   LIG    1       -7.369   2.506  -6.497  0.00  0.00    -0.100 A 
ATOM      6  C   LIG    1       -8.440   2.001  -7.220  0.00  0.00    +0.020 A 
ATOM      7  C   LIG    1       -8.571   0.642  -7.423  0.00  0.00    +0.010 A 
ATOM      8  C   LIG    1       -7.627  -0.222  -6.900  0.00  0.00    +0.010 A 
ATOM      9  C   LIG    1       -6.559   0.279  -6.185  0.00  0.00    +0.000 A 
ATOM     10  C   LIG    1       -6.423   1.647  -5.983  0.00  0.00    -0.070 A 
ATOM     11  C   LIG    1       -5.219   2.122  -5.213  0.00  0.00    +0.110 C 
ATOM     12  C   LIG    1       -5.444   3.531  -4.668  0.00  0.00    +0.220 C 
ATOM     13  O   LIG    1       -4.160   5.630  -5.851  0.00  0.00    -0.500 OA
ENDROOT
BRANCH  12  14
ATOM     14  C   LIG    1       -4.138   4.106  -4.183  0.00  0.00    +0.530 C 
ATOM     15  N   LIG    1       -4.076   4.721  -2.986  0.00  0.00    -0.730 N 
ATOM     16  H   LIG    1       -4.872   4.795  -2.437  0.00  0.00    +0.400 HD
ATOM     17  O   LIG    1       -3.143   4.013  -4.870  0.00  0.00    -0.500 OA
BRANCH  15  18
ATOM     18  C   LIG    1       -2.806   5.279  -2.514  0.00  0.00    +0.410 C 
BRANCH  18  19
ATOM     19  C   LIG    1       -3.006   5.908  -1.159  0.00  0.00    +0.170 A 
ATOM     20  N   LIG    1       -3.340   7.147  -0.923  0.00  0.00    -0.260 NA
ATOM     21  N   LIG    1       -3.420   7.339   0.346  0.00  0.00    -0.280 NA
ATOM     22  C   LIG    1       -3.140   6.230   0.977  0.00  0.00    +0.160 A 
ATOM     23  C   LIG    1       -3.009   5.631   2.361  0.00  0.00    +0.170 C 
ATOM     24  C   LIG    1       -2.217   4.322   2.136  0.00  0.00    +0.070 C 
ATOM     25  C   LIG    1       -2.548   4.001   0.662  0.00  0.00    +0.300 C 
ATOM     26  N   LIG    1       -2.872   5.292   0.041  0.00  0.00    -0.490 N 
ENDBRANCH  18  19
ENDBRANCH  15  18
ENDBRANCH  12  14
TORSDOF 3
