REMARK  Name = ZINCqH0000001Nji.0
REMARK                            x       y       z     vdW  Elec       q    Type
REMARK                         _______ _______ _______ _____ _____    ______ ____
ROOT
ATOM      1  C   LIG    1       -1.150  -0.694   0.111  0.00  0.00    +0.520 C 
ATOM      2  N   LIG    1        0.002  -0.004   0.002  0.00  0.00    -0.670 N 
ATOM      3  H   LIG    1        0.845  -0.477  -0.076  0.00  0.00    +0.420 HD
ATOM      4  O   LIG    1       -2.211  -0.106   0.124  0.00  0.00    -0.490 OA
ENDROOT
BRANCH   2   5
ATOM      5  C   LIG    1       -0.018   1.390   0.001  0.00  0.00    +0.170 A 
ATOM      6  C   LIG    1       -1.071   2.069  -0.603  0.00  0.00    +0.020 A 
ATOM      7  C   LIG    1       -1.096   3.446  -0.601  0.00  0.00    +0.070 A 
ATOM      8  C   LIG    1       -0.057   4.161  -0.000  0.00  0.00    -0.150 A 
ATOM      9  C   LIG    1        1.003   3.476   0.601  0.00  0.00    +0.100 A 
ATOM     10  C   LIG    1        1.019   2.099   0.600  0.00  0.00    -0.010 A 
BRANCH   8  11
ATOM     11  C   LIG    1       -0.078   5.637  -0.001  0.00  0.00    +0.570 C 
ATOM     12  N   LIG    1       -1.100   6.296  -0.581  0.00  0.00    -0.700 N 
ATOM     13  H   LIG    1       -1.822   5.801  -0.998  0.00  0.00    +0.400 HD
ATOM     14  O   LIG    1        0.827   6.258   0.523  0.00  0.00    -0.530 OA
BRANCH  12  15
ATOM     15  C   LIG    1       -1.121   7.761  -0.581  0.00  0.00    +0.220 C 
ATOM     16  C   LIG    1       -2.449   8.448  -0.257  0.00  0.00    +0.010 C 
ATOM     17  C   LIG    1       -1.913   8.456  -1.690  0.00  0.00    +0.020 C 
ENDBRANCH  12  15
ENDBRANCH   8  11
ENDBRANCH   2   5
BRANCH   1  18
ATOM     18  C   LIG    1       -1.121  -2.197   0.216  0.00  0.00    +0.240 C 
BRANCH  18  19
ATOM     19  O   LIG    1       -2.458  -2.693   0.321  0.00  0.00    -0.290 OA
BRANCH  19  25
ATOM     20  C   LIG    1       -3.879  -4.589   0.535  0.00  0.00    -0.100 A 
ATOM     21  C   LIG    1       -4.031  -5.959   0.634  0.00  0.00    +0.050 A 
ATOM     22  C   LIG    1       -2.919  -6.781   0.635  0.00  0.00    -0.020 A 
ATOM     23  C   LIG    1       -1.653  -6.235   0.530  0.00  0.00    +0.050 A 
ATOM     24  C   LIG    1       -1.496  -4.867   0.425  0.00  0.00    -0.080 A 
ATOM     25  C   LIG    1       -2.610  -4.040   0.424  0.00  0.00    +0.130 A 
BRANCH  20  27
ATOM     26  C   LIG    1       -5.998  -4.055  -0.635  0.00  0.00    +0.030 C 
ATOM     27  C   LIG    1       -5.091  -3.694   0.542  0.00  0.00    +0.030 C 
ATOM     28  C   LIG    1       -5.856  -3.881   1.853  0.00  0.00    +0.030 C 
ENDBRANCH  20  27
ENDBRANCH  19  25
ENDBRANCH  18  19
ENDBRANCH   1  18
TORSDOF 7
