REMARK  Name = ZINCrH000004qtuI.0
REMARK                            x       y       z     vdW  Elec       q    Type
REMARK                         _______ _______ _______ _____ _____    ______ ____
ROOT
ATOM      1  C   LIG    1       -0.170   0.186   0.422  0.00  0.00    +0.140 A 
ATOM      2  C   LIG    1       -0.324   1.482   0.746  0.00  0.00    -0.100 A 
ATOM      3  S   LIG    1        1.275   2.205   0.903  0.00  0.00    +0.200 S 
ATOM      4  C   LIG    1        2.015   0.656   0.507  0.00  0.00    +0.270 A 
ATOM      5  N   LIG    1        1.085  -0.224   0.302  0.00  0.00    -0.490 NA
ENDROOT
BRANCH   1  10
ATOM      6  C   LIG    1       -4.651  -3.339  -0.392  0.00  0.00    +0.090 C 
ATOM      7  C   LIG    1       -3.478  -2.416  -0.179  0.00  0.00    -0.070 A 
ATOM      8  C   LIG    1       -2.468  -2.357  -1.123  0.00  0.00    -0.010 A 
ATOM      9  C   LIG    1       -1.392  -1.514  -0.933  0.00  0.00    -0.050 A 
ATOM     10  C   LIG    1       -1.324  -0.722   0.212  0.00  0.00    -0.040 A 
ATOM     11  C   LIG    1       -2.341  -0.791   1.162  0.00  0.00    -0.060 A 
ATOM     12  C   LIG    1       -2.271   0.058   2.406  0.00  0.00    +0.090 C 
ATOM     13  C   LIG    1       -0.292  -1.450  -1.962  0.00  0.00    +0.090 C 
ATOM     14  C   LIG    1       -3.415  -1.633   0.959  0.00  0.00    +0.000 A 
ENDBRANCH   1  10
BRANCH   4  15
ATOM     15  N   LIG    1        3.381   0.416   0.428  0.00  0.00    -0.610 N 
ATOM     16  H   LIG    1        3.705  -0.470   0.203  0.00  0.00    +0.430 HD
ATOM     17  C   LIG    1        4.256   1.413   0.663  0.00  0.00    +0.540 C 
ATOM     18  O   LIG    1        3.851   2.521   0.945  0.00  0.00    -0.490 OA
BRANCH  17  19
ATOM     19  C   LIG    1        5.737   1.152   0.577  0.00  0.00    +0.130 C 
BRANCH  19  20
ATOM     20  S   LIG    1        6.641   2.677   0.943  0.00  0.00    +0.130 S 
BRANCH  20  21
ATOM     21  C   LIG    1        8.297   2.099   0.775  0.00  0.00    +0.200 A 
ATOM     22  N   LIG    1        8.671   0.877   0.465  0.00  0.00    -0.340 NA
ATOM     23  N   LIG    1        9.952   0.794   0.426  0.00  0.00    -0.030 NA
ATOM     24  N   LIG    1       10.483   1.935   0.703  0.00  0.00    -0.070 NA
ATOM     25  N   LIG    1        9.425   2.831   0.935  0.00  0.00    -0.330 N 
BRANCH  25  26
ATOM     26  C   LIG    1        9.521   4.252   1.280  0.00  0.00    +0.210 C 
ATOM     27  C   LIG    1       10.904   4.904   1.207  0.00  0.00    +0.090 C 
ATOM     28  C   LIG    1       10.264   4.618   2.567  0.00  0.00    +0.070 C 
ENDBRANCH  25  26
ENDBRANCH  20  21
ENDBRANCH  19  20
ENDBRANCH  17  19
ENDBRANCH   4  15
TORSDOF 6
