REMARK  Name = ZINCvU0000000HtC.0
REMARK                            x       y       z     vdW  Elec       q    Type
REMARK                         _______ _______ _______ _____ _____    ______ ____
ROOT
ATOM      1  C   LIG    1       -5.483   1.436  -0.229  0.00  0.00    +0.150 A 
ATOM      2  C   LIG    1       -6.013   2.703  -0.208  0.00  0.00    -0.230 A 
ATOM      3  C   LIG    1       -5.066   3.714  -0.121  0.00  0.00    +0.370 A 
ATOM      4  C   LIG    1       -3.772   3.241  -0.074  0.00  0.00    -0.460 A 
ATOM      5  S   LIG    1       -3.780   1.486  -0.148  0.00  0.00    +0.240 S 
ENDROOT
BRANCH   2   6
ATOM      6  C   LIG    1       -7.467   2.967  -0.271  0.00  0.00    +0.210 A 
ATOM      7  C   LIG    1       -8.241   2.349  -1.254  0.00  0.00    -0.050 A 
ATOM      8  C   LIG    1       -9.599   2.606  -1.300  0.00  0.00    +0.080 A 
ATOM      9  C   LIG    1      -10.142   3.473  -0.362  0.00  0.00    -0.040 A 
ATOM     10  C   LIG    1       -9.318   4.051   0.585  0.00  0.00    +0.270 A 
ATOM     11  N   LIG    1       -8.027   3.787   0.611  0.00  0.00    -0.480 NA
ENDBRANCH   2   6
BRANCH   3  12
ATOM     12  N   LIG    1       -5.389   5.063  -0.086  0.00  0.00    -0.820 N 
ATOM     13  H   LIG    1       -6.319   5.338  -0.044  0.00  0.00    +0.400 HD
ATOM     14  H   LIG    1       -4.686   5.731  -0.102  0.00  0.00    +0.420 HD
ENDBRANCH   3  12
BRANCH   1  15
ATOM     15  N   LIG    1       -6.228   0.280  -0.311  0.00  0.00    -0.620 N 
ATOM     16  H   LIG    1       -7.185   0.329  -0.459  0.00  0.00    +0.420 HD
BRANCH  15  22
ATOM     17  C   LIG    1       -6.049  -2.054  -0.927  0.00  0.00    +0.110 A 
ATOM     18  C   LIG    1       -5.427  -3.284  -0.792  0.00  0.00    -0.040 A 
ATOM     19  C   LIG    1       -4.365  -3.430   0.082  0.00  0.00    +0.040 A 
ATOM     20  C   LIG    1       -3.922  -2.351   0.824  0.00  0.00    +0.020 A 
ATOM     21  C   LIG    1       -4.534  -1.119   0.691  0.00  0.00    +0.020 A 
ATOM     22  C   LIG    1       -5.603  -0.966  -0.179  0.00  0.00    +0.110 A 
BRANCH  17  24
ATOM     23  C   LIG    1       -7.496  -3.067  -2.519  0.00  0.00    +0.250 C 
ATOM     24  O   LIG    1       -7.093  -1.909  -1.786  0.00  0.00    -0.320 OA
ENDBRANCH  17  24
ENDBRANCH  15  22
ENDBRANCH   1  15
BRANCH   4  25
ATOM     25  C   LIG    1       -2.620   4.042   0.013  0.00  0.00    +0.470 C 
ATOM     26  O   LIG    1       -2.725   5.246   0.177  0.00  0.00    -0.490 OA
BRANCH  25  27
ATOM     27  C   LIG    1       -1.279   3.425  -0.093  0.00  0.00    -0.110 A 
ATOM     28  C   LIG    1       -1.109   2.248  -0.826  0.00  0.00    +0.050 A 
ATOM     29  C   LIG    1        0.138   1.671  -0.920  0.00  0.00    +0.070 A 
ATOM     30  C   LIG    1        1.233   2.267  -0.291  0.00  0.00    -0.010 A 
ATOM     31  C   LIG    1        1.063   3.446   0.439  0.00  0.00    +0.070 A 
ATOM     32  C   LIG    1       -0.185   4.020   0.537  0.00  0.00    +0.070 A 
BRANCH  30  33
ATOM     33  C   LIG    1        2.531   1.669  -0.393  0.00  0.00    +0.250 C 
ATOM     34  N   LIG    1        3.560   1.195  -0.475  0.00  0.00    -0.410 NA
ENDBRANCH  30  33
ENDBRANCH  25  27
ENDBRANCH   4  25
TORSDOF 8
