REMARK  Name = ZINCrH000004sHLS.0
REMARK                            x       y       z     vdW  Elec       q    Type
REMARK                         _______ _______ _______ _____ _____    ______ ____
ROOT
ATOM      1  C   LIG    1       -1.691   1.108   1.095  0.00  0.00    +0.220 C 
ENDROOT
BRANCH   1   2
ATOM      2  C   LIG    1       -0.342   0.439   1.049  0.00  0.00    +0.190 A 
ATOM      3  N   LIG    1        0.098  -0.484   1.868  0.00  0.00    -0.470 NA
ATOM      4  C   LIG    1        1.345  -0.785   1.440  0.00  0.00    +0.220 A 
ATOM      5  N   LIG    1        1.587  -0.034   0.397  0.00  0.00    -0.380 NA
ATOM      6  O   LIG    1        0.630   0.673   0.161  0.00  0.00    +0.080 OA
BRANCH   4   7
ATOM      7  C   LIG    1        2.266  -1.781   2.042  0.00  0.00    -0.030 A 
ATOM      8  C   LIG    1        1.873  -2.510   3.162  0.00  0.00    +0.070 A 
ATOM      9  C   LIG    1        2.731  -3.439   3.714  0.00  0.00    +0.010 A 
ATOM     10  C   LIG    1        3.984  -3.639   3.163  0.00  0.00    -0.050 A 
ATOM     11  C   LIG    1        4.382  -2.915   2.054  0.00  0.00    +0.010 A 
ATOM     12  C   LIG    1        3.529  -1.987   1.491  0.00  0.00    +0.050 A 
BRANCH  10  13
ATOM     13  C   LIG    1        4.920  -4.650   3.775  0.00  0.00    +0.020 C 
ATOM     14  C   LIG    1        4.271  -6.035   3.734  0.00  0.00    +0.030 C 
ATOM     15  C   LIG    1        5.209  -4.265   5.227  0.00  0.00    +0.030 C 
ENDBRANCH  10  13
ENDBRANCH   4   7
ENDBRANCH   1   2
BRANCH   1  16
ATOM     16  C   LIG    1       -1.612   2.356   1.976  0.00  0.00    +0.080 C 
BRANCH  16  19
ATOM     17  N   LIG    1       -3.131   4.151   2.744  0.00  0.00    -0.650 N 
ATOM     18  H   LIG    1       -2.405   4.492   3.289  0.00  0.00    +0.410 HD
ATOM     19  C   LIG    1       -2.962   3.025   2.023  0.00  0.00    +0.520 C 
ATOM     20  O   LIG    1       -3.895   2.550   1.411  0.00  0.00    -0.520 OA
BRANCH  17  28
ATOM     21  C   LIG    1       -4.425   5.315   0.160  0.00  0.00    +0.150 C 
ATOM     22  C   LIG    1       -4.974   5.369   1.562  0.00  0.00    +0.090 A 
ATOM     23  N   LIG    1       -6.103   5.924   1.922  0.00  0.00    -0.290 NA
ATOM     24  N   LIG    1       -6.253   5.762   3.305  0.00  0.00    -0.370 N 
ATOM     25  C   LIG    1       -5.171   5.083   3.766  0.00  0.00    +0.080 A 
ATOM     26  C   LIG    1       -4.914   4.682   5.196  0.00  0.00    +0.150 C 
ATOM     27  C   LIG    1       -7.381   6.237   4.111  0.00  0.00    +0.360 C 
ATOM     28  C   LIG    1       -4.362   4.833   2.705  0.00  0.00    -0.010 A 
ENDBRANCH  17  28
ENDBRANCH  16  19
ENDBRANCH   1  16
TORSDOF 6
