REMARK  Name = ZINCrg00000SjSAE.0
REMARK                            x       y       z     vdW  Elec       q    Type
REMARK                         _______ _______ _______ _____ _____    ______ ____
ROOT
ATOM      1  C   LIG    1        2.688   8.212   0.433  0.00  0.00    -0.700 A 
ATOM      2  C   LIG    1        3.857   7.475   0.419  0.00  0.00    +0.170 A 
ATOM      3  C   LIG    1        3.807   6.099   0.310  0.00  0.00    -0.020 A 
ATOM      4  C   LIG    1        2.580   5.456   0.213  0.00  0.00    +0.190 A 
ATOM      5  C   LIG    1        1.407   6.200   0.222  0.00  0.00    -0.040 A 
ATOM      6  C   LIG    1        1.464   7.575   0.337  0.00  0.00    +0.170 A 
ENDROOT
BRANCH   1   7
ATOM      7  S   LIG    1        2.756   9.967   0.574  0.00  0.00    +2.690 S 
ATOM      8  O   LIG    1        3.999  10.272   1.191  0.00  0.00    -0.950 OA
ATOM      9  O   LIG    1        1.503  10.376   1.105  0.00  0.00    -0.950 OA
BRANCH   7  10
ATOM     10  N   LIG    1        2.834  10.579  -0.963  0.00  0.00    -1.000 NA
BRANCH  10  12
ATOM     11  C   LIG    1        1.278  12.387  -1.504  0.00  0.00    +0.010 C 
ATOM     12  C   LIG    1        1.602  10.902  -1.686  0.00  0.00    +0.280 C 
ENDBRANCH  10  12
BRANCH  10  13
ATOM     13  C   LIG    1        4.136  10.797  -1.599  0.00  0.00    +0.290 C 
ATOM     14  C   LIG    1        4.494   9.581  -2.457  0.00  0.00    +0.000 C 
ENDBRANCH  10  13
ENDBRANCH   7  10
ENDBRANCH   1   7
BRANCH   4  15
ATOM     15  N   LIG    1        2.526   4.064   0.101  0.00  0.00    -0.610 N 
ATOM     16  H   LIG    1        3.346   3.546   0.091  0.00  0.00    +0.440 HD
BRANCH  15  17
ATOM     17  C   LIG    1        1.333   3.440   0.007  0.00  0.00    +0.510 C 
ATOM     18  C   LIG    1        1.272   2.059   0.007  0.00  0.00    -0.400 C 
ATOM     19  C   LIG    1       -0.017   1.345   0.043  0.00  0.00    +0.590 C 
ATOM     20  N   LIG    1        0.001  -0.004   0.040  0.00  0.00    -0.560 N 
ATOM     21  C   LIG    1        1.153  -0.689   0.006  0.00  0.00    +0.710 C 
ATOM     22  N   LIG    1        2.359  -0.106  -0.026  0.00  0.00    -0.560 N 
ATOM     23  C   LIG    1        3.559  -0.947  -0.061  0.00  0.00    +0.350 C 
ATOM     24  O   LIG    1        1.100  -1.903   0.006  0.00  0.00    -0.520 OA
ATOM     25  C   LIG    1       -1.267  -0.736   0.074  0.00  0.00    +0.340 C 
ATOM     26  O   LIG    1       -1.068   1.956   0.069  0.00  0.00    -0.500 OA
ATOM     27  C   LIG    1        2.494   1.236  -0.028  0.00  0.00    +0.580 C 
ATOM     28  O   LIG    1        3.595   1.753  -0.057  0.00  0.00    -0.520 OA
ENDBRANCH  15  17
ENDBRANCH   4  15
TORSDOF 6
