REMARK  Name = ZINCvU0000000Ezu.0
REMARK                            x       y       z     vdW  Elec       q    Type
REMARK                         _______ _______ _______ _____ _____    ______ ____
ROOT
ATOM      1  S   LIG    1       -0.249   7.928  -1.309  0.00  0.00    +2.720 S 
ATOM      2  O   LIG    1        0.204   8.768  -0.257  0.00  0.00    -0.950 OA
ATOM      3  O   LIG    1       -1.234   8.326  -2.254  0.00  0.00    -0.950 OA
ENDROOT
BRANCH   1  10
ATOM      4  C   LIG    1        2.943   7.856  -0.382  0.00  0.00    +0.190 C 
ATOM      5  C   LIG    1        2.498   7.476  -1.771  0.00  0.00    +0.170 A 
ATOM      6  N   LIG    1        3.277   7.083  -2.746  0.00  0.00    -0.280 NA
ATOM      7  N   LIG    1        2.480   6.832  -3.870  0.00  0.00    -0.310 N 
ATOM      8  C   LIG    1        1.195   7.083  -3.532  0.00  0.00    +0.230 A 
ATOM      9  C   LIG    1       -0.004   6.945  -4.435  0.00  0.00    +0.190 C 
ATOM     10  C   LIG    1        1.179   7.479  -2.239  0.00  0.00    -0.820 A 
BRANCH   7  11
ATOM     11  C   LIG    1        2.934   6.397  -5.123  0.00  0.00    +0.140 A 
ATOM     12  C   LIG    1        3.920   5.423  -5.206  0.00  0.00    +0.050 A 
ATOM     13  C   LIG    1        4.362   4.992  -6.442  0.00  0.00    +0.060 A 
ATOM     14  C   LIG    1        3.831   5.539  -7.597  0.00  0.00    -0.030 A 
ATOM     15  C   LIG    1        2.852   6.515  -7.517  0.00  0.00    +0.060 A 
ATOM     16 CL   LIG    1        4.393   5.001  -9.148  0.00  0.00    -0.050 Cl
ATOM     17  C   LIG    1        2.403   6.944  -6.283  0.00  0.00    +0.030 A 
ENDBRANCH   7  11
ENDBRANCH   1  10
BRANCH   1  18
ATOM     18  N   LIG    1       -0.821   6.548  -0.593  0.00  0.00    -1.110 NA
ATOM     19  H   LIG    1       -1.687   6.194  -0.846  0.00  0.00    +0.420 HD
BRANCH  18  20
ATOM     20  C   LIG    1       -0.017   5.864   0.424  0.00  0.00    +0.310 C 
BRANCH  20  21
ATOM     21  C   LIG    1       -0.201   4.375   0.291  0.00  0.00    -0.120 A 
ATOM     22  C   LIG    1        0.881   3.529   0.444  0.00  0.00    +0.060 A 
ATOM     23  C   LIG    1        0.714   2.162   0.323  0.00  0.00    -0.010 A 
ATOM     24  C   LIG    1       -0.539   1.641   0.047  0.00  0.00    +0.110 A 
ATOM     25  C   LIG    1       -1.621   2.489  -0.112  0.00  0.00    -0.010 A 
ATOM     26  F   LIG    1       -0.704   0.305  -0.073  0.00  0.00    -0.140 F 
ATOM     27  C   LIG    1       -1.453   3.855   0.016  0.00  0.00    +0.060 A 
ENDBRANCH  20  21
BRANCH  20  28
ATOM     28  C   LIG    1       -0.468   6.312   1.816  0.00  0.00    +0.060 C 
BRANCH  28  29
ATOM     29  C   LIG    1        0.456   5.702   2.872  0.00  0.00    +0.460 C 
ATOM     30  F   LIG    1        0.297   4.312   2.884  0.00  0.00    -0.180 F 
ATOM     31  F   LIG    1        0.132   6.219   4.130  0.00  0.00    -0.180 F 
ATOM     32  F   LIG    1        1.785   6.016   2.566  0.00  0.00    -0.180 F 
ENDBRANCH  28  29
ENDBRANCH  20  28
ENDBRANCH  18  20
ENDBRANCH   1  18
TORSDOF 7
