REMARK  Name = ZINCrH00000No4LP.2
REMARK                            x       y       z     vdW  Elec       q    Type
REMARK                         _______ _______ _______ _____ _____    ______ ____
ROOT
ATOM      1  N   LIG    1        1.810   7.841  -1.534  0.00  0.00    -0.490 NA
ATOM      2  C   LIG    1        3.186   7.417  -1.194  0.00  0.00    +0.180 C 
ATOM      3  C   LIG    1        3.873   8.615  -0.514  0.00  0.00    +0.020 C 
ATOM      4  C   LIG    1        2.796   9.724  -0.465  0.00  0.00    +0.050 C 
ATOM      5  C   LIG    1        1.473   8.926  -0.578  0.00  0.00    +0.210 C 
ENDROOT
BRANCH   5   6
ATOM      6  C   LIG    1        0.372   9.796  -1.127  0.00  0.00    +0.200 A 
ATOM      7  N   LIG    1        0.308  10.262  -2.347  0.00  0.00    -0.450 NA
ATOM      8  C   LIG    1       -0.804  10.991  -2.480  0.00  0.00    +0.000 A 
ATOM      9  C   LIG    1       -1.450  10.985  -1.294  0.00  0.00    -0.020 A 
ATOM     10  C   LIG    1       -2.748  11.701  -1.026  0.00  0.00    +0.100 C 
ATOM     11  C   LIG    1       -2.971  12.731  -2.142  0.00  0.00    +0.030 C 
ATOM     12  C   LIG    1       -2.781  12.056  -3.503  0.00  0.00    +0.010 C 
ATOM     13  C   LIG    1       -1.299  11.718  -3.705  0.00  0.00    +0.120 C 
ATOM     14  N   LIG    1       -0.708  10.230  -0.438  0.00  0.00    -0.450 N 
ATOM     15  C   LIG    1       -1.020   9.941   0.964  0.00  0.00    +0.320 C 
ENDBRANCH   5   6
BRANCH   1  16
ATOM     16  C   LIG    1        0.868   6.720  -1.413  0.00  0.00    +0.160 C 
BRANCH  16  17
ATOM     17  C   LIG    1       -0.554   7.218  -1.679  0.00  0.00    +0.310 C 
BRANCH  17  27
ATOM     18  C   LIG    1       -1.309   5.557  -4.176  0.00  0.00    +0.190 C 
ATOM     19  C   LIG    1       -1.822   5.335  -2.776  0.00  0.00    +0.290 A 
ATOM     20  N   LIG    1       -2.661   4.403  -2.429  0.00  0.00    -0.490 NA
ATOM     21  C   LIG    1       -2.911   4.487  -1.097  0.00  0.00    +0.050 A 
ATOM     22  C   LIG    1       -3.710   3.751  -0.219  0.00  0.00    +0.070 A 
ATOM     23  C   LIG    1       -3.758   4.089   1.104  0.00  0.00    +0.000 A 
ATOM     24  C   LIG    1       -3.010   5.152   1.590  0.00  0.00    +0.030 A 
ATOM     25  C   LIG    1       -2.210   5.889   0.742  0.00  0.00    +0.000 A 
ATOM     26  C   LIG    1       -2.153   5.563  -0.606  0.00  0.00    +0.050 A 
ATOM     27  N   LIG    1       -1.475   6.080  -1.692  0.00  0.00    -0.490 N 
ENDBRANCH  17  27
ENDBRANCH  16  17
ENDBRANCH   1  16
TORSDOF 4
