REMARK  Name = ZINCpk00000xRzD9.0
REMARK                            x       y       z     vdW  Elec       q    Type
REMARK                         _______ _______ _______ _____ _____    ______ ____
ROOT
ATOM      1  C   LIG    1       -1.202   7.355  -0.257  0.00  0.00    +0.520 C 
ATOM      2  N   LIG    1       -2.280   8.122   0.004  0.00  0.00    -0.600 N 
ATOM      3  C   LIG    1       -3.631   7.545  -0.011  0.00  0.00    +0.270 C 
ATOM      4  C   LIG    1       -4.510   8.373  -0.953  0.00  0.00    +0.010 C 
ATOM      5  C   LIG    1       -4.460   9.843  -0.532  0.00  0.00    +0.010 C 
ATOM      6  C   LIG    1       -3.022  10.357  -0.638  0.00  0.00    +0.040 C 
ATOM      7  C   LIG    1       -2.125   9.550   0.313  0.00  0.00    +0.220 C 
ATOM      8  O   LIG    1       -0.103   7.861  -0.336  0.00  0.00    -0.510 OA
ENDROOT
BRANCH   1   9
ATOM      9  C   LIG    1       -1.364   5.870  -0.450  0.00  0.00    +0.240 C 
BRANCH   9  10
ATOM     10  O   LIG    1       -0.089   5.282  -0.712  0.00  0.00    -0.290 OA
BRANCH  10  15
ATOM     11  C   LIG    1        1.173   1.924  -1.373  0.00  0.00    -0.100 A 
ATOM     12  C   LIG    1       -0.014   1.191  -1.315  0.00  0.00    +0.010 A 
ATOM     13  C   LIG    1       -1.209   1.834  -1.062  0.00  0.00    +0.060 A 
ATOM     14  C   LIG    1       -1.233   3.201  -0.855  0.00  0.00    -0.050 A 
ATOM     15  C   LIG    1       -0.058   3.938  -0.911  0.00  0.00    +0.120 A 
ATOM     16  C   LIG    1        1.146   3.304  -1.170  0.00  0.00    +0.060 A 
BRANCH  11  20
ATOM     17  N   LIG    1        2.477  -0.094  -1.846  0.00  0.00    -0.850 N 
ATOM     18  H   LIG    1        3.318  -0.543  -2.027  0.00  0.00    +0.410 HD
ATOM     19  H   LIG    1        1.653  -0.605  -1.806  0.00  0.00    +0.400 HD
ATOM     20  C   LIG    1        2.454   1.239  -1.650  0.00  0.00    +0.560 C 
ATOM     21  O   LIG    1        3.486   1.879  -1.700  0.00  0.00    -0.530 OA
ENDBRANCH  11  20
ENDBRANCH  10  15
ENDBRANCH   9  10
ENDBRANCH   1   9
BRANCH   7  22
ATOM     22  C   LIG    1       -0.664   9.962   0.117  0.00  0.00    +0.360 C 
BRANCH  22  23
ATOM     23  N   LIG    1       -0.503  11.373   0.475  0.00  0.00    -0.370 N 
ATOM     24  C   LIG    1        0.370  11.868   1.378  0.00  0.00    +0.230 A 
ATOM     25  C   LIG    1        0.207  13.211   1.416  0.00  0.00    -0.130 A 
ATOM     26  C   LIG    1       -0.801  13.548   0.506  0.00  0.00    +0.220 A 
ATOM     27  N   LIG    1       -1.223  12.448  -0.062  0.00  0.00    -0.300 NA
ENDBRANCH  22  23
ENDBRANCH   7  22
TORSDOF 6
