REMARK  Name = ZINCqH0000031Fpm.0
REMARK                            x       y       z     vdW  Elec       q    Type
REMARK                         _______ _______ _______ _____ _____    ______ ____
ROOT
ATOM      1  C   LIG    1        3.541  -1.761   1.242  0.00  0.00    +0.510 C 
ATOM      2  N   LIG    1        4.460  -1.087   0.522  0.00  0.00    -0.600 N 
ATOM      3  C   LIG    1        5.804  -1.674   0.362  0.00  0.00    +0.260 C 
ATOM      4  C   LIG    1        6.919  -0.623   0.510  0.00  0.00    +0.020 C 
ATOM      5  C   LIG    1        6.588   0.328   1.634  0.00  0.00    +0.020 C 
ATOM      6  C   LIG    1        5.831   1.529   1.074  0.00  0.00    +0.000 C 
ATOM      7  C   LIG    1        4.380   1.323   0.944  0.00  0.00    +0.010 C 
ATOM      8  C   LIG    1        4.087   0.182  -0.062  0.00  0.00    +0.320 C 
ATOM      9  O   LIG    1        2.404  -1.346   1.314  0.00  0.00    -0.490 OA
ENDROOT
BRANCH   8  10
ATOM     10  C   LIG    1        2.617   0.171  -0.393  0.00  0.00    +0.040 A 
ATOM     11  C   LIG    1        2.050  -0.443  -1.452  0.00  0.00    -0.080 A 
ATOM     12  C   LIG    1        0.663  -0.206  -1.383  0.00  0.00    -0.070 A 
ATOM     13  C   LIG    1        0.435   0.543  -0.285  0.00  0.00    +0.140 A 
ATOM     14  N   LIG    1        1.631   0.777   0.327  0.00  0.00    -0.420 N 
ATOM     15  C   LIG    1        1.824   1.552   1.555  0.00  0.00    +0.290 C 
ENDBRANCH   8  10
BRANCH   1  16
ATOM     16  C   LIG    1        3.928  -3.030   1.956  0.00  0.00    +0.060 C 
BRANCH  16  17
ATOM     17  C   LIG    1        2.710  -3.592   2.692  0.00  0.00    +0.350 C 
BRANCH  17  20
ATOM     18  C   LIG    1        0.583  -1.592   5.166  0.00  0.00    +0.100 C 
ATOM     19  C   LIG    1        1.023  -2.625   4.161  0.00  0.00    +0.520 C 
ATOM     20  N   LIG    1        2.305  -2.660   3.748  0.00  0.00    -0.720 N 
ATOM     21  H   LIG    1        2.961  -2.069   4.151  0.00  0.00    +0.400 HD
ATOM     22  O   LIG    1        0.223  -3.425   3.724  0.00  0.00    -0.540 OA
ENDBRANCH  17  20
BRANCH  17  23
ATOM     23  C   LIG    1        3.062  -4.923   3.305  0.00  0.00    -0.190 A 
ATOM     24  C   LIG    1        2.785  -6.113   2.770  0.00  0.00    +0.020 A 
ATOM     25  C   LIG    1        3.208  -7.200   3.515  0.00  0.00    +0.010 A 
ATOM     26  C   LIG    1        3.829  -6.893   4.655  0.00  0.00    -0.050 A 
ATOM     27  S   LIG    1        3.910  -5.145   4.830  0.00  0.00    +0.100 S 
ENDBRANCH  17  23
ENDBRANCH  16  17
ENDBRANCH   1  16
TORSDOF 5
