REMARK  Name = ZINCqH00000h8rHb.0
REMARK                            x       y       z     vdW  Elec       q    Type
REMARK                         _______ _______ _______ _____ _____    ______ ____
ROOT
ATOM      1  C   LIG    1        3.857   3.650  -0.183  0.00  0.00    -0.280 A 
ATOM      2  C   LIG    1        5.209   3.909  -0.079  0.00  0.00    +0.340 A 
ATOM      3  N   LIG    1        5.848   2.734   0.007  0.00  0.00    -0.360 N 
ATOM      4  N   LIG    1        4.921   1.689  -0.034  0.00  0.00    -0.260 NA
ATOM      5  C   LIG    1        7.299   2.570   0.132  0.00  0.00    +0.380 C 
ATOM      6  C   LIG    1        3.713   2.190  -0.154  0.00  0.00    +0.180 A 
ENDROOT
BRANCH   6   7
ATOM      7  C   LIG    1        2.445   1.427  -0.237  0.00  0.00    -0.070 A 
ATOM      8  C   LIG    1        1.378   1.750   0.600  0.00  0.00    +0.150 A 
ATOM      9  C   LIG    1        0.200   1.037   0.519  0.00  0.00    -0.020 A 
ATOM     10  C   LIG    1        0.075  -0.000  -0.391  0.00  0.00    +0.150 A 
ATOM     11  C   LIG    1        1.131  -0.327  -1.226  0.00  0.00    -0.050 A 
ATOM     12  F   LIG    1       -1.081  -0.695  -0.465  0.00  0.00    -0.130 F 
ATOM     13  C   LIG    1        2.315   0.382  -1.154  0.00  0.00    +0.160 A 
ATOM     14  F   LIG    1        3.345   0.063  -1.968  0.00  0.00    -0.120 F 
ENDBRANCH   6   7
BRANCH   1  15
ATOM     15  C   LIG    1        2.775   4.640  -0.300  0.00  0.00    +0.540 C 
ATOM     16  O   LIG    1        1.616   4.275  -0.306  0.00  0.00    -0.480 OA
BRANCH  15  17
ATOM     17  O   LIG    1        3.070   5.952  -0.399  0.00  0.00    -0.290 OA
BRANCH  17  21
ATOM     18  C   LIG    1       -0.102   8.594  -0.364  0.00  0.00    -0.170 A 
ATOM     19  C   LIG    1        0.216   7.862   0.787  0.00  0.00    +0.100 A 
ATOM     20  C   LIG    1        1.274   6.983   0.770  0.00  0.00    -0.010 A 
ATOM     21  C   LIG    1        2.027   6.820  -0.388  0.00  0.00    +0.120 A 
ATOM     22  C   LIG    1        1.719   7.549  -1.531  0.00  0.00    +0.010 A 
ATOM     23  C   LIG    1        0.659   8.426  -1.526  0.00  0.00    +0.090 A 
BRANCH  18  25
ATOM     24  C   LIG    1       -1.656  10.218  -1.625  0.00  0.00    +0.080 C 
ATOM     25  C   LIG    1       -1.231   9.534  -0.351  0.00  0.00    +0.400 C 
ATOM     26  O   LIG    1       -1.822   9.759   0.684  0.00  0.00    -0.460 OA
ENDBRANCH  18  25
ENDBRANCH  17  21
ENDBRANCH  15  17
ENDBRANCH   1  15
TORSDOF 5
