REMARK  Name = ZINCpk00000KfLN9.0
REMARK                            x       y       z     vdW  Elec       q    Type
REMARK                         _______ _______ _______ _____ _____    ______ ____
ROOT
ATOM      1  C   LIG    1       -4.447  -1.362  -1.870  0.00  0.00    +0.530 C 
ATOM      2  N   LIG    1       -5.600  -2.040  -1.704  0.00  0.00    -0.610 N 
ATOM      3  C   LIG    1       -5.715  -3.102  -0.692  0.00  0.00    +0.250 C 
ATOM      4  C   LIG    1       -6.968  -2.835   0.150  0.00  0.00    +0.190 C 
ATOM      5  O   LIG    1       -8.090  -2.661  -0.719  0.00  0.00    -0.360 OA
ATOM      6  C   LIG    1       -7.982  -1.538  -1.597  0.00  0.00    +0.200 C 
ATOM      7  C   LIG    1       -6.764  -1.566   0.981  0.00  0.00    +0.010 C 
ATOM      8  C   LIG    1       -6.783  -1.736  -2.525  0.00  0.00    +0.270 C 
ATOM      9  O   LIG    1       -4.373  -0.489  -2.710  0.00  0.00    -0.530 OA
ENDROOT
BRANCH   1  12
ATOM     10  N   LIG    1       -1.368  -0.510  -0.108  0.00  0.00    -0.620 N 
ATOM     11  C   LIG    1       -2.049  -0.789  -1.378  0.00  0.00    +0.300 C 
ATOM     12  C   LIG    1       -3.251  -1.687  -1.013  0.00  0.00    +0.000 C 
ATOM     13  C   LIG    1       -3.503  -1.294   0.461  0.00  0.00    +0.070 C 
ATOM     14  C   LIG    1       -2.162  -0.785   0.942  0.00  0.00    +0.520 C 
ATOM     15  O   LIG    1       -1.849  -0.644   2.105  0.00  0.00    -0.510 OA
BRANCH  10  16
ATOM     16  C   LIG    1        0.002  -0.004   0.002  0.00  0.00    +0.320 C 
BRANCH  16  17
ATOM     17  C   LIG    1       -0.019   1.526   0.010  0.00  0.00    +0.150 C 
BRANCH  17  19
ATOM     18  C   LIG    1       -0.762   3.410   1.292  0.00  0.00    +0.200 C 
ATOM     19  O   LIG    1       -0.688   1.987   1.186  0.00  0.00    -0.380 OA
ENDBRANCH  17  19
ENDBRANCH  16  17
ENDBRANCH  10  16
ENDBRANCH   1  12
BRANCH   6  20
ATOM     20  C   LIG    1       -9.241  -1.419  -2.417  0.00  0.00    -0.090 A 
ATOM     21  C   LIG    1       -9.908  -2.557  -2.831  0.00  0.00    +0.040 A 
ATOM     22  C   LIG    1      -11.064  -2.447  -3.579  0.00  0.00    +0.000 A 
ATOM     23  C   LIG    1      -11.549  -1.199  -3.923  0.00  0.00    +0.010 A 
ATOM     24  C   LIG    1      -10.880  -0.061  -3.514  0.00  0.00    +0.010 A 
ATOM     25  C   LIG    1       -9.725  -0.171  -2.762  0.00  0.00    +0.010 A 
ENDBRANCH   6  20
TORSDOF 5
