REMARK  Name = ZINCrg00000zChzJ.0
REMARK                            x       y       z     vdW  Elec       q    Type
REMARK                         _______ _______ _______ _____ _____    ______ ____
ROOT
ATOM      1  C   LIG    1        2.416   3.951   0.001  0.00  0.00    +0.590 C 
ATOM      2  N   LIG    1        2.388   5.295  -0.094  0.00  0.00    -0.620 N 
ATOM      3  C   LIG    1        1.190   6.161  -0.100  0.00  0.00    +0.260 C 
ATOM      4  C   LIG    1        1.737   7.611  -0.279  0.00  0.00    +0.260 C 
ATOM      5  C   LIG    1        2.985   7.308  -1.184  0.00  0.00    +0.050 C 
ATOM      6  N   LIG    1        2.398   7.939   1.019  0.00  0.00    -0.610 N 
ATOM      7  C   LIG    1        2.005   8.865   1.917  0.00  0.00    +0.620 C 
ATOM      8  O   LIG    1        1.014   9.536   1.704  0.00  0.00    -0.520 OA
ATOM      9  C   LIG    1        3.561   7.013   1.119  0.00  0.00    +0.270 C 
ATOM     10  C   LIG    1        3.561   6.210  -0.219  0.00  0.00    +0.260 C 
ATOM     11  O   LIG    1        3.480   3.369   0.077  0.00  0.00    -0.520 OA
ENDROOT
BRANCH   7  12
ATOM     12  C   LIG    1        2.779   9.063   3.159  0.00  0.00    +0.060 A 
ATOM     13  N   LIG    1        3.866   8.405   3.507  0.00  0.00    -0.270 NA
ATOM     14  N   LIG    1        4.294   8.888   4.750  0.00  0.00    -0.390 N 
ATOM     15  C   LIG    1        3.430   9.861   5.144  0.00  0.00    +0.360 A 
ATOM     16  C   LIG    1        5.467   8.426   5.496  0.00  0.00    +0.350 C 
ATOM     17  C   LIG    1        2.486   9.995   4.177  0.00  0.00    -0.260 A 
ATOM     18  C   LIG    1        1.331  10.962   4.190  0.00  0.00    +0.120 C 
BRANCH  15  19
ATOM     19  N   LIG    1        3.503  10.595   6.326  0.00  0.00    -0.850 N 
ATOM     20  H   LIG    1        2.836  11.272   6.519  0.00  0.00    +0.420 HD
ATOM     21  H   LIG    1        4.222  10.428   6.956  0.00  0.00    +0.400 HD
ENDBRANCH  15  19
ENDBRANCH   7  12
BRANCH   1  27
ATOM     22  C   LIG    1        1.031   2.018  -0.754  0.00  0.00    +0.180 A 
ATOM     23  C   LIG    1       -0.159   1.307  -0.736  0.00  0.00    -0.080 A 
ATOM     24  C   LIG    1       -1.220   1.752   0.029  0.00  0.00    +0.070 A 
ATOM     25  C   LIG    1       -1.101   2.903   0.790  0.00  0.00    -0.030 A 
ATOM     26  C   LIG    1        0.075   3.622   0.784  0.00  0.00    +0.080 A 
ATOM     27  C   LIG    1        1.154   3.186   0.011  0.00  0.00    -0.170 A 
BRANCH  22  29
ATOM     28  C   LIG    1        1.873   0.388  -2.262  0.00  0.00    +0.240 C 
ATOM     29  O   LIG    1        2.072   1.586  -1.509  0.00  0.00    -0.300 OA
ENDBRANCH  22  29
ENDBRANCH   1  27
TORSDOF 4
