REMARK  Name = ZINCtV00000L6l7k.1
REMARK                            x       y       z     vdW  Elec       q    Type
REMARK                         _______ _______ _______ _____ _____    ______ ____
ROOT
ATOM      1  C   LIG    1        3.581   5.468  -0.089  0.00  0.00    +0.060 C 
ATOM      2  C   LIG    1        5.043   5.324   0.324  0.00  0.00    +0.020 C 
ATOM      3  C   LIG    1        5.698   4.273  -0.582  0.00  0.00    +0.010 C 
ATOM      4  C   LIG    1        5.091   2.913  -0.242  0.00  0.00    +0.080 C 
ATOM      5  C   LIG    1        3.591   2.987  -0.229  0.00  0.00    -0.250 C 
ATOM      6  C   LIG    1        2.812   1.682  -0.305  0.00  0.00    +0.350 C 
ATOM      7  N   LIG    1        1.352   1.789  -0.273  0.00  0.00    -0.460 N 
ATOM      8  N   LIG    1        0.296   0.877  -0.315  0.00  0.00    -0.490 N 
ATOM      9  H   LIG    1        0.365  -0.089  -0.381  0.00  0.00    +0.450 HD
ATOM     10  C   LIG    1       -0.850   1.610  -0.250  0.00  0.00    +0.620 A 
ATOM     11  N   LIG    1       -0.551   2.877  -0.166  0.00  0.00    -0.520 NA
ATOM     12  C   LIG    1        0.789   3.047  -0.179  0.00  0.00    +0.560 A 
ATOM     13  N   LIG    1        1.545   4.113  -0.123  0.00  0.00    -0.570 NA
ATOM     14  C   LIG    1        2.905   4.119  -0.148  0.00  0.00    +0.190 C 
ENDROOT
BRANCH   6  15
ATOM     15  C   LIG    1        3.200   0.981  -1.581  0.00  0.00    -0.110 A 
ATOM     16  C   LIG    1        2.529   1.267  -2.756  0.00  0.00    +0.020 A 
ATOM     17  C   LIG    1        2.884   0.632  -3.929  0.00  0.00    +0.020 A 
ATOM     18  C   LIG    1        3.913  -0.308  -3.925  0.00  0.00    -0.040 A 
ATOM     19  C   LIG    1        4.581  -0.597  -2.737  0.00  0.00    +0.020 A 
ATOM     20  C   LIG    1        4.222   0.049  -1.572  0.00  0.00    +0.030 A 
BRANCH  18  21
ATOM     21  C   LIG    1        4.294  -0.999  -5.182  0.00  0.00    -0.050 A 
ATOM     22  C   LIG    1        5.327  -1.935  -5.179  0.00  0.00    +0.020 A 
ATOM     23  C   LIG    1        5.674  -2.579  -6.350  0.00  0.00    +0.010 A 
ATOM     24  C   LIG    1        5.007  -2.288  -7.526  0.00  0.00    +0.000 A 
ATOM     25  C   LIG    1        3.985  -1.356  -7.535  0.00  0.00    +0.010 A 
ATOM     26  C   LIG    1        3.626  -0.710  -6.370  0.00  0.00    +0.010 A 
ENDBRANCH  18  21
ENDBRANCH   6  15
BRANCH   1  28
ATOM     27  C   LIG    1        2.746   5.609   2.261  0.00  0.00    +0.020 C 
ATOM     28  C   LIG    1        2.855   6.351   0.928  0.00  0.00    -0.050 C 
ATOM     29  C   LIG    1        1.454   6.679   0.410  0.00  0.00    +0.030 C 
ATOM     30  C   LIG    1        3.641   7.648   1.129  0.00  0.00    +0.000 C 
ENDBRANCH   1  28
TORSDOF 3
