REMARK  Name = ZINCvU0000000Atx.0
REMARK                            x       y       z     vdW  Elec       q    Type
REMARK                         _______ _______ _______ _____ _____    ______ ____
ROOT
ATOM      1  C   LIG    1        3.118   1.758   3.597  0.00  0.00    +0.280 A 
ATOM      2  N   LIG    1        2.123   1.283   2.918  0.00  0.00    -0.240 NA
ATOM      3  N   LIG    1        0.983   1.315   3.733  0.00  0.00    -0.370 N 
ATOM      4  C   LIG    1        1.356   1.825   4.926  0.00  0.00    +0.470 A 
ATOM      5  S   LIG    1        0.343   2.073   6.283  0.00  0.00    -0.550 S 
ATOM      6  N   LIG    1        2.673   2.102   4.852  0.00  0.00    -0.450 N 
ENDROOT
BRANCH   6   7
ATOM      7  C   LIG    1        3.457   2.646   5.880  0.00  0.00    +0.110 A 
ATOM      8  C   LIG    1        3.258   3.959   6.284  0.00  0.00    +0.090 A 
ATOM      9  C   LIG    1        4.027   4.492   7.300  0.00  0.00    +0.010 A 
ATOM     10  C   LIG    1        5.003   3.721   7.908  0.00  0.00    +0.130 A 
ATOM     11  C   LIG    1        5.206   2.413   7.503  0.00  0.00    +0.010 A 
ATOM     12  F   LIG    1        5.757   4.246   8.898  0.00  0.00    -0.130 F 
ATOM     13  C   LIG    1        4.436   1.874   6.491  0.00  0.00    +0.070 A 
ENDBRANCH   6   7
BRANCH   1  15
ATOM     14  C   LIG    1        4.664   3.217   2.321  0.00  0.00    +0.080 C 
ATOM     15  C   LIG    1        4.531   1.905   3.096  0.00  0.00    +0.230 C 
BRANCH  15  16
ATOM     16  N   LIG    1        4.857   0.778   2.212  0.00  0.00    -0.530 NA
ATOM     17  C   LIG    1        4.664  -0.505   2.900  0.00  0.00    +0.200 C 
ATOM     18  C   LIG    1        6.226   0.896   1.691  0.00  0.00    +0.210 C 
ENDBRANCH  15  16
ENDBRANCH   1  15
BRANCH   3  19
ATOM     19  C   LIG    1       -0.363   0.873   3.361  0.00  0.00    +0.510 C 
BRANCH  19  20
ATOM     20  N   LIG    1       -0.978   1.868   2.473  0.00  0.00    -0.520 NA
ATOM     21  C   LIG    1       -0.578   1.641   1.060  0.00  0.00    +0.180 C 
ATOM     22  C   LIG    1       -1.663   2.356   0.226  0.00  0.00    +0.020 C 
ATOM     23  C   LIG    1       -2.901   2.415   1.145  0.00  0.00    +0.050 C 
ATOM     24  C   LIG    1       -2.460   1.730   2.457  0.00  0.00    +0.190 C 
BRANCH  24  25
ATOM     25  C   LIG    1       -3.065   2.432   3.645  0.00  0.00    -0.100 A 
ATOM     26  C   LIG    1       -2.515   3.614   4.104  0.00  0.00    +0.090 A 
ATOM     27  C   LIG    1       -3.072   4.261   5.190  0.00  0.00    -0.020 A 
ATOM     28  C   LIG    1       -4.176   3.719   5.826  0.00  0.00    +0.100 A 
ATOM     29  C   LIG    1       -4.724   2.532   5.369  0.00  0.00    -0.030 A 
ATOM     30  F   LIG    1       -4.720   4.348   6.891  0.00  0.00    -0.140 F 
ATOM     31  C   LIG    1       -4.168   1.890   4.279  0.00  0.00    +0.050 A 
ENDBRANCH  24  25
ENDBRANCH  19  20
ENDBRANCH   3  19
TORSDOF 6
