REMARK  Name = ZINCrH000004mMCj.0
REMARK                            x       y       z     vdW  Elec       q    Type
REMARK                         _______ _______ _______ _____ _____    ______ ____
ROOT
ATOM      1  N   LIG    1        3.172   8.872  -0.095  0.00  0.00    -0.550 N 
ATOM      2  C   LIG    1        3.638   7.723  -0.623  0.00  0.00    +0.580 C 
ATOM      3  O   LIG    1        2.882   6.790  -0.812  0.00  0.00    -0.520 OA
ENDROOT
BRANCH   1   7
ATOM      4  C   LIG    1        5.702  12.162   0.300  0.00  0.00    +0.140 A 
ATOM      5  C   LIG    1        4.566  12.252  -0.490  0.00  0.00    +0.000 A 
ATOM      6  C   LIG    1        3.727  11.163  -0.621  0.00  0.00    +0.050 A 
ATOM      7  C   LIG    1        4.022   9.977   0.038  0.00  0.00    +0.090 A 
ATOM      8  C   LIG    1        5.157   9.889   0.833  0.00  0.00    +0.050 A 
ATOM      9  C   LIG    1        5.998  10.977   0.959  0.00  0.00    -0.060 A 
BRANCH   4  11
ATOM     10  C   LIG    1        7.679  13.071   1.259  0.00  0.00    +0.250 C 
ATOM     11  O   LIG    1        6.527  13.235   0.430  0.00  0.00    -0.310 OA
ENDBRANCH   4  11
ENDBRANCH   1   7
BRANCH   2  12
ATOM     12  C   LIG    1        5.067   7.597  -0.972  0.00  0.00    -0.210 A 
ATOM     13  C   LIG    1        5.696   6.344  -0.955  0.00  0.00    +0.170 A 
ATOM     14  C   LIG    1        7.034   6.278  -1.290  0.00  0.00    -0.020 A 
ATOM     15  C   LIG    1        7.709   7.446  -1.630  0.00  0.00    +0.400 A 
ATOM     16  N   LIG    1        7.088   8.616  -1.632  0.00  0.00    -0.510 NA
ATOM     17  C   LIG    1        5.812   8.724  -1.325  0.00  0.00    +0.350 A 
BRANCH  15  18
ATOM     18  N   LIG    1        9.061   7.385  -1.969  0.00  0.00    -0.330 N 
ATOM     19  C   LIG    1        9.846   8.437  -2.321  0.00  0.00    +0.260 A 
ATOM     20  C   LIG    1       11.087   7.957  -2.566  0.00  0.00    -0.100 A 
ATOM     21  C   LIG    1       11.061   6.571  -2.367  0.00  0.00    +0.270 A 
ATOM     22  N   LIG    1        9.851   6.229  -2.007  0.00  0.00    -0.280 NA
ENDBRANCH  15  18
ENDBRANCH   2  12
BRANCH   1  23
ATOM     23  C   LIG    1        1.777   8.965   0.341  0.00  0.00    +0.280 C 
ATOM     24  C   LIG    1        1.727   9.434   1.796  0.00  0.00    +0.040 C 
BRANCH  23  25
ATOM     25  C   LIG    1        1.032   9.966  -0.544  0.00  0.00    -0.060 C 
ATOM     26  C   LIG    1        0.507  11.241   0.119  0.00  0.00    +0.010 C 
ATOM     27  C   LIG    1       -0.469  10.141  -0.304  0.00  0.00    +0.030 C 
ENDBRANCH  23  25
ENDBRANCH   1  23
TORSDOF 6
