REMARK  Name = ZINCb70000003XJU.0
REMARK                            x       y       z     vdW  Elec       q    Type
REMARK                         _______ _______ _______ _____ _____    ______ ____
ROOT
ATOM      1  C   LIG    1        1.394   2.107   0.000  0.00  0.00    +0.070 C 
ATOM      2  C   LIG    1        2.424   1.415   0.831  0.00  0.00    +0.060 C 
ATOM      3  C   LIG    1        2.312  -0.095   0.895  0.00  0.00    +0.050 C 
ATOM      4  C   LIG    1        0.867  -0.517   1.153  0.00  0.00    +0.030 C 
ATOM      5  C   LIG    1        0.002  -0.004   0.002  0.00  0.00    +0.040 C 
ATOM      6  C   LIG    1        1.733   2.115  -1.503  0.00  0.00    +0.110 C 
ATOM      7  C   LIG    1        0.374   2.257  -2.162  0.00  0.00    +0.500 C 
ATOM      8  O   LIG    1        0.191   2.588  -3.314  0.00  0.00    -0.480 OA
ATOM      9  N   LIG    1       -0.599   1.962  -1.278  0.00  0.00    -0.740 N 
ATOM     10  H   LIG    1       -1.549   2.027  -1.462  0.00  0.00    +0.430 HD
ATOM     11  C   LIG    1       -0.019   1.525   0.010  0.00  0.00    +0.250 C 
ENDROOT
BRANCH   1  12
ATOM     12  N   LIG    1        1.315   3.508   0.437  0.00  0.00    -0.640 N 
ATOM     13  H   LIG    1        0.722   4.024  -0.195  0.00  0.00    +0.440 HD
ATOM     14  H   LIG    1        2.239   3.913   0.438  0.00  0.00    +0.440 HD
ATOM     15  H   LIG    1        0.929   3.548   1.369  0.00  0.00    +0.440 HD
ENDBRANCH   1  12
TORSDOF 1
