REMARK  Name = ZINCqH0000002ZkS.0
REMARK                            x       y       z     vdW  Elec       q    Type
REMARK                         _______ _______ _______ _____ _____    ______ ____
ROOT
ATOM      1  N   LIG    1        3.652   6.328  -0.141  0.00  0.00    -0.450 N 
ENDROOT
BRANCH   1   2
ATOM      2  C   LIG    1        3.697   7.690  -0.376  0.00  0.00    +0.400 A 
ATOM      3  C   LIG    1        2.997   8.256  -1.472  0.00  0.00    -0.170 A 
ATOM      4  C   LIG    1        3.081   9.640  -1.647  0.00  0.00    +0.100 A 
ATOM      5  S   LIG    1        2.136  10.115  -3.051  0.00  0.00    +0.160 S 
ATOM      6  C   LIG    1        1.661   8.459  -3.376  0.00  0.00    -0.180 A 
ATOM      7  C   LIG    1        0.774   8.038  -4.519  0.00  0.00    +0.150 C 
ATOM      8  N   LIG    1        3.815  10.362  -0.791  0.00  0.00    -0.500 NA
ATOM      9  C   LIG    1        4.449   9.790   0.206  0.00  0.00    +0.530 A 
ATOM     10  C   LIG    1        2.170   7.629  -2.486  0.00  0.00    -0.070 A 
ATOM     11  C   LIG    1        1.913   6.144  -2.520  0.00  0.00    +0.120 C 
ATOM     12  N   LIG    1        4.397   8.487   0.418  0.00  0.00    -0.510 NA
ENDBRANCH   1   2
BRANCH   1  14
ATOM     13  C   LIG    1        4.969   4.406   0.614  0.00  0.00    +0.030 C 
ATOM     14  C   LIG    1        4.739   5.912   0.755  0.00  0.00    +0.200 C 
ENDBRANCH   1  14
BRANCH   1  15
ATOM     15  C   LIG    1        2.345   5.928   0.396  0.00  0.00    +0.280 C 
BRANCH  15  16
ATOM     16  C   LIG    1        2.113   6.617   1.716  0.00  0.00    +0.470 C 
ATOM     17  N   LIG    1        1.034   6.301   2.460  0.00  0.00    -0.670 N 
ATOM     18  H   LIG    1        0.447   5.581   2.182  0.00  0.00    +0.410 HD
ATOM     19  O   LIG    1        2.896   7.455   2.109  0.00  0.00    -0.480 OA
BRANCH  17  20
ATOM     20  C   LIG    1        0.762   7.012   3.635  0.00  0.00    +0.190 A 
ATOM     21  C   LIG    1        0.055   6.407   4.666  0.00  0.00    -0.060 A 
ATOM     22  C   LIG    1       -0.213   7.108   5.825  0.00  0.00    +0.070 A 
ATOM     23  C   LIG    1        0.219   8.414   5.962  0.00  0.00    -0.100 A 
ATOM     24  C   LIG    1        0.925   9.024   4.934  0.00  0.00    +0.150 A 
ATOM     25  C   LIG    1        1.197   8.323   3.770  0.00  0.00    -0.010 A 
BRANCH  24  26
ATOM     26  O   LIG    1        1.350  10.307   5.070  0.00  0.00    -0.310 OA
ATOM     27  C   LIG    1        1.034  10.969   6.296  0.00  0.00    +0.250 C 
ENDBRANCH  24  26
ENDBRANCH  17  20
ENDBRANCH  15  16
ENDBRANCH   1  15
TORSDOF 6
