REMARK  Name = ZINCfA000000b9tH.0
REMARK                            x       y       z     vdW  Elec       q    Type
REMARK                         _______ _______ _______ _____ _____    ______ ____
ROOT
ATOM      1  C   LIG    1       -0.016   1.332   0.009  0.00  0.00    -0.350 A 
ATOM      2  C   LIG    1        0.002  -0.004   0.002  0.00  0.00    +0.300 A 
ATOM      3  N   LIG    1        1.208  -0.534  -0.012  0.00  0.00    -0.470 NA
ATOM      4  C   LIG    1        2.209   0.281  -0.018  0.00  0.00    +0.110 A 
ATOM      5  S   LIG    1        1.653   1.897  -0.004  0.00  0.00    +0.170 S 
ENDROOT
BRANCH   4   6
ATOM      6  C   LIG    1        3.658  -0.133  -0.034  0.00  0.00    +0.070 C 
ATOM      7  C   LIG    1        3.943  -1.012  -1.269  0.00  0.00    +0.040 C 
ATOM      8  C   LIG    1        4.952  -2.071  -0.756  0.00  0.00    +0.030 C 
ATOM      9  C   LIG    1        4.440  -2.367   0.676  0.00  0.00    +0.020 C 
ATOM     10  C   LIG    1        3.974  -0.993   1.202  0.00  0.00    +0.040 C 
ENDBRANCH   4   6
BRANCH   1  11
ATOM     11  C   LIG    1       -1.247   2.202   0.020  0.00  0.00    +0.380 C 
BRANCH  11  12
ATOM     12  N   LIG    1       -1.639   2.478   1.409  0.00  0.00    -0.510 N 
ATOM     13  H   LIG    1       -0.886   2.954   1.883  0.00  0.00    +0.430 HD
ATOM     14  H   LIG    1       -1.838   1.609   1.881  0.00  0.00    +0.430 HD
BRANCH  12  15
ATOM     15  C   LIG    1       -2.839   3.326   1.419  0.00  0.00    +0.300 C 
BRANCH  15  17
ATOM     16  C   LIG    1       -3.382   4.846   3.251  0.00  0.00    +0.130 C 
ATOM     17  C   LIG    1       -3.241   3.608   2.844  0.00  0.00    -0.100 C 
ENDBRANCH  15  17
ENDBRANCH  12  15
ENDBRANCH  11  12
ENDBRANCH   1  11
TORSDOF 5
