REMARK  Name = ZINCrD000000Am7A.0
REMARK                            x       y       z     vdW  Elec       q    Type
REMARK                         _______ _______ _______ _____ _____    ______ ____
ROOT
ATOM      1  N   LIG    1       -3.042   0.000  -3.445  0.00  0.00    -0.520 NA
ATOM      2  C   LIG    1       -2.562  -1.235  -4.080  0.00  0.00    +0.200 C 
ATOM      3  C   LIG    1       -3.737  -2.196  -4.274  0.00  0.00    +0.180 C 
ATOM      4  N   LIG    1       -4.765  -1.548  -5.100  0.00  0.00    -0.530 NA
ATOM      5  C   LIG    1       -5.246  -0.313  -4.465  0.00  0.00    +0.180 C 
ATOM      6  C   LIG    1       -4.071   0.648  -4.271  0.00  0.00    +0.180 C 
ENDROOT
BRANCH   1   7
ATOM      7  C   LIG    1       -1.930   0.920  -3.172  0.00  0.00    +0.200 C 
BRANCH   7   9
ATOM      8  O   LIG    1       -1.277  -0.774  -1.664  0.00  0.00    -0.520 OA
ATOM      9  C   LIG    1       -1.022   0.315  -2.132  0.00  0.00    +0.510 C 
ATOM     10  N   LIG    1        0.073   0.985  -1.723  0.00  0.00    -0.610 N 
ATOM     11  C   LIG    1        0.924   0.378  -0.724  0.00  0.00    +0.270 C 
ATOM     12  C   LIG    1        0.435   0.781   0.689  0.00  0.00    +0.010 C 
ATOM     13  C   LIG    1        0.729   2.199   0.946  0.00  0.00    +0.000 C 
ATOM     14  C   LIG    1        0.014   3.168   0.009  0.00  0.00    +0.000 C 
ATOM     15  C   LIG    1        0.821   3.327  -1.256  0.00  0.00    +0.020 C 
ATOM     16  C   LIG    1        0.355   2.309  -2.312  0.00  0.00    +0.260 C 
ENDBRANCH   7   9
ENDBRANCH   1   7
BRANCH   4  17
ATOM     17  C   LIG    1       -5.878  -2.467  -5.372  0.00  0.00    +0.210 C 
BRANCH  17  18
ATOM     18  C   LIG    1       -6.658  -1.977  -6.594  0.00  0.00    +0.190 C 
BRANCH  18  19
ATOM     19  O   LIG    1       -5.814  -2.022  -7.747  0.00  0.00    -0.300 OA
BRANCH  19  20
ATOM     20  C   LIG    1       -6.357  -1.616  -8.925  0.00  0.00    +0.120 A 
ATOM     21  C   LIG    1       -6.992  -2.534  -9.751  0.00  0.00    -0.050 A 
ATOM     22  C   LIG    1       -7.548  -2.117 -10.946  0.00  0.00    +0.040 A 
ATOM     23  C   LIG    1       -7.463  -0.790 -11.324  0.00  0.00    +0.050 A 
ATOM     24  C   LIG    1       -6.827   0.125 -10.506  0.00  0.00    +0.040 A 
ATOM     25 CL   LIG    1       -7.093  -4.202  -9.280  0.00  0.00    -0.040 Cl
ATOM     26  C   LIG    1       -6.273  -0.285  -9.307  0.00  0.00    -0.050 A 
ATOM     27 CL   LIG    1       -5.475   0.865  -8.280  0.00  0.00    -0.040 Cl
ENDBRANCH  19  20
ENDBRANCH  18  19
ENDBRANCH  17  18
ENDBRANCH   4  17
TORSDOF 6
