REMARK  Name = ZINCqH0000008O3Q.0
REMARK                            x       y       z     vdW  Elec       q    Type
REMARK                         _______ _______ _______ _____ _____    ______ ____
ROOT
ATOM      1  C   LIG    1       -4.149   3.811  -0.083  0.00  0.00    -0.340 A 
ATOM      2  C   LIG    1       -5.328   4.428  -0.408  0.00  0.00    +0.340 A 
ATOM      3  N   LIG    1       -5.899   5.044   0.592  0.00  0.00    -0.480 NA
ATOM      4  C   LIG    1       -5.289   5.007   1.744  0.00  0.00    +0.090 A 
ATOM      5  S   LIG    1       -3.839   4.109   1.625  0.00  0.00    +0.230 S 
ENDROOT
BRANCH   1  16
ATOM      6  C   LIG    1       -1.356   4.412   0.950  0.00  0.00    +0.060 C 
ATOM      7  C   LIG    1       -1.493   2.905   0.726  0.00  0.00    +0.210 C 
ATOM      8  C   LIG    1       -0.105   2.241   0.696  0.00  0.00    +0.130 C 
ATOM      9  C   LIG    1       -0.006   1.627  -0.680  0.00  0.00    -0.190 A 
ATOM     10  C   LIG    1        0.990   0.908  -1.300  0.00  0.00    +0.300 A 
ATOM     11  N   LIG    1        0.840   0.472  -2.537  0.00  0.00    -0.490 NA
ATOM     12  C   LIG    1       -0.262   0.707  -3.225  0.00  0.00    +0.280 A 
ATOM     13  C   LIG    1       -1.305   1.421  -2.675  0.00  0.00    -0.030 A 
ATOM     14  C   LIG    1       -1.186   1.901  -1.367  0.00  0.00    +0.190 A 
ATOM     15  N   LIG    1       -2.076   2.637  -0.592  0.00  0.00    -0.550 N 
ATOM     16  C   LIG    1       -3.296   3.045  -0.995  0.00  0.00    +0.610 C 
ATOM     17  O   LIG    1       -3.688   2.777  -2.115  0.00  0.00    -0.500 OA
ENDBRANCH   1  16
BRANCH   4  18
ATOM     18  C   LIG    1       -5.782   5.650   2.978  0.00  0.00    -0.070 A 
ATOM     19  C   LIG    1       -5.051   5.551   4.164  0.00  0.00    +0.070 A 
ATOM     20  C   LIG    1       -5.511   6.153   5.313  0.00  0.00    +0.000 A 
ATOM     21  C   LIG    1       -6.709   6.867   5.306  0.00  0.00    +0.130 A 
ATOM     22  O   LIG    1       -7.328   7.538   6.315  0.00  0.00    -0.300 OA
ATOM     23  C   LIG    1       -8.709   7.742   5.973  0.00  0.00    +0.240 C 
ATOM     24  C   LIG    1       -8.679   7.772   4.427  0.00  0.00    +0.090 C 
ATOM     25  C   LIG    1       -7.436   6.958   4.122  0.00  0.00    -0.180 A 
ATOM     26  C   LIG    1       -6.981   6.369   2.968  0.00  0.00    +0.130 A 
ENDBRANCH   4  18
TORSDOF 2
