REMARK  Name = ZINC550000002omt.0
REMARK                            x       y       z     vdW  Elec       q    Type
REMARK                         _______ _______ _______ _____ _____    ______ ____
ROOT
ATOM      1  C   LIG    1       -0.018   1.468   0.010  0.00  0.00    +0.330 C 
ATOM      2  C   LIG    1       -0.758   1.975  -1.229  0.00  0.00    +0.110 C 
ENDROOT
BRANCH   1   3
ATOM      3  N   LIG    1       -0.706   1.942   1.219  0.00  0.00    -0.640 N 
ATOM      4  H   LIG    1       -1.652   1.592   1.226  0.00  0.00    +0.440 HD
ATOM      5  H   LIG    1       -0.719   2.950   1.224  0.00  0.00    +0.440 HD
ATOM      6  H   LIG    1       -0.217   1.607   2.036  0.00  0.00    +0.440 HD
ENDBRANCH   1   3
BRANCH   1   8
ATOM      7  C   LIG    1        0.018  -1.178  -0.004  0.00  0.00    +0.190 C 
ATOM      8  C   LIG    1        0.002  -0.004   0.002  0.00  0.00    -0.310 C 
ENDBRANCH   1   8
TORSDOF 2
