REMARK  Name = ZINCpe00000gM6PM.0
REMARK                            x       y       z     vdW  Elec       q    Type
REMARK                         _______ _______ _______ _____ _____    ______ ____
ROOT
ATOM      1  C   LIG    1        1.230  -2.068  -0.021  0.00  0.00    -0.690 A 
ATOM      2  C   LIG    1        0.040  -2.774  -0.013  0.00  0.00    +0.190 A 
ATOM      3  C   LIG    1       -1.170  -2.103   0.002  0.00  0.00    +0.020 A 
ATOM      4  C   LIG    1       -1.197  -0.723   0.010  0.00  0.00    +0.070 A 
ATOM      5  C   LIG    1        0.002  -0.004   0.002  0.00  0.00    -0.140 A 
ATOM      6 CL   LIG    1       -2.716   0.118   0.028  0.00  0.00    -0.010 Cl
ATOM      7  C   LIG    1        1.219  -0.689  -0.019  0.00  0.00    +0.220 A 
ENDROOT
BRANCH   1   8
ATOM      8  S   LIG    1        2.765  -2.934  -0.041  0.00  0.00    +2.690 S 
ATOM      9  O   LIG    1        2.506  -4.223   0.499  0.00  0.00    -0.950 OA
ATOM     10  O   LIG    1        3.734  -2.046   0.499  0.00  0.00    -0.940 OA
BRANCH   8  12
ATOM     11  C   LIG    1        3.981  -2.164  -2.330  0.00  0.00    +0.310 C 
ATOM     12  N   LIG    1        3.176  -3.166  -1.628  0.00  0.00    -1.000 NA
ATOM     13  C   LIG    1        2.735  -4.374  -2.330  0.00  0.00    +0.310 C 
ENDBRANCH   8  12
ENDBRANCH   1   8
BRANCH   5  14
ATOM     14  C   LIG    1       -0.018   1.472   0.010  0.00  0.00    +0.510 C 
ATOM     15  O   LIG    1       -1.078   2.065   0.018  0.00  0.00    -0.470 OA
BRANCH  14  16
ATOM     16  O   LIG    1        1.139   2.162   0.003  0.00  0.00    -0.340 OA
BRANCH  16  17
ATOM     17  C   LIG    1        1.044   3.611   0.011  0.00  0.00    +0.300 C 
BRANCH  17  18
ATOM     18  C   LIG    1        2.428   4.205   0.002  0.00  0.00    +0.530 C 
ATOM     19  N   LIG    1        2.587   5.544   0.007  0.00  0.00    -0.580 N 
ATOM     20  C   LIG    1        3.888   6.224   0.004  0.00  0.00    +0.280 C 
ATOM     21  C   LIG    1        3.589   7.679  -0.427  0.00  0.00    +0.060 C 
ATOM     22  C   LIG    1        2.116   7.840   0.014  0.00  0.00    +0.090 C 
ATOM     23  C   LIG    1        1.574   6.427   0.022  0.00  0.00    +0.520 C 
ATOM     24  O   LIG    1        0.398   6.135   0.040  0.00  0.00    -0.480 OA
ATOM     25  O   LIG    1        3.400   3.480  -0.012  0.00  0.00    -0.470 OA
ENDBRANCH  17  18
ENDBRANCH  16  17
ENDBRANCH  14  16
ENDBRANCH   5  14
TORSDOF 6
