REMARK  Name = ZINCpk00000GIYNs.0
REMARK                            x       y       z     vdW  Elec       q    Type
REMARK                         _______ _______ _______ _____ _____    ______ ____
ROOT
ATOM      1  C   LIG    1       -0.013   1.086   0.008  0.00  0.00    +0.150 C 
ENDROOT
BRANCH   1   2
ATOM      2  N   LIG    1       -0.700   1.560   1.217  0.00  0.00    -0.690 NA
ATOM      3  H   LIG    1       -0.784   2.565   1.214  0.00  0.00    +0.350 HD
BRANCH   2   4
ATOM      4  C   LIG    1       -0.016   1.091   2.429  0.00  0.00    +0.260 C 
BRANCH   4   9
ATOM      5  C   LIG    1       -3.363   1.573   6.129  0.00  0.00    +0.380 C 
ATOM      6  N   LIG    1       -2.210   1.800   5.255  0.00  0.00    -0.310 N 
ATOM      7  N   LIG    1       -1.262   2.823   5.390  0.00  0.00    -0.250 NA
ATOM      8  C   LIG    1       -0.384   2.696   4.429  0.00  0.00    +0.230 A 
ATOM      9  C   LIG    1       -0.749   1.596   3.646  0.00  0.00    -0.120 A 
ATOM     10  C   LIG    1       -1.872   1.061   4.178  0.00  0.00    -0.460 A 
BRANCH  10  11
ATOM     11  S   LIG    1       -2.739  -0.349   3.572  0.00  0.00    +2.520 S 
ATOM     12  O   LIG    1       -3.401  -0.871   4.715  0.00  0.00    -0.940 OA
ATOM     13  O   LIG    1       -1.746  -1.105   2.892  0.00  0.00    -0.910 OA
ATOM     14  C   LIG    1       -3.940   0.330   2.395  0.00  0.00    -0.220 C 
ENDBRANCH  10  11
ENDBRANCH   4   9
ENDBRANCH   2   4
ENDBRANCH   1   2
BRANCH   1  15
ATOM     15  C   LIG    1       -0.753   1.593  -1.232  0.00  0.00    +0.230 C 
BRANCH  15  16
ATOM     16  C   LIG    1       -0.111   0.998  -2.487  0.00  0.00    -0.080 C 
ATOM     17  C   LIG    1        1.357   1.423  -2.560  0.00  0.00    +0.010 C 
ATOM     18  C   LIG    1        1.998   0.829  -3.816  0.00  0.00    -0.010 C 
ATOM     19  C   LIG    1        1.911  -0.698  -3.758  0.00  0.00    +0.010 C 
ATOM     20  C   LIG    1        0.443  -1.123  -3.685  0.00  0.00    -0.020 C 
ATOM     21  C   LIG    1       -0.297  -0.616  -4.925  0.00  0.00    +0.010 C 
ATOM     22  C   LIG    1       -0.210   0.910  -4.982  0.00  0.00    -0.020 C 
ATOM     23  C   LIG    1        1.258   1.335  -5.055  0.00  0.00    +0.010 C 
ATOM     24  C   LIG    1       -0.198  -0.528  -2.430  0.00  0.00    +0.040 C 
ATOM     25  C   LIG    1       -0.851   1.505  -3.727  0.00  0.00    +0.030 C 
ENDBRANCH  15  16
BRANCH  15  26
ATOM     26  O   LIG    1       -0.672   3.018  -1.285  0.00  0.00    -0.560 OA
ATOM     27  H   LIG    1        0.232   3.360  -1.333  0.00  0.00    +0.370 HD
ENDBRANCH  15  26
ENDBRANCH   1  15
TORSDOF 7
