REMARK  Name = ZINCrH000004sF8Z.1
REMARK                            x       y       z     vdW  Elec       q    Type
REMARK                         _______ _______ _______ _____ _____    ______ ____
ROOT
ATOM      1  C   LIG    1        6.509   1.537   0.047  0.00  0.00    +0.180 C 
ATOM      2  C   LIG    1        6.953   2.976  -0.005  0.00  0.00    +0.140 A 
ATOM      3  N   LIG    1        8.184   3.401   0.059  0.00  0.00    -0.280 NA
ATOM      4  N   LIG    1        8.191   4.797  -0.021  0.00  0.00    -0.310 N 
ATOM      5  C   LIG    1        6.923   5.225  -0.144  0.00  0.00    +0.150 A 
ATOM      6  C   LIG    1        6.471   6.657  -0.269  0.00  0.00    +0.170 C 
ATOM      7  C   LIG    1        6.107   4.104  -0.132  0.00  0.00    -0.300 A 
ENDROOT
BRANCH   4   8
ATOM      8  C   LIG    1        9.329   5.613   0.014  0.00  0.00    +0.140 A 
ATOM      9  C   LIG    1        9.320   6.790   0.751  0.00  0.00    +0.050 A 
ATOM     10  C   LIG    1       10.444   7.592   0.783  0.00  0.00    +0.050 A 
ATOM     11  C   LIG    1       11.578   7.224   0.083  0.00  0.00    +0.080 A 
ATOM     12  C   LIG    1       11.591   6.053  -0.652  0.00  0.00    -0.170 A 
ATOM     13  C   LIG    1       10.472   5.244  -0.684  0.00  0.00    +0.100 A 
BRANCH  12  14
ATOM     14  C   LIG    1       12.829   5.656  -1.413  0.00  0.00    +0.510 C 
ATOM     15  F   LIG    1       12.528   5.558  -2.776  0.00  0.00    -0.170 F 
ATOM     16  F   LIG    1       13.286   4.419  -0.947  0.00  0.00    -0.170 F 
ATOM     17  F   LIG    1       13.823   6.622  -1.223  0.00  0.00    -0.170 F 
ENDBRANCH  12  14
ENDBRANCH   4   8
BRANCH   7  18
ATOM     18  C   LIG    1        4.641   4.089  -0.238  0.00  0.00    +0.450 C 
ATOM     19  O   LIG    1        4.112   3.951  -1.322  0.00  0.00    -0.400 OA
BRANCH  18  20
ATOM     20  C   LIG    1        3.804   4.244   0.987  0.00  0.00    +0.470 C 
ATOM     21  N   LIG    1        2.462   4.318   0.881  0.00  0.00    -0.620 N 
ATOM     22  H   LIG    1        2.042   4.271   0.008  0.00  0.00    +0.430 HD
ATOM     23  O   LIG    1        4.331   4.303   2.079  0.00  0.00    -0.420 OA
BRANCH  21  24
ATOM     24  C   LIG    1        1.684   4.462   2.020  0.00  0.00    +0.260 A 
ATOM     25  N   LIG    1        2.144   4.535   3.230  0.00  0.00    -0.470 NA
ATOM     26  C   LIG    1        1.259   4.670   4.199  0.00  0.00    +0.250 A 
ATOM     27  C   LIG    1       -0.011   4.715   3.788  0.00  0.00    -0.090 A 
ATOM     28  S   LIG    1       -0.023   4.569   2.033  0.00  0.00    +0.140 S 
ENDBRANCH  21  24
ENDBRANCH  18  20
ENDBRANCH   7  18
TORSDOF 5
