REMARK  Name = ZINCrg00000yQSOW.0
REMARK                            x       y       z     vdW  Elec       q    Type
REMARK                         _______ _______ _______ _____ _____    ______ ____
ROOT
ATOM      1  C   LIG    1       -2.506   0.992   0.019  0.00  0.00    +0.550 C 
ATOM      2  N   LIG    1       -2.486  -0.352   0.114  0.00  0.00    -0.540 N 
ATOM      3  C   LIG    1       -1.279  -1.061   0.205  0.00  0.00    +0.340 A 
ATOM      4  N   LIG    1       -0.128  -0.415   0.110  0.00  0.00    -0.470 NA
ATOM      5  C   LIG    1        1.028  -1.046   0.199  0.00  0.00    +0.290 A 
ATOM      6  C   LIG    1        1.084  -2.411   0.396  0.00  0.00    -0.050 A 
ATOM      7  C   LIG    1       -0.100  -3.131   0.510  0.00  0.00    +0.120 A 
ATOM      8  C   LIG    1       -1.298  -2.442   0.404  0.00  0.00    -0.010 A 
ATOM      9  N   LIG    1       -2.519  -3.135   0.489  0.00  0.00    -0.440 N 
ATOM     10  C   LIG    1       -3.045  -3.266  -0.896  0.00  0.00    +0.210 C 
ATOM     11  C   LIG    1       -3.790  -1.951  -1.200  0.00  0.00    +0.010 C 
ATOM     12  C   LIG    1       -3.505  -2.259   1.181  0.00  0.00    +0.230 C 
ATOM     13  C   LIG    1       -3.735  -1.145   0.119  0.00  0.00    +0.220 C 
ATOM     14  O   LIG    1       -1.464   1.612  -0.053  0.00  0.00    -0.450 OA
ENDROOT
BRANCH   1  21
ATOM     15  C   LIG    1       -8.403   5.975   1.204  0.00  0.00    +0.380 C 
ATOM     16  N   LIG    1       -7.352   4.994   0.923  0.00  0.00    -0.920 N 
ATOM     17  C   LIG    1       -7.437   3.929   0.113  0.00  0.00    +0.540 C 
ATOM     18  C   LIG    1       -6.250   3.070  -0.024  0.00  0.00    -0.090 A 
ATOM     19  C   LIG    1       -6.063   1.908  -0.792  0.00  0.00    +0.120 A 
ATOM     20  C   LIG    1       -4.858   1.248  -0.777  0.00  0.00    +0.090 A 
ATOM     21  C   LIG    1       -3.799   1.713   0.004  0.00  0.00    -0.100 A 
ATOM     22  C   LIG    1       -3.972   2.872   0.770  0.00  0.00    +0.220 A 
ATOM     23  C   LIG    1       -5.172   3.522   0.748  0.00  0.00    -0.620 A 
ATOM     24  O   LIG    1       -8.463   3.681  -0.489  0.00  0.00    -0.460 OA
ATOM     25  S   LIG    1       -5.801   4.973   1.546  0.00  0.00    +2.660 S 
ATOM     26  O   LIG    1       -5.902   4.694   2.935  0.00  0.00    -0.910 OA
ATOM     27  O   LIG    1       -5.109   6.091   1.006  0.00  0.00    -0.910 OA
ENDBRANCH   1  21
TORSDOF 1
