REMARK  Name = ZINC580000002pGF.0
REMARK                            x       y       z     vdW  Elec       q    Type
REMARK                         _______ _______ _______ _____ _____    ______ ____
ROOT
ATOM      1  C   LIG    1       -2.436   0.976   0.019  0.00  0.00    +0.500 C 
ATOM      2  O   LIG    1       -3.504   1.573   0.027  0.00  0.00    -0.700 OA
ATOM      3  O   LIG    1       -2.419  -0.248   0.012  0.00  0.00    -0.700 OA
ENDROOT
BRANCH   1   5
ATOM      4  C   LIG    1       -0.013   1.076   0.008  0.00  0.00    +0.000 C 
ATOM      5  C   LIG    1       -1.175   1.726   0.017  0.00  0.00    -0.110 C 
ENDBRANCH   1   5
TORSDOF 1
