REMARK  Name = ZINCtV00000qrlar.0
REMARK                            x       y       z     vdW  Elec       q    Type
REMARK                         _______ _______ _______ _____ _____    ______ ____
ROOT
ATOM      1  N   LIG    1       -1.090  -0.832   0.008  0.00  0.00    -0.430 N 
ATOM      2  C   LIG    1        0.002  -0.004   0.002  0.00  0.00    +0.160 A 
ATOM      3  N   LIG    1        1.069  -0.768  -0.018  0.00  0.00    -0.280 NA
ATOM      4  N   LIG    1        0.727  -2.007  -0.016  0.00  0.00    -0.270 NA
ATOM      5  C   LIG    1       -0.582  -2.113  -0.004  0.00  0.00    +0.290 A 
ENDROOT
BRANCH   5   6
ATOM      6  C   LIG    1       -1.362  -3.367  -0.003  0.00  0.00    -0.120 A 
ATOM      7  C   LIG    1       -2.715  -3.480   0.008  0.00  0.00    +0.260 A 
ATOM      8  N   LIG    1       -3.066  -4.799   0.004  0.00  0.00    -0.580 N 
ATOM      9  H   LIG    1       -3.978  -5.131   0.009  0.00  0.00    +0.420 HD
ATOM     10  C   LIG    1       -1.939  -5.592  -0.011  0.00  0.00    +0.090 A 
ATOM     11  C   LIG    1       -1.743  -6.970  -0.021  0.00  0.00    -0.010 A 
ATOM     12  C   LIG    1       -0.465  -7.482  -0.035  0.00  0.00    +0.040 A 
ATOM     13  C   LIG    1        0.636  -6.637  -0.041  0.00  0.00    -0.010 A 
ATOM     14  C   LIG    1        0.464  -5.271  -0.031  0.00  0.00    +0.080 A 
ATOM     15  C   LIG    1       -0.824  -4.737  -0.022  0.00  0.00    -0.070 A 
ENDBRANCH   5   6
BRANCH   1  20
ATOM     16 CL   LIG    1       -6.778   0.753   0.067  0.00  0.00    -0.050 Cl
ATOM     17  C   LIG    1       -5.106   0.288   0.050  0.00  0.00    -0.020 A 
ATOM     18  C   LIG    1       -4.314   0.597  -1.042  0.00  0.00    +0.060 A 
ATOM     19  C   LIG    1       -2.983   0.227  -1.058  0.00  0.00    +0.060 A 
ATOM     20  C   LIG    1       -2.440  -0.455   0.022  0.00  0.00    +0.110 A 
ATOM     21  C   LIG    1       -3.238  -0.768   1.114  0.00  0.00    +0.040 A 
ATOM     22  C   LIG    1       -4.567  -0.392   1.128  0.00  0.00    +0.050 A 
ENDBRANCH   1  20
BRANCH   2  23
ATOM     23  S   LIG    1       -0.022   1.758   0.012  0.00  0.00    +0.020 S 
BRANCH  23  24
ATOM     24  C   LIG    1        1.756   2.096  -0.004  0.00  0.00    +0.160 C 
BRANCH  24  25
ATOM     25  C   LIG    1        1.984   3.586   0.002  0.00  0.00    -0.090 A 
ATOM     26  C   LIG    1        2.083   4.275  -1.192  0.00  0.00    +0.030 A 
ATOM     27  C   LIG    1        2.287   5.642  -1.187  0.00  0.00    +0.010 A 
ATOM     28  C   LIG    1        2.403   6.319   0.013  0.00  0.00    +0.010 A 
ATOM     29  C   LIG    1        2.309   5.629   1.208  0.00  0.00    +0.010 A 
ATOM     30  C   LIG    1        2.100   4.263   1.202  0.00  0.00    +0.030 A 
ENDBRANCH  24  25
ENDBRANCH  23  24
ENDBRANCH   2  23
TORSDOF 5
