REMARK  Name = ZINCpe00000RcT44.0
REMARK                            x       y       z     vdW  Elec       q    Type
REMARK                         _______ _______ _______ _____ _____    ______ ____
ROOT
ATOM      1  C   LIG    1       -1.149   0.494  -1.249  0.00  0.00    +0.160 C 
ATOM      2  C   LIG    1       -2.499   0.328  -0.502  0.00  0.00    +0.070 C 
ATOM      3  C   LIG    1       -2.249   1.061   0.832  0.00  0.00    +0.230 C 
ATOM      4  N   LIG    1       -0.792   1.103   1.043  0.00  0.00    -0.600 N 
ATOM      5  C   LIG    1       -0.162   1.677   2.087  0.00  0.00    +0.580 C 
ATOM      6  O   LIG    1        1.050   1.751   2.100  0.00  0.00    -0.520 OA
ATOM      7  C   LIG    1       -0.135   0.410  -0.080  0.00  0.00    +0.250 C 
ENDROOT
BRANCH   5   8
ATOM      8  C   LIG    1       -0.949   2.219   3.220  0.00  0.00    -0.060 A 
ATOM      9  C   LIG    1       -2.306   2.526   3.070  0.00  0.00    -0.050 A 
ATOM     10  C   LIG    1       -3.007   3.024   4.149  0.00  0.00    +0.310 A 
ATOM     11  N   LIG    1       -2.414   3.222   5.311  0.00  0.00    -0.530 NA
ATOM     12  C   LIG    1       -1.132   2.951   5.498  0.00  0.00    +0.400 A 
ATOM     13  C   LIG    1       -0.356   2.441   4.463  0.00  0.00    -0.040 A 
BRANCH  12  14
ATOM     14  N   LIG    1       -0.556   3.177   6.743  0.00  0.00    -0.620 N 
ATOM     15  C   LIG    1       -1.389   3.609   7.868  0.00  0.00    +0.280 C 
ATOM     16  C   LIG    1        0.884   2.984   6.930  0.00  0.00    +0.290 C 
ENDBRANCH  12  14
ENDBRANCH   5   8
BRANCH   1  18
ATOM     17  C   LIG    1       -0.168   1.803  -3.001  0.00  0.00    +0.210 C 
ATOM     18  O   LIG    1       -1.076   1.765  -1.899  0.00  0.00    -0.370 OA
ENDBRANCH   1  18
BRANCH   3  19
ATOM     19  C   LIG    1       -2.919   0.300   1.978  0.00  0.00    +0.310 C 
BRANCH  19  20
ATOM     20  N   LIG    1       -4.374   0.384   1.835  0.00  0.00    -0.370 N 
ATOM     21  C   LIG    1       -5.224  -0.661   1.748  0.00  0.00    +0.250 A 
ATOM     22  C   LIG    1       -6.477  -0.167   1.627  0.00  0.00    -0.170 A 
ATOM     23  C   LIG    1       -6.391   1.234   1.641  0.00  0.00    +0.340 A 
ATOM     24  N   LIG    1       -5.128   1.563   1.772  0.00  0.00    -0.350 NA
BRANCH  23  25
ATOM     25  N   LIG    1       -7.467   2.125   1.540  0.00  0.00    -0.850 N 
ATOM     26  H   LIG    1       -7.307   3.082   1.559  0.00  0.00    +0.400 HD
ATOM     27  H   LIG    1       -8.371   1.786   1.450  0.00  0.00    +0.410 HD
ENDBRANCH  23  25
ENDBRANCH  19  20
ENDBRANCH   3  19
TORSDOF 6
