REMARK  Name = ZINCrg000000rNLj.0
REMARK                            x       y       z     vdW  Elec       q    Type
REMARK                         _______ _______ _______ _____ _____    ______ ____
ROOT
ATOM      1  N   LIG    1        1.737   1.333  -2.057  0.00  0.00    -1.010 NA
ATOM      2  C   LIG    1        2.585   2.120  -1.151  0.00  0.00    +0.290 C 
ATOM      3  C   LIG    1        2.342   1.643   0.286  0.00  0.00    +0.290 C 
ATOM      4  N   LIG    1        2.442   0.178   0.318  0.00  0.00    -0.600 N 
ATOM      5  C   LIG    1        1.594  -0.610  -0.588  0.00  0.00    +0.270 C 
ATOM      6  C   LIG    1        3.296  -0.434   1.163  0.00  0.00    +0.570 C 
ATOM      7  O   LIG    1        4.060   0.228   1.839  0.00  0.00    -0.520 OA
ATOM      8  C   LIG    1        1.837  -0.133  -2.025  0.00  0.00    +0.290 C 
ENDROOT
BRANCH   6   9
ATOM      9  C   LIG    1        3.304  -1.907   1.266  0.00  0.00    -0.110 A 
ATOM     10  C   LIG    1        4.515  -2.596   1.357  0.00  0.00    +0.110 A 
ATOM     11  C   LIG    1        4.518  -3.972   1.454  0.00  0.00    +0.030 A 
ATOM     12  C   LIG    1        3.322  -4.671   1.462  0.00  0.00    +0.090 A 
ATOM     13  C   LIG    1        2.115  -3.992   1.373  0.00  0.00    +0.070 A 
ATOM     14  F   LIG    1        0.952  -4.680   1.381  0.00  0.00    -0.120 F 
ATOM     15  F   LIG    1        3.332  -6.019   1.557  0.00  0.00    -0.120 F 
ATOM     16  C   LIG    1        2.100  -2.615   1.280  0.00  0.00    +0.050 A 
ENDBRANCH   6   9
BRANCH   1  17
ATOM     17  S   LIG    1        0.692   2.084  -3.099  0.00  0.00    +2.780 S 
ATOM     18  O   LIG    1        0.462   1.171  -4.164  0.00  0.00    -0.970 OA
ATOM     19  O   LIG    1        1.197   3.397  -3.297  0.00  0.00    -0.970 OA
BRANCH  17  23
ATOM     20  C   LIG    1       -2.823   5.135  -0.997  0.00  0.00    +0.070 C 
ATOM     21  C   LIG    1       -2.408   4.003  -1.939  0.00  0.00    +0.140 C 
ATOM     22  C   LIG    1       -1.043   3.454  -1.509  0.00  0.00    +0.270 C 
ATOM     23  N   LIG    1       -0.753   2.253  -2.308  0.00  0.00    -1.010 NA
ATOM     24  C   LIG    1       -1.787   1.209  -2.389  0.00  0.00    +0.270 C 
ATOM     25  C   LIG    1       -3.114   1.866  -2.772  0.00  0.00    +0.140 C 
ATOM     26  C   LIG    1       -4.243   0.838  -2.671  0.00  0.00    +0.070 C 
ATOM     27  O   LIG    1       -3.377   2.954  -1.883  0.00  0.00    -0.370 OA
ENDBRANCH  17  23
ENDBRANCH   1  17
TORSDOF 3
