REMARK  Name = ZINCb70000002yvw.2
REMARK                            x       y       z     vdW  Elec       q    Type
REMARK                         _______ _______ _______ _____ _____    ______ ____
ROOT
ATOM      1  C   LIG    1        0.690   5.087   1.348  0.00  0.00    +0.180 C 
ENDROOT
BRANCH   1   2
ATOM      2  N   LIG    1        2.064   5.595   1.458  0.00  0.00    -0.690 NA
ATOM      3  H   LIG    1        2.645   5.231   0.717  0.00  0.00    +0.350 HD
BRANCH   2   4
ATOM      4  C   LIG    1        2.083   7.064   1.470  0.00  0.00    +0.190 C 
BRANCH   4   5
ATOM      5  C   LIG    1        3.528   7.554   1.585  0.00  0.00    +0.180 C 
BRANCH   5   7
ATOM      6  C   LIG    1        5.623   7.587   0.421  0.00  0.00    +0.200 C 
ATOM      7  O   LIG    1        4.255   7.175   0.414  0.00  0.00    -0.400 OA
ENDBRANCH   5   7
ENDBRANCH   4   5
ENDBRANCH   2   4
ENDBRANCH   1   2
BRANCH   1   8
ATOM      8  C   LIG    1        0.711   3.557   1.340  0.00  0.00    +0.040 C 
BRANCH   8   9
ATOM      9  C   LIG    1       -0.720   3.028   1.225  0.00  0.00    +0.250 C 
BRANCH   9  10
ATOM     10  N   LIG    1       -0.700   1.560   1.217  0.00  0.00    -0.390 N 
ATOM     11  C   LIG    1       -2.078   1.051   1.227  0.00  0.00    +0.310 C 
ATOM     12  C   LIG    1       -0.013   1.086   0.008  0.00  0.00    +0.310 C 
ATOM     13  H   LIG    1       -0.212   1.225   2.034  0.00  0.00    +0.430 HD
ENDBRANCH   9  10
ENDBRANCH   8   9
ENDBRANCH   1   8
TORSDOF 7
