REMARK  Name = ZINCb70000002yvw.1
REMARK                            x       y       z     vdW  Elec       q    Type
REMARK                         _______ _______ _______ _____ _____    ______ ____
ROOT
ATOM      1  N   LIG    1       -2.026   5.481  -1.944  0.00  0.00    -0.510 N 
ATOM      2  H   LIG    1       -1.130   5.944  -1.915  0.00  0.00    +0.430 HD
ATOM      3  H   LIG    1       -2.522   5.653  -1.082  0.00  0.00    +0.430 HD
ENDROOT
BRANCH   1   4
ATOM      4  C   LIG    1       -2.810   6.003  -3.071  0.00  0.00    +0.290 C 
BRANCH   4   5
ATOM      5  C   LIG    1       -3.018   7.509  -2.894  0.00  0.00    +0.200 C 
BRANCH   5   7
ATOM      6  C   LIG    1       -1.840   9.594  -2.815  0.00  0.00    +0.240 C 
ATOM      7  O   LIG    1       -1.757   8.176  -2.969  0.00  0.00    -0.400 OA
ENDBRANCH   5   7
ENDBRANCH   4   5
ENDBRANCH   1   4
BRANCH   1   8
ATOM      8  C   LIG    1       -1.826   4.036  -2.114  0.00  0.00    +0.250 C 
BRANCH   8   9
ATOM      9  C   LIG    1       -1.010   3.492  -0.940  0.00  0.00    +0.040 C 
BRANCH   9  10
ATOM     10  C   LIG    1       -0.802   1.987  -1.117  0.00  0.00    +0.190 C 
BRANCH  10  11
ATOM     11  N   LIG    1       -0.018   1.465   0.010  0.00  0.00    -0.550 NA
ATOM     12  C   LIG    1        1.346   2.010   0.000  0.00  0.00    +0.190 C 
ATOM     13  C   LIG    1        0.002  -0.004   0.002  0.00  0.00    +0.200 C 
ENDBRANCH  10  11
ENDBRANCH   9  10
ENDBRANCH   8   9
ENDBRANCH   1   8
TORSDOF 7
