REMARK  Name = ZINCpe000000V9u7.0
REMARK                            x       y       z     vdW  Elec       q    Type
REMARK                         _______ _______ _______ _____ _____    ______ ____
ROOT
ATOM      1  C   LIG    1        7.366   0.029  -0.440  0.00  0.00    -0.160 A 
ATOM      2  C   LIG    1        7.277   1.419  -0.330  0.00  0.00    +0.110 A 
ATOM      3  C   LIG    1        6.044   2.022  -0.223  0.00  0.00    -0.020 A 
ATOM      4  C   LIG    1        4.887   1.248  -0.223  0.00  0.00    +0.180 A 
ATOM      5  C   LIG    1        4.973  -0.137  -0.326  0.00  0.00    +0.020 A 
ATOM      6  C   LIG    1        6.202  -0.746  -0.440  0.00  0.00    +0.070 A 
ENDROOT
BRANCH   1   9
ATOM      7  N   LIG    1        8.771  -1.962  -0.661  0.00  0.00    -0.720 N 
ATOM      8  H   LIG    1        7.964  -2.500  -0.661  0.00  0.00    +0.410 HD
ATOM      9  C   LIG    1        8.686  -0.621  -0.555  0.00  0.00    +0.570 C 
ATOM     10  O   LIG    1        9.698   0.054  -0.554  0.00  0.00    -0.530 OA
BRANCH   7  11
ATOM     11  C   LIG    1       10.081  -2.607  -0.775  0.00  0.00    +0.370 C 
BRANCH  11  12
ATOM     12  C   LIG    1        9.900  -4.099  -0.879  0.00  0.00    +0.460 C 
ATOM     13  O   LIG    1        8.789  -4.575  -0.860  0.00  0.00    -0.500 OA
BRANCH  12  15
ATOM     14  C   LIG    1       10.721  -6.326  -1.089  0.00  0.00    +0.290 C 
ATOM     15  O   LIG    1       10.971  -4.899  -0.993  0.00  0.00    -0.350 OA
ENDBRANCH  12  15
ENDBRANCH  11  12
ENDBRANCH   7  11
ENDBRANCH   1   9
BRANCH   4  16
ATOM     16  N   LIG    1        3.641   1.861  -0.113  0.00  0.00    -0.660 N 
ATOM     17  H   LIG    1        3.534   2.647   0.446  0.00  0.00    +0.430 HD
ATOM     18  C   LIG    1        2.583   1.363  -0.784  0.00  0.00    +0.580 C 
ATOM     19  O   LIG    1        2.697   0.331  -1.419  0.00  0.00    -0.530 OA
BRANCH  18  20
ATOM     20  C   LIG    1        1.292   2.066  -0.748  0.00  0.00    -0.290 A 
ATOM     21  C   LIG    1        0.226   1.631  -1.533  0.00  0.00    +0.240 A 
ATOM     22  C   LIG    1       -0.981   2.326  -1.478  0.00  0.00    -0.080 A 
ATOM     23  C   LIG    1       -1.110   3.403  -0.661  0.00  0.00    +0.200 A 
ATOM     24  N   LIG    1       -0.079   3.831   0.105  0.00  0.00    -0.600 N 
ATOM     25  H   LIG    1       -0.198   4.606   0.677  0.00  0.00    +0.420 HD
ATOM     26  C   LIG    1       -2.424   4.139  -0.610  0.00  0.00    +0.140 C 
ATOM     27  C   LIG    1        1.110   3.200   0.085  0.00  0.00    +0.540 A 
ATOM     28  O   LIG    1        2.027   3.600   0.782  0.00  0.00    -0.550 OA
ENDBRANCH  18  20
ENDBRANCH   4  16
TORSDOF 6
