REMARK  Name = ZINCtV000002q6hj.0
REMARK                            x       y       z     vdW  Elec       q    Type
REMARK                         _______ _______ _______ _____ _____    ______ ____
ROOT
ATOM      1  C   LIG    1       -0.710   1.562   1.250  0.00  0.00    +0.010 C 
ATOM      2  C   LIG    1        0.019   1.099  -0.012  0.00  0.00    +0.080 C 
ENDROOT
BRANCH   1   3
ATOM      3  C   LIG    1        0.030   1.069   2.467  0.00  0.00    +0.540 C 
ATOM      4  N   LIG    1        1.064   1.779   2.961  0.00  0.00    -0.680 N 
ATOM      5  H   LIG    1        1.280   2.647   2.584  0.00  0.00    +0.410 HD
ATOM      6  O   LIG    1       -0.304   0.033   3.003  0.00  0.00    -0.490 OA
BRANCH   4   7
ATOM      7  C   LIG    1        1.825   1.266   4.016  0.00  0.00    +0.200 A 
ATOM      8  C   LIG    1        2.049  -0.101   4.112  0.00  0.00    +0.030 A 
ATOM      9  C   LIG    1        2.806  -0.604   5.152  0.00  0.00    +0.080 A 
ATOM     10  C   LIG    1        3.331   0.250   6.104  0.00  0.00    +0.010 A 
ATOM     11  C   LIG    1        3.104   1.612   6.014  0.00  0.00    +0.090 A 
ATOM     12  C   LIG    1        2.354   2.122   4.974  0.00  0.00    -0.210 A 
BRANCH  12  13
ATOM     13  C   LIG    1        2.107   3.605   4.878  0.00  0.00    +0.510 C 
ATOM     14  F   LIG    1        0.731   3.854   4.926  0.00  0.00    -0.170 F 
ATOM     15  F   LIG    1        2.626   4.087   3.671  0.00  0.00    -0.180 F 
ATOM     16  F   LIG    1        2.735   4.253   5.947  0.00  0.00    -0.170 F 
ENDBRANCH  12  13
ENDBRANCH   4   7
ENDBRANCH   1   3
BRANCH   1  17
ATOM     17  S   LIG    1       -2.396   0.890   1.255  0.00  0.00    -0.160 S 
BRANCH  17  18
ATOM     18  C   LIG    1       -3.162   1.703  -0.174  0.00  0.00    +0.120 C 
BRANCH  18  23
ATOM     19  C   LIG    1       -6.924   1.499   0.208  0.00  0.00    -0.160 A 
ATOM     20  C   LIG    1       -7.215   0.373  -0.567  0.00  0.00    -0.040 A 
ATOM     21  C   LIG    1       -6.196  -0.305  -1.203  0.00  0.00    +0.000 A 
ATOM     22  C   LIG    1       -4.888   0.130  -1.078  0.00  0.00    -0.040 A 
ATOM     23  C   LIG    1       -4.591   1.241  -0.307  0.00  0.00    -0.090 A 
ATOM     24  C   LIG    1       -3.781  -0.612  -1.781  0.00  0.00    +0.100 C 
ATOM     25  C   LIG    1       -8.639  -0.099  -0.709  0.00  0.00    +0.100 C 
ATOM     26  C   LIG    1       -5.598   1.929   0.334  0.00  0.00    -0.020 A 
ATOM     27  C   LIG    1       -5.274   3.142   1.167  0.00  0.00    +0.100 C 
BRANCH  19  29
ATOM     28  C   LIG    1       -8.781   3.288   0.150  0.00  0.00    +0.080 C 
ATOM     29  C   LIG    1       -8.005   2.228   0.889  0.00  0.00    +0.410 C 
ATOM     30  O   LIG    1       -8.272   1.977   2.045  0.00  0.00    -0.440 OA
ENDBRANCH  19  29
ENDBRANCH  18  23
ENDBRANCH  17  18
ENDBRANCH   1  17
TORSDOF 7
