REMARK  Name = ZINCrH000004ualJ.0
REMARK                            x       y       z     vdW  Elec       q    Type
REMARK                         _______ _______ _______ _____ _____    ______ ____
ROOT
ATOM      1  O   LIG    1        1.323  -1.640  -1.583  0.00  0.00    -0.570 OA
ATOM      2  C   LIG    1        0.921  -1.860  -0.457  0.00  0.00    +0.700 C 
ATOM      3  N   LIG    1        0.917  -3.119   0.024  0.00  0.00    -0.690 N 
ATOM      4  H   LIG    1        0.688  -3.283   0.952  0.00  0.00    +0.410 HD
ATOM      5  N   LIG    1        0.481  -0.844   0.311  0.00  0.00    -0.730 N 
ATOM      6  H   LIG    1        0.161  -1.019   1.210  0.00  0.00    +0.400 HD
ENDROOT
BRANCH   3   7
ATOM      7  C   LIG    1        1.242  -4.186  -0.813  0.00  0.00    +0.200 A 
ATOM      8  C   LIG    1        0.845  -4.167  -2.147  0.00  0.00    +0.010 A 
ATOM      9  C   LIG    1        1.169  -5.216  -2.978  0.00  0.00    +0.100 A 
ATOM     10  C   LIG    1        1.887  -6.306  -2.477  0.00  0.00    -0.150 A 
ATOM     11  C   LIG    1        2.278  -6.324  -1.135  0.00  0.00    +0.060 A 
ATOM     12  C   LIG    1        1.956  -5.269  -0.312  0.00  0.00    -0.030 A 
BRANCH  10  13
ATOM     13  C   LIG    1        2.231  -7.435  -3.363  0.00  0.00    +0.580 C 
ATOM     14  N   LIG    1        3.058  -8.406  -2.928  0.00  0.00    -0.620 N 
ATOM     15  C   LIG    1        3.600  -8.522  -1.566  0.00  0.00    +0.250 C 
ATOM     16  C   LIG    1        4.512  -9.767  -1.541  0.00  0.00    +0.030 C 
ATOM     17  C   LIG    1        4.885  -9.952  -3.035  0.00  0.00    +0.040 C 
ATOM     18  C   LIG    1        3.574  -9.523  -3.739  0.00  0.00    +0.250 C 
ATOM     19  O   LIG    1        1.768  -7.489  -4.486  0.00  0.00    -0.540 OA
ENDBRANCH  10  13
ENDBRANCH   3   7
BRANCH   5  20
ATOM     20  C   LIG    1        0.486   0.525  -0.211  0.00  0.00    +0.330 C 
BRANCH  20  21
ATOM     21  C   LIG    1        0.066   1.495   0.896  0.00  0.00    -0.110 C 
ATOM     22  C   LIG    1        0.892   2.771   1.067  0.00  0.00    +0.050 C 
ATOM     23  C   LIG    1        1.002   1.645   2.097  0.00  0.00    +0.030 C 
BRANCH  21  24
ATOM     24  C   LIG    1       -1.416   1.584   1.153  0.00  0.00    -0.050 A 
ATOM     25  C   LIG    1       -1.912   1.355   2.423  0.00  0.00    +0.000 A 
ATOM     26  C   LIG    1       -3.271   1.442   2.660  0.00  0.00    +0.000 A 
ATOM     27  C   LIG    1       -4.135   1.748   1.626  0.00  0.00    +0.000 A 
ATOM     28  C   LIG    1       -3.640   1.972   0.355  0.00  0.00    +0.000 A 
ATOM     29  C   LIG    1       -2.280   1.890   0.118  0.00  0.00    +0.010 A 
ENDBRANCH  21  24
ENDBRANCH  20  21
ENDBRANCH   5  20
TORSDOF 5
