REMARK  Name = ZINCvU0000000810.0
REMARK                            x       y       z     vdW  Elec       q    Type
REMARK                         _______ _______ _______ _____ _____    ______ ____
ROOT
ATOM      1  C   LIG    1       -4.319   1.483  -0.340  0.00  0.00    +0.150 A 
ATOM      2  N   LIG    1       -4.316   2.783  -0.144  0.00  0.00    -0.290 NA
ATOM      3  N   LIG    1       -5.498   3.258  -0.312  0.00  0.00    -0.240 NA
ATOM      4  C   LIG    1       -6.330   2.290  -0.618  0.00  0.00    +0.220 A 
ATOM      5  N   LIG    1       -5.601   1.124  -0.645  0.00  0.00    -0.450 N 
ENDROOT
BRANCH   4   6
ATOM      6  C   LIG    1       -7.778   2.428  -0.882  0.00  0.00    -0.010 A 
ATOM      7  C   LIG    1       -8.578   1.292  -1.015  0.00  0.00    +0.020 A 
ATOM      8  C   LIG    1       -9.930   1.427  -1.255  0.00  0.00    +0.030 A 
ATOM      9  C   LIG    1      -10.492   2.685  -1.376  0.00  0.00    +0.050 A 
ATOM     10  C   LIG    1       -9.705   3.816  -1.252  0.00  0.00    +0.030 A 
ATOM     11  C   LIG    1       -8.352   3.696  -1.005  0.00  0.00    -0.000 A 
ATOM     12 CL   LIG    1       -7.365   5.116  -0.849  0.00  0.00    -0.030 Cl
ENDBRANCH   4   6
BRANCH   1  13
ATOM     13  S   LIG    1       -2.931   0.405  -0.224  0.00  0.00    +0.080 S 
BRANCH  13  14
ATOM     14  C   LIG    1       -1.640   1.599   0.204  0.00  0.00    +0.100 C 
BRANCH  14  23
ATOM     15  C   LIG    1        1.895  -0.613   0.615  0.00  0.00    +0.050 C 
ATOM     16  C   LIG    1        2.027   0.851   1.040  0.00  0.00    +0.210 C 
ATOM     17  C   LIG    1        3.145   1.525   0.230  0.00  0.00    +0.020 C 
ATOM     18  C   LIG    1        3.179   3.018   0.563  0.00  0.00    +0.020 C 
ATOM     19  C   LIG    1        1.846   3.660   0.172  0.00  0.00    +0.020 C 
ATOM     20  C   LIG    1        0.715   3.011   0.976  0.00  0.00    +0.230 C 
ATOM     21  C   LIG    1        0.890   3.329   2.462  0.00  0.00    +0.020 C 
ATOM     22  N   LIG    1        0.766   1.556   0.774  0.00  0.00    -0.600 N 
ATOM     23  C   LIG    1       -0.324   0.882   0.359  0.00  0.00    +0.540 C 
ATOM     24  O   LIG    1       -0.244  -0.302   0.105  0.00  0.00    -0.520 OA
ENDBRANCH  14  23
ENDBRANCH  13  14
ENDBRANCH   1  13
BRANCH   5  25
ATOM     25  C   LIG    1       -6.097  -0.223  -0.940  0.00  0.00    +0.360 C 
BRANCH  25  26
ATOM     26  C   LIG    1       -6.403  -0.939   0.351  0.00  0.00    -0.130 A 
ATOM     27  C   LIG    1       -5.389  -1.567   1.050  0.00  0.00    +0.040 A 
ATOM     28  C   LIG    1       -5.668  -2.220   2.236  0.00  0.00    +0.010 A 
ATOM     29  C   LIG    1       -6.963  -2.254   2.717  0.00  0.00    +0.030 A 
ATOM     30  C   LIG    1       -7.978  -1.631   2.015  0.00  0.00    +0.010 A 
ATOM     31  C   LIG    1       -7.698  -0.973   0.832  0.00  0.00    +0.020 A 
ENDBRANCH  25  26
ENDBRANCH   5  25
TORSDOF 6
