REMARK  Name = ZINCrg000000r0xI.1
REMARK                            x       y       z     vdW  Elec       q    Type
REMARK                         _______ _______ _______ _____ _____    ______ ____
ROOT
ATOM      1  N   LIG    1        5.427  -1.651  -1.507  0.00  0.00    -0.760 N 
ATOM      2  H   LIG    1        5.923  -1.770  -0.682  0.00  0.00    +0.390 HD
ATOM      3  C   LIG    1        5.965  -2.042  -2.679  0.00  0.00    +0.510 C 
ATOM      4  O   LIG    1        5.345  -1.894  -3.711  0.00  0.00    -0.490 OA
ENDROOT
BRANCH   1   5
ATOM      5  C   LIG    1        4.092  -1.048  -1.479  0.00  0.00    +0.300 C 
BRANCH   5   6
ATOM      6  C   LIG    1        3.721  -0.698  -0.037  0.00  0.00    +0.250 C 
BRANCH   6  12
ATOM      7  C   LIG    1        1.213  -0.680  -0.013  0.00  0.00    +0.170 A 
ATOM      8  C   LIG    1        0.002  -0.004   0.002  0.00  0.00    -0.050 A 
ATOM      9  C   LIG    1       -0.017   1.377   0.010  0.00  0.00    +0.090 A 
ATOM     10  C   LIG    1        1.170   2.086   0.002  0.00  0.00    +0.000 A 
ATOM     11  C   LIG    1        2.379   1.415  -0.013  0.00  0.00    +0.040 A 
ATOM     12  C   LIG    1        2.403   0.034  -0.021  0.00  0.00    -0.180 A 
BRANCH   7  14
ATOM     13  C   LIG    1       -0.029  -2.707  -0.011  0.00  0.00    +0.260 C 
ATOM     14  O   LIG    1        1.234  -2.039  -0.020  0.00  0.00    -0.320 OA
ENDBRANCH   7  14
ENDBRANCH   6  12
BRANCH   6  15
ATOM     15  N   LIG    1        4.764   0.159   0.543  0.00  0.00    -0.640 N 
ATOM     16  H   LIG    1        4.843   1.007   0.001  0.00  0.00    +0.430 HD
ATOM     17  H   LIG    1        5.646  -0.330   0.532  0.00  0.00    +0.430 HD
ATOM     18  H   LIG    1        4.519   0.390   1.494  0.00  0.00    +0.440 HD
ENDBRANCH   6  15
ENDBRANCH   5   6
ENDBRANCH   1   5
BRANCH   3  19
ATOM     19  C   LIG    1        7.338  -2.663  -2.708  0.00  0.00    +0.150 C 
BRANCH  19  20
ATOM     20  C   LIG    1        7.704  -3.008  -4.128  0.00  0.00    -0.270 A 
ATOM     21  C   LIG    1        8.437  -2.142  -4.877  0.00  0.00    +0.220 A 
ATOM     22  N   LIG    1        8.755  -2.476  -6.156  0.00  0.00    -0.280 N 
ATOM     23  N   LIG    1        9.480  -1.807  -7.149  0.00  0.00    -0.490 NA
ATOM     24  C   LIG    1        9.505  -2.579  -8.253  0.00  0.00    +0.450 A 
ATOM     25  C   LIG    1        8.799  -3.751  -7.985  0.00  0.00    -0.240 A 
ATOM     26  O   LIG    1       10.052  -2.300  -9.308  0.00  0.00    -0.630 OA
ATOM     27  C   LIG    1        8.335  -3.676  -6.674  0.00  0.00    +0.250 A 
ATOM     28  N   LIG    1        7.614  -4.522  -5.928  0.00  0.00    -0.500 NA
ATOM     29  C   LIG    1        8.891  -0.828  -4.297  0.00  0.00    +0.130 C 
ATOM     30  C   LIG    1        7.297  -4.225  -4.686  0.00  0.00    +0.200 A 
ATOM     31  C   LIG    1        6.489  -5.196  -3.865  0.00  0.00    +0.120 C 
ENDBRANCH  19  20
ENDBRANCH   3  19
TORSDOF 7
