REMARK  Name = ZINCvU0000000CpS.0
REMARK                            x       y       z     vdW  Elec       q    Type
REMARK                         _______ _______ _______ _____ _____    ______ ____
ROOT
ATOM      1  O   LIG    1        7.136   1.386  -0.051  0.00  0.00    -0.480 OA
ATOM      2  C   LIG    1        7.176   0.171  -0.066  0.00  0.00    +0.580 C 
ATOM      3  N   LIG    1        6.032  -0.542  -0.067  0.00  0.00    -0.580 N 
ATOM      4  H   LIG    1        6.065  -1.511  -0.079  0.00  0.00    +0.390 HD
ENDROOT
BRANCH   2   5
ATOM      5  C   LIG    1        8.480  -0.525  -0.083  0.00  0.00    -0.070 A 
ATOM      6  C   LIG    1        8.563  -1.907   0.018  0.00  0.00    +0.020 A 
ATOM      7  C   LIG    1        9.822  -2.526  -0.009  0.00  0.00    +0.200 A 
ATOM      8  N   LIG    1       10.940  -1.840  -0.114  0.00  0.00    -0.450 NA
ATOM      9  C   LIG    1       10.955  -0.510  -0.210  0.00  0.00    +0.130 A 
ATOM     10  C   LIG    1       12.167   0.197  -0.322  0.00  0.00    +0.050 A 
ATOM     11  C   LIG    1       12.150   1.554  -0.418  0.00  0.00    +0.030 A 
ATOM     12  C   LIG    1       10.951   2.261  -0.407  0.00  0.00    +0.020 A 
ATOM     13  C   LIG    1        9.757   1.611  -0.301  0.00  0.00    +0.060 A 
ATOM     14  C   LIG    1        9.737   0.216  -0.200  0.00  0.00    -0.060 A 
BRANCH   7  15
ATOM     15  C   LIG    1        9.895  -4.003   0.092  0.00  0.00    -0.060 A 
ATOM     16  C   LIG    1        8.727  -4.755   0.211  0.00  0.00    +0.020 A 
ATOM     17  C   LIG    1        8.801  -6.130   0.300  0.00  0.00    +0.010 A 
ATOM     18  C   LIG    1       10.032  -6.762   0.282  0.00  0.00    +0.030 A 
ATOM     19  C   LIG    1       11.194  -6.021   0.171  0.00  0.00    +0.010 A 
ATOM     20  C   LIG    1       11.132  -4.645   0.075  0.00  0.00    +0.070 A 
ENDBRANCH   7  15
ENDBRANCH   2   5
BRANCH   3  21
ATOM     21  N   LIG    1        4.796   0.118  -0.052  0.00  0.00    -0.180 NA
ATOM     22  C   LIG    1        3.694  -0.569  -0.053  0.00  0.00    +0.240 C 
BRANCH  22  23
ATOM     23  C   LIG    1        2.394   0.125  -0.036  0.00  0.00    +0.190 A 
ATOM     24  N   LIG    1        2.367   1.446  -0.021  0.00  0.00    -0.430 NA
ATOM     25  C   LIG    1        1.211   2.115  -0.006  0.00  0.00    +0.130 A 
ATOM     26  C   LIG    1        1.189   3.521   0.011  0.00  0.00    +0.050 A 
ATOM     27  C   LIG    1       -0.004   4.177   0.026  0.00  0.00    +0.030 A 
ATOM     28  C   LIG    1       -1.209   3.478   0.025  0.00  0.00    +0.020 A 
ATOM     29  C   LIG    1       -1.227   2.116   0.015  0.00  0.00    +0.030 A 
ATOM     30  C   LIG    1       -0.017   1.406  -0.006  0.00  0.00    -0.090 A 
ATOM     31  C   LIG    1        0.002  -0.004  -0.023  0.00  0.00    +0.090 A 
ATOM     32  C   LIG    1        1.209  -0.634  -0.038  0.00  0.00    -0.010 A 
ENDBRANCH  22  23
ENDBRANCH   3  21
TORSDOF 4
