REMARK  Name = ZINCvU0000000Hea.0
REMARK                            x       y       z     vdW  Elec       q    Type
REMARK                         _______ _______ _______ _____ _____    ______ ____
ROOT
ATOM      1  S   LIG    1        1.270   7.961  -0.834  0.00  0.00    +0.070 S 
ENDROOT
BRANCH   1   2
ATOM      2  C   LIG    1        1.354   6.206  -0.701  0.00  0.00    +0.070 A 
ATOM      3  C   LIG    1        2.493   5.582  -0.139  0.00  0.00    -0.060 A 
ATOM      4  C   LIG    1        3.594   6.304   0.333  0.00  0.00    +0.050 A 
ATOM      5  C   LIG    1        4.657   5.632   0.862  0.00  0.00    +0.050 A 
ATOM      6  C   LIG    1        4.662   4.242   0.938  0.00  0.00    +0.050 A 
ATOM      7  C   LIG    1        3.603   3.510   0.486  0.00  0.00    +0.050 A 
ATOM      8  C   LIG    1        2.496   4.167  -0.056  0.00  0.00    -0.060 A 
ATOM      9  C   LIG    1        1.361   3.475  -0.551  0.00  0.00    +0.150 A 
ATOM     10  N   LIG    1        0.357   4.172  -1.054  0.00  0.00    -0.240 NA
ATOM     11  N   LIG    1        0.353   5.451  -1.124  0.00  0.00    -0.270 NA
BRANCH   9  12
ATOM     12  C   LIG    1        1.300   1.997  -0.500  0.00  0.00    -0.050 A 
ATOM     13  C   LIG    1        1.699   1.319   0.653  0.00  0.00    +0.030 A 
ATOM     14  C   LIG    1        1.639  -0.059   0.694  0.00  0.00    +0.010 A 
ATOM     15  C   LIG    1        1.185  -0.768  -0.404  0.00  0.00    +0.030 A 
ATOM     16  C   LIG    1        0.789  -0.101  -1.549  0.00  0.00    +0.010 A 
ATOM     17  C   LIG    1        0.844   1.276  -1.603  0.00  0.00    +0.050 A 
ENDBRANCH   9  12
ENDBRANCH   1   2
BRANCH   1  18
ATOM     18  C   LIG    1       -0.361   8.140  -1.600  0.00  0.00    +0.120 C 
BRANCH  18  20
ATOM     19  O   LIG    1        0.155  10.440  -1.484  0.00  0.00    -0.490 OA
ATOM     20  C   LIG    1       -0.657   9.602  -1.816  0.00  0.00    +0.540 C 
ATOM     21  N   LIG    1       -1.823   9.978  -2.377  0.00  0.00    -0.660 N 
ATOM     22  H   LIG    1       -2.505   9.315  -2.568  0.00  0.00    +0.420 HD
BRANCH  21  23
ATOM     23  C   LIG    1       -2.050  11.324  -2.684  0.00  0.00    +0.230 A 
ATOM     24  C   LIG    1       -0.980  12.200  -2.804  0.00  0.00    +0.050 A 
ATOM     25  C   LIG    1       -1.207  13.528  -3.113  0.00  0.00    +0.160 A 
ATOM     26  C   LIG    1       -2.498  13.987  -3.292  0.00  0.00    -0.060 A 
ATOM     27  C   LIG    1       -3.568  13.118  -3.167  0.00  0.00    +0.170 A 
ATOM     28  C   LIG    1       -3.347  11.789  -2.864  0.00  0.00    -0.140 A 
ATOM     29 BR   LIG    1       -4.810  10.602  -2.692  0.00  0.00    -0.000 Br
BRANCH  26  30
ATOM     30  N   LIG    1       -2.738  15.411  -3.617  0.00  0.00    +0.030 N 
ATOM     31  O   LIG    1       -1.797  16.177  -3.727  0.00  0.00    -0.150 OA
ATOM     32  O   LIG    1       -3.875  15.817  -3.774  0.00  0.00    -0.160 OA
ENDBRANCH  26  30
ENDBRANCH  21  23
ENDBRANCH  18  20
ENDBRANCH   1  18
TORSDOF 6
