REMARK  Name = ZINCAx00000009uT.0
REMARK                            x       y       z     vdW  Elec       q    Type
REMARK                         _______ _______ _______ _____ _____    ______ ____
ROOT
ATOM      1  N   LIG    1       -6.303   8.038   3.296  0.00  0.00    -0.970 NA
ENDROOT
BRANCH   1   2
ATOM      2  S   LIG    1       -7.267   6.936   4.069  0.00  0.00    +2.600 S 
ATOM      3  O   LIG    1       -6.460   5.769   4.162  0.00  0.00    -0.950 OA
ATOM      4  O   LIG    1       -8.472   6.934   3.316  0.00  0.00    -0.950 OA
ATOM      5  C   LIG    1       -7.545   7.650   5.713  0.00  0.00    -0.280 C 
ENDBRANCH   1   2
BRANCH   1   6
ATOM      6  C   LIG    1       -4.845   7.928   3.388  0.00  0.00    +0.330 C 
BRANCH   6  11
ATOM      7  N   LIG    1       -2.287   6.285   1.121  0.00  0.00    -0.530 NA
ATOM      8  C   LIG    1       -2.574   7.079  -0.083  0.00  0.00    +0.140 C 
ATOM      9  C   LIG    1       -4.087   7.282  -0.205  0.00  0.00    +0.230 C 
ATOM     10  O   LIG    1       -4.576   7.907   0.985  0.00  0.00    -0.380 OA
ATOM     11  C   LIG    1       -4.314   7.160   2.177  0.00  0.00    +0.160 C 
ATOM     12  C   LIG    1       -2.804   6.956   2.323  0.00  0.00    +0.170 C 
BRANCH   7  13
ATOM     13  C   LIG    1       -0.847   6.019   1.245  0.00  0.00    +0.230 C 
BRANCH  13  15
ATOM     14  C   LIG    1        0.111   5.649  -0.985  0.00  0.00    +0.040 C 
ATOM     15  C   LIG    1       -0.404   5.122   0.118  0.00  0.00    -0.080 C 
BRANCH  15  16
ATOM     16  C   LIG    1       -0.542   3.656   0.242  0.00  0.00    -0.050 A 
ATOM     17  C   LIG    1        0.594   2.846   0.274  0.00  0.00    +0.030 A 
ATOM     18  C   LIG    1        0.459   1.478   0.391  0.00  0.00    +0.020 A 
ATOM     19  C   LIG    1       -0.800   0.909   0.475  0.00  0.00    -0.030 A 
ATOM     20  C   LIG    1       -1.931   1.707   0.438  0.00  0.00    +0.020 A 
ATOM     21 CL   LIG    1       -0.962  -0.814   0.621  0.00  0.00    -0.070 Cl
ATOM     22  C   LIG    1       -1.808   3.076   0.327  0.00  0.00    +0.060 A 
ENDBRANCH  15  16
ENDBRANCH  13  15
ENDBRANCH   7  13
ENDBRANCH   6  11
ENDBRANCH   1   6
BRANCH   1  23
ATOM     23  C   LIG    1       -6.909   9.123   2.521  0.00  0.00    +0.360 C 
BRANCH  23  24
ATOM     24  C   LIG    1       -6.992  10.364   3.372  0.00  0.00    +0.490 C 
ATOM     25  N   LIG    1       -7.435  11.520   2.838  0.00  0.00    -0.720 N 
ATOM     26  H   LIG    1       -7.700  11.553   1.906  0.00  0.00    +0.410 HD
ATOM     27  O   LIG    1       -6.661  10.322   4.538  0.00  0.00    -0.530 OA
BRANCH  25  28
ATOM     28  C   LIG    1       -7.516  12.725   3.666  0.00  0.00    +0.250 C 
ATOM     29  C   LIG    1       -8.566  13.677   3.085  0.00  0.00    +0.040 C 
ATOM     30  C   LIG    1       -8.834  14.809   4.079  0.00  0.00    +0.150 C 
ATOM     31  C   LIG    1       -7.503  15.421   4.491  0.00  0.00    +0.070 A 
ATOM     32  C   LIG    1       -6.327  14.795   4.305  0.00  0.00    -0.230 A 
ATOM     33  S   LIG    1       -5.040  15.830   4.910  0.00  0.00    +0.120 S 
ATOM     34  C   LIG    1       -6.190  17.011   5.360  0.00  0.00    +0.050 A 
ATOM     35  C   LIG    1       -5.863  18.330   6.011  0.00  0.00    +0.180 C 
ATOM     36  N   LIG    1       -7.376  16.610   5.063  0.00  0.00    -0.470 NA
ATOM     37  C   LIG    1       -6.155  13.430   3.680  0.00  0.00    +0.110 C 
ENDBRANCH  25  28
ENDBRANCH  23  24
ENDBRANCH   1  23
TORSDOF 9
