REMARK  Name = ZINCvU0000000FoZ.0
REMARK                            x       y       z     vdW  Elec       q    Type
REMARK                         _______ _______ _______ _____ _____    ______ ____
ROOT
ATOM      1  C   LIG    1        4.018   4.066   2.009  0.00  0.00    +0.320 A 
ATOM      2  N   LIG    1        2.848   3.499   1.912  0.00  0.00    -0.250 NA
ATOM      3  N   LIG    1        3.045   2.125   1.722  0.00  0.00    -0.360 N 
ATOM      4  C   LIG    1        4.376   1.903   1.716  0.00  0.00    +0.470 A 
ATOM      5  S   LIG    1        5.147   0.387   1.524  0.00  0.00    -0.590 S 
ATOM      6  N   LIG    1        4.989   3.092   1.887  0.00  0.00    -0.490 N 
ENDROOT
BRANCH   1  10
ATOM      7  C   LIG    1        4.725   8.214   2.602  0.00  0.00    +0.160 A 
ATOM      8  C   LIG    1        3.504   7.785   2.101  0.00  0.00    -0.010 A 
ATOM      9  C   LIG    1        3.271   6.440   1.907  0.00  0.00    +0.130 A 
ATOM     10  C   LIG    1        4.264   5.510   2.215  0.00  0.00    -0.080 A 
ATOM     11  C   LIG    1        5.489   5.945   2.723  0.00  0.00    +0.080 A 
ATOM     12  C   LIG    1        5.717   7.292   2.909  0.00  0.00    -0.070 A 
BRANCH   7  14
ATOM     13  C   LIG    1        6.230   9.913   3.311  0.00  0.00    +0.250 C 
ATOM     14  O   LIG    1        4.951   9.540   2.792  0.00  0.00    -0.310 OA
ENDBRANCH   7  14
ENDBRANCH   1  10
BRANCH   3  15
ATOM     15  C   LIG    1        1.998   1.113   1.566  0.00  0.00    +0.520 C 
BRANCH  15  16
ATOM     16  N   LIG    1        1.416   1.214   0.221  0.00  0.00    -0.550 NA
ATOM     17  C   LIG    1        2.268   0.546  -0.773  0.00  0.00    +0.200 C 
BRANCH  16  18
ATOM     18  C   LIG    1        0.052   0.670   0.195  0.00  0.00    +0.180 C 
ATOM     19  C   LIG    1        0.046  -0.723   0.827  0.00  0.00    -0.030 C 
ATOM     20  C   LIG    1       -1.375  -1.290   0.800  0.00  0.00    +0.010 C 
ATOM     21  C   LIG    1       -2.307  -0.367   1.589  0.00  0.00    +0.000 C 
ATOM     22  C   LIG    1       -2.301   1.026   0.957  0.00  0.00    +0.010 C 
ATOM     23  C   LIG    1       -0.880   1.592   0.984  0.00  0.00    +0.020 C 
ENDBRANCH  16  18
ENDBRANCH  15  16
ENDBRANCH   3  15
BRANCH   6  24
ATOM     24  C   LIG    1        6.436   3.311   1.939  0.00  0.00    +0.340 C 
BRANCH  24  25
ATOM     25  C   LIG    1        6.936   3.075   3.366  0.00  0.00    +0.080 C 
BRANCH  25  26
ATOM     26  C   LIG    1        8.415   3.357   3.433  0.00  0.00    -0.090 A 
ATOM     27  C   LIG    1        9.323   2.341   3.200  0.00  0.00    +0.030 A 
ATOM     28  C   LIG    1       10.680   2.601   3.256  0.00  0.00    +0.010 A 
ATOM     29  C   LIG    1       11.128   3.873   3.557  0.00  0.00    +0.000 A 
ATOM     30  C   LIG    1       10.220   4.888   3.796  0.00  0.00    +0.000 A 
ATOM     31  C   LIG    1        8.863   4.629   3.734  0.00  0.00    +0.000 A 
ENDBRANCH  25  26
ENDBRANCH  24  25
ENDBRANCH   6  24
TORSDOF 8
