REMARK  Name = ZINCkj00000kKAdM.1
REMARK                            x       y       z     vdW  Elec       q    Type
REMARK                         _______ _______ _______ _____ _____    ______ ____
ROOT
ATOM      1  O   LIG    1        1.118   2.318  -2.140  0.00  0.00    -0.480 OA
ATOM      2  C   LIG    1       -0.086   2.179  -2.191  0.00  0.00    +0.480 C 
ATOM      3  N   LIG    1       -0.738   1.580  -1.175  0.00  0.00    -0.610 N 
ATOM      4  C   LIG    1       -2.198   1.399  -1.213  0.00  0.00    +0.270 C 
ATOM      5  C   LIG    1       -2.797   1.960   0.081  0.00  0.00    +0.240 C 
ATOM      6  O   LIG    1       -2.149   1.356   1.205  0.00  0.00    -0.340 OA
ATOM      7  C   LIG    1       -0.742   1.586   1.255  0.00  0.00    +0.060 C 
ATOM      8  C   LIG    1       -0.363   3.019   1.652  0.00  0.00    +0.280 C 
ATOM      9  N   LIG    1       -0.343   2.518   3.045  0.00  0.00    -0.400 N 
ATOM     10  H   LIG    1       -1.234   2.615   3.510  0.00  0.00    +0.440 HD
ATOM     11  C   LIG    1       -0.087   1.140   2.569  0.00  0.00    +0.360 C 
ATOM     12  C   LIG    1       -0.013   1.086   0.008  0.00  0.00    +0.330 C 
ENDROOT
BRANCH   2  13
ATOM     13  C   LIG    1       -0.852   2.676  -3.390  0.00  0.00    +0.400 C 
ATOM     14  F   LIG    1       -1.603   1.627  -3.931  0.00  0.00    -0.180 F 
ATOM     15  F   LIG    1        0.045   3.152  -4.352  0.00  0.00    -0.170 F 
ENDBRANCH   2  13
BRANCH   9  16
ATOM     16  C   LIG    1        0.767   3.067   3.836  0.00  0.00    +0.250 C 
BRANCH  16  17
ATOM     17  C   LIG    1        0.371   4.437   4.389  0.00  0.00    -0.030 C 
ATOM     18  C   LIG    1        0.238   5.454   3.238  0.00  0.00    +0.000 C 
ATOM     19  C   LIG    1        0.788   6.775   3.832  0.00  0.00    +0.020 C 
ATOM     20  C   LIG    1        1.974   6.290   4.702  0.00  0.00    +0.020 C 
ATOM     21  C   LIG    1        1.474   4.968   5.321  0.00  0.00    +0.030 C 
ENDBRANCH  16  17
ENDBRANCH   9  16
TORSDOF 3
