REMARK  Name = ZINCnE000001NiZt.0
REMARK                            x       y       z     vdW  Elec       q    Type
REMARK                         _______ _______ _______ _____ _____    ______ ____
ROOT
ATOM      1  C   LIG    1       -0.637   0.379  -5.893  0.00  0.00    +0.510 C 
ATOM      2  N   LIG    1       -0.079   1.138  -4.930  0.00  0.00    -0.610 N 
ATOM      3  C   LIG    1        1.304   1.616  -5.060  0.00  0.00    +0.260 C 
ATOM      4  C   LIG    1        2.086   1.210  -3.807  0.00  0.00    +0.010 C 
ATOM      5  C   LIG    1        1.357   1.728  -2.565  0.00  0.00    +0.010 C 
ATOM      6  C   LIG    1       -0.037   1.099  -2.490  0.00  0.00    -0.030 C 
ATOM      7  C   LIG    1       -0.843   1.504  -3.729  0.00  0.00    +0.280 C 
ATOM      8  O   LIG    1       -1.780  -0.009  -5.774  0.00  0.00    -0.540 OA
ENDROOT
BRANCH   1   9
ATOM      9  C   LIG    1        0.159   0.012  -7.119  0.00  0.00    +0.050 C 
BRANCH   9  11
ATOM     10  C   LIG    1       -1.880  -0.020  -8.563  0.00  0.00    +0.040 C 
ATOM     11  C   LIG    1       -0.701  -0.848  -8.048  0.00  0.00    +0.050 C 
BRANCH  11  12
ATOM     12  C   LIG    1        0.132  -1.317  -9.213  0.00  0.00    -0.040 A 
ATOM     13  C   LIG    1        0.310  -2.669  -9.435  0.00  0.00    +0.000 A 
ATOM     14  C   LIG    1        1.073  -3.100 -10.504  0.00  0.00    +0.040 A 
ATOM     15  C   LIG    1        1.659  -2.180 -11.352  0.00  0.00    -0.030 A 
ATOM     16  C   LIG    1        1.481  -0.825 -11.130  0.00  0.00    +0.100 A 
ATOM     17  F   LIG    1        2.053   0.077 -11.959  0.00  0.00    -0.140 F 
ATOM     18  C   LIG    1        0.712  -0.394 -10.063  0.00  0.00    -0.020 A 
ENDBRANCH  11  12
ENDBRANCH   9  11
ENDBRANCH   1   9
BRANCH   6  19
ATOM     19  C   LIG    1       -0.753   1.593  -1.232  0.00  0.00    +0.030 C 
BRANCH  19  20
ATOM     20  C   LIG    1       -0.013   1.086   0.008  0.00  0.00    -0.070 C 
BRANCH  20  21
ATOM     21  C   LIG    1       -0.718   1.572   1.248  0.00  0.00    +0.490 C 
ATOM     22  O   LIG    1       -0.287   1.277   2.350  0.00  0.00    -0.710 OA
ATOM     23  O   LIG    1       -1.720   2.260   1.149  0.00  0.00    -0.700 OA
ENDBRANCH  20  21
ENDBRANCH  19  20
ENDBRANCH   6  19
TORSDOF 6
