REMARK  Name = ZINCrD00000efBaQ.0
REMARK                            x       y       z     vdW  Elec       q    Type
REMARK                         _______ _______ _______ _____ _____    ______ ____
ROOT
ATOM      1  N   LIG    1        2.243  -0.395   0.100  0.00  0.00    -0.720 N 
ATOM      2  H   LIG    1        1.333  -0.733   0.098  0.00  0.00    +0.390 HD
ATOM      3  C   LIG    1        3.279  -1.250   0.209  0.00  0.00    +0.520 C 
ATOM      4  O   LIG    1        4.416  -0.827   0.211  0.00  0.00    -0.530 OA
ENDROOT
BRANCH   1   5
ATOM      5  C   LIG    1        2.489   1.044  -0.016  0.00  0.00    +0.230 C 
ATOM      6  C   LIG    1        3.239   1.534   1.225  0.00  0.00    +0.040 C 
ATOM      7  C   LIG    1        3.332   1.319  -1.263  0.00  0.00    +0.050 C 
BRANCH   5  11
ATOM      8  C   LIG    1       -1.242   3.110  -0.334  0.00  0.00    +0.150 A 
ATOM      9  C   LIG    1       -0.389   3.370   0.729  0.00  0.00    -0.090 A 
ATOM     10  C   LIG    1        0.818   2.705   0.827  0.00  0.00    +0.090 A 
ATOM     11  C   LIG    1        1.174   1.772  -0.128  0.00  0.00    -0.160 A 
ATOM     12  C   LIG    1        0.322   1.503  -1.190  0.00  0.00    +0.160 A 
ATOM     13  C   LIG    1       -0.888   2.173  -1.292  0.00  0.00    -0.040 A 
BRANCH   8  15
ATOM     14  C   LIG    1       -2.728   4.719   0.592  0.00  0.00    +0.250 C 
ATOM     15  O   LIG    1       -2.428   3.768  -0.431  0.00  0.00    -0.310 OA
ENDBRANCH   8  15
BRANCH  12  16
ATOM     16  O   LIG    1        0.672   0.585  -2.128  0.00  0.00    -0.480 OA
ATOM     17  H   LIG    1        0.383  -0.315  -1.925  0.00  0.00    +0.390 HD
ENDBRANCH  12  16
ENDBRANCH   5  11
ENDBRANCH   1   5
BRANCH   3  18
ATOM     18  C   LIG    1        3.026  -2.731   0.328  0.00  0.00    +0.050 C 
BRANCH  18  19
ATOM     19  C   LIG    1        4.361  -3.470   0.437  0.00  0.00    +0.030 C 
BRANCH  19  20
ATOM     20  C   LIG    1        4.103  -4.973   0.557  0.00  0.00    +0.300 C 
BRANCH  20  21
ATOM     21  N   LIG    1        5.382  -5.681   0.662  0.00  0.00    -0.600 N 
ATOM     22  C   LIG    1        6.010  -6.106  -0.452  0.00  0.00    +0.650 C 
ATOM     23  O   LIG    1        5.515  -5.903  -1.544  0.00  0.00    -0.560 OA
ATOM     24  C   LIG    1        5.978  -5.926   1.977  0.00  0.00    +0.290 C 
BRANCH  22  25
ATOM     25  O   LIG    1        7.185  -6.756  -0.356  0.00  0.00    -0.360 OA
BRANCH  25  26
ATOM     26  C   LIG    1        7.804  -7.185  -1.597  0.00  0.00    +0.140 C 
ATOM     27  C   LIG    1        6.864  -8.143  -2.332  0.00  0.00    +0.040 C 
ATOM     28  C   LIG    1        9.121  -7.901  -1.290  0.00  0.00    +0.080 C 
ATOM     29  C   LIG    1        8.080  -5.965  -2.478  0.00  0.00    +0.040 C 
ENDBRANCH  25  26
ENDBRANCH  22  25
ENDBRANCH  20  21
ENDBRANCH  19  20
ENDBRANCH  18  19
ENDBRANCH   3  18
TORSDOF 10
