REMARK  Name = ZINCqH0000008pFe.0
REMARK                            x       y       z     vdW  Elec       q    Type
REMARK                         _______ _______ _______ _____ _____    ______ ____
ROOT
ATOM      1  N   LIG    1        0.308   4.127   0.188  0.00  0.00    -0.730 N 
ATOM      2  H   LIG    1       -0.593   3.781   0.280  0.00  0.00    +0.390 HD
ATOM      3  C   LIG    1        1.344   3.277   0.040  0.00  0.00    +0.600 C 
ATOM      4  O   LIG    1        2.474   3.711  -0.075  0.00  0.00    -0.520 OA
ENDROOT
BRANCH   3   5
ATOM      5  C   LIG    1        1.106   1.824   0.016  0.00  0.00    -0.280 A 
ATOM      6  C   LIG    1       -0.091   1.178   0.244  0.00  0.00    +0.300 A 
ATOM      7  N   LIG    1        0.123  -0.141   0.129  0.00  0.00    -0.460 N 
ATOM      8  H   LIG    1       -0.552  -0.829   0.241  0.00  0.00    +0.450 HD
ATOM      9  N   LIG    1        1.467  -0.374  -0.176  0.00  0.00    -0.260 NA
ATOM     10  C   LIG    1        2.096   0.776  -0.254  0.00  0.00    +0.170 A 
BRANCH  10  11
ATOM     11  C   LIG    1        3.533   0.978  -0.558  0.00  0.00    -0.010 A 
ATOM     12  C   LIG    1        3.918   1.863  -1.563  0.00  0.00    +0.080 A 
ATOM     13  C   LIG    1        5.258   2.050  -1.837  0.00  0.00    +0.010 A 
ATOM     14  C   LIG    1        6.217   1.354  -1.125  0.00  0.00    +0.040 A 
ATOM     15  C   LIG    1        5.842   0.469  -0.131  0.00  0.00    +0.020 A 
ATOM     16  C   LIG    1        4.505   0.277   0.157  0.00  0.00    -0.010 A 
ATOM     17 CL   LIG    1        4.034  -0.834   1.406  0.00  0.00    -0.060 Cl
ENDBRANCH  10  11
ENDBRANCH   3   5
BRANCH   1  19
ATOM     18  C   LIG    1        0.914   6.006   1.631  0.00  0.00    +0.040 C 
ATOM     19  C   LIG    1        0.544   5.573   0.211  0.00  0.00    +0.220 C 
BRANCH  19  20
ATOM     20  C   LIG    1       -0.724   6.304  -0.231  0.00  0.00    +0.270 C 
BRANCH  20  21
ATOM     21  C   LIG    1       -1.157   5.787  -1.579  0.00  0.00    -0.150 A 
ATOM     22  C   LIG    1       -2.103   4.784  -1.663  0.00  0.00    +0.040 A 
ATOM     23  C   LIG    1       -2.501   4.310  -2.900  0.00  0.00    +0.010 A 
ATOM     24  C   LIG    1       -1.952   4.839  -4.053  0.00  0.00    +0.040 A 
ATOM     25  C   LIG    1       -1.006   5.843  -3.971  0.00  0.00    -0.010 A 
ATOM     26  C   LIG    1       -0.612   6.323  -2.734  0.00  0.00    +0.110 A 
ATOM     27  F   LIG    1        0.308   7.309  -2.653  0.00  0.00    -0.130 F 
ENDBRANCH  20  21
BRANCH  20  28
ATOM     28  O   LIG    1       -1.763   6.075   0.723  0.00  0.00    -0.540 OA
ATOM     29  H   LIG    1       -1.996   5.143   0.835  0.00  0.00    +0.370 HD
ENDBRANCH  20  28
ENDBRANCH  19  20
ENDBRANCH   1  19
TORSDOF 6
