REMARK  Name = ZINCpe00000gNeR5.0
REMARK                            x       y       z     vdW  Elec       q    Type
REMARK                         _______ _______ _______ _____ _____    ______ ____
ROOT
ATOM      1  O   LIG    1       -0.775  -4.967  -1.035  0.00  0.00    -0.540 OA
ATOM      2  C   LIG    1       -1.236  -3.846  -0.928  0.00  0.00    +0.600 C 
ATOM      3  N   LIG    1       -2.528  -3.679  -0.584  0.00  0.00    -0.700 N 
ATOM      4  H   LIG    1       -2.895  -2.785  -0.499  0.00  0.00    +0.420 HD
ENDROOT
BRANCH   2   5
ATOM      5  C   LIG    1       -0.379  -2.670  -1.175  0.00  0.00    +0.000 A 
ATOM      6  C   LIG    1        0.940  -2.699  -1.529  0.00  0.00    +0.180 A 
ATOM      7  N   LIG    1        1.348  -1.406  -1.658  0.00  0.00    -0.360 N 
ATOM      8  C   LIG    1        2.552  -0.851  -1.990  0.00  0.00    +0.220 A 
ATOM      9  C   LIG    1        2.698   0.489  -2.049  0.00  0.00    +0.020 A 
ATOM     10  C   LIG    1        1.610   1.335  -1.770  0.00  0.00    +0.050 A 
ATOM     11  C   LIG    1        0.407   0.798  -1.439  0.00  0.00    +0.070 A 
ATOM     12  C   LIG    1        0.268  -0.606  -1.380  0.00  0.00    +0.230 A 
ATOM     13  N   LIG    1       -0.763  -1.383  -1.092  0.00  0.00    -0.460 NA
ENDBRANCH   2   5
BRANCH   3  14
ATOM     14  C   LIG    1       -3.378  -4.847  -0.339  0.00  0.00    +0.270 C 
BRANCH  14  15
ATOM     15  C   LIG    1       -4.752  -4.384   0.149  0.00  0.00    +0.180 C 
BRANCH  15  16
ATOM     16  N   LIG    1       -5.337  -3.465  -0.836  0.00  0.00    -0.530 NA
ATOM     17  C   LIG    1       -6.556  -2.834  -0.309  0.00  0.00    +0.160 C 
ATOM     18  C   LIG    1       -7.099  -1.842  -1.342  0.00  0.00    +0.220 C 
ATOM     19  O   LIG    1       -7.333  -2.526  -2.575  0.00  0.00    -0.380 OA
ATOM     20  C   LIG    1       -6.166  -3.152  -3.118  0.00  0.00    +0.220 C 
ATOM     21  C   LIG    1       -5.615  -4.157  -2.103  0.00  0.00    +0.150 C 
ENDBRANCH  15  16
BRANCH  15  22
ATOM     22  C   LIG    1       -5.668  -5.598   0.321  0.00  0.00    -0.060 C 
ATOM     23  C   LIG    1       -5.133  -6.526   1.439  0.00  0.00    +0.010 C 
ATOM     24  C   LIG    1       -5.376  -7.933   0.837  0.00  0.00    +0.210 C 
ATOM     25  O   LIG    1       -5.094  -7.752  -0.568  0.00  0.00    -0.370 OA
ATOM     26  C   LIG    1       -5.641  -6.477  -0.945  0.00  0.00    +0.190 C 
ENDBRANCH  15  22
ENDBRANCH  14  15
ENDBRANCH   3  14
TORSDOF 5
