REMARK  Name = ZINCvU0000000H4F.1
REMARK                            x       y       z     vdW  Elec       q    Type
REMARK                         _______ _______ _______ _____ _____    ______ ____
ROOT
ATOM      1  C   LIG    1       -3.523   3.989  -0.097  0.00  0.00    +0.080 C 
ENDROOT
BRANCH   1   2
ATOM      2  C   LIG    1       -3.784   3.087  -1.276  0.00  0.00    -0.090 A 
ATOM      3  C   LIG    1       -3.925   3.626  -2.541  0.00  0.00    +0.040 A 
ATOM      4  C   LIG    1       -4.161   2.799  -3.623  0.00  0.00    +0.000 A 
ATOM      5  C   LIG    1       -4.263   1.433  -3.439  0.00  0.00    +0.020 A 
ATOM      6  C   LIG    1       -4.127   0.894  -2.173  0.00  0.00    +0.000 A 
ATOM      7  C   LIG    1       -3.888   1.721  -1.091  0.00  0.00    +0.060 A 
ENDBRANCH   1   2
BRANCH   1  10
ATOM      8  N   LIG    1       -5.769   4.623   0.722  0.00  0.00    -0.660 N 
ATOM      9  H   LIG    1       -5.873   3.716   1.052  0.00  0.00    +0.420 HD
ATOM     10  C   LIG    1       -4.657   4.971   0.045  0.00  0.00    +0.540 C 
ATOM     11  O   LIG    1       -4.569   6.075  -0.450  0.00  0.00    -0.490 OA
BRANCH   8  16
ATOM     12  C   LIG    1       -7.452   7.841   1.366  0.00  0.00    -0.150 A 
ATOM     13  C   LIG    1       -8.789   7.431   1.397  0.00  0.00    +0.050 A 
ATOM     14  C   LIG    1       -9.106   6.102   1.205  0.00  0.00    +0.030 A 
ATOM     15  C   LIG    1       -8.108   5.173   0.977  0.00  0.00    +0.020 A 
ATOM     16  C   LIG    1       -6.775   5.569   0.949  0.00  0.00    +0.130 A 
ATOM     17  C   LIG    1       -6.444   6.900   1.140  0.00  0.00    +0.090 A 
BRANCH  12  19
ATOM     18  C   LIG    1       -8.199  10.269   1.814  0.00  0.00    +0.080 C 
ATOM     19  C   LIG    1       -7.109   9.258   1.571  0.00  0.00    +0.390 C 
ATOM     20  O   LIG    1       -5.949   9.611   1.544  0.00  0.00    -0.450 OA
ENDBRANCH  12  19
ENDBRANCH   8  16
ENDBRANCH   1  10
BRANCH   1  21
ATOM     21  S   LIG    1       -1.974   4.889  -0.357  0.00  0.00    +0.090 S 
BRANCH  21  22
ATOM     22  C   LIG    1       -0.833   3.547  -0.337  0.00  0.00    +0.250 A 
ATOM     23  N   LIG    1       -1.136   2.277  -0.176  0.00  0.00    -0.520 NA
ATOM     24  C   LIG    1       -0.018   1.539  -0.211  0.00  0.00    +0.280 A 
ATOM     25  N   LIG    1        1.010   2.333  -0.404  0.00  0.00    -0.290 NA
ATOM     26  N   LIG    1        0.506   3.641  -0.489  0.00  0.00    -0.460 N 
ATOM     27  H   LIG    1        1.019   4.452  -0.630  0.00  0.00    +0.450 HD
BRANCH  24  28
ATOM     28  C   LIG    1        0.048   0.064  -0.061  0.00  0.00    -0.020 A 
ATOM     29  C   LIG    1       -1.119  -0.670   0.146  0.00  0.00    +0.050 A 
ATOM     30  C   LIG    1       -1.052  -2.043   0.279  0.00  0.00    +0.000 A 
ATOM     31  C   LIG    1        0.169  -2.688   0.218  0.00  0.00    +0.030 A 
ATOM     32  C   LIG    1        1.331  -1.964   0.018  0.00  0.00    +0.010 A 
ATOM     33  C   LIG    1        1.276  -0.592  -0.122  0.00  0.00    +0.050 A 
ENDBRANCH  24  28
ENDBRANCH  21  22
ENDBRANCH   1  21
TORSDOF 7
