REMARK  Name = ZINCvU0000000H4F.0
REMARK                            x       y       z     vdW  Elec       q    Type
REMARK                         _______ _______ _______ _____ _____    ______ ____
ROOT
ATOM      1  C   LIG    1        0.473  10.237  -0.098  0.00  0.00    +0.050 C 
ENDROOT
BRANCH   1   2
ATOM      2  C   LIG    1       -0.476  10.321  -1.266  0.00  0.00    -0.090 A 
ATOM      3  C   LIG    1        0.012  10.554  -2.538  0.00  0.00    +0.040 A 
ATOM      4  C   LIG    1       -0.858  10.627  -3.609  0.00  0.00    +0.010 A 
ATOM      5  C   LIG    1       -2.217  10.474  -3.408  0.00  0.00    +0.010 A 
ATOM      6  C   LIG    1       -2.706  10.246  -2.135  0.00  0.00    +0.000 A 
ATOM      7  C   LIG    1       -1.835  10.170  -1.064  0.00  0.00    +0.040 A 
ENDBRANCH   1   2
BRANCH   1  10
ATOM      8  N   LIG    1        0.688  12.566   0.708  0.00  0.00    -0.660 N 
ATOM      9  H   LIG    1       -0.217  12.500   1.049  0.00  0.00    +0.420 HD
ATOM     10  C   LIG    1        1.229  11.534   0.029  0.00  0.00    +0.540 C 
ATOM     11  O   LIG    1        2.323  11.651  -0.480  0.00  0.00    -0.490 OA
BRANCH   8  16
ATOM     12  C   LIG    1        3.545  14.820   1.307  0.00  0.00    -0.150 A 
ATOM     13  C   LIG    1        2.894  16.057   1.341  0.00  0.00    +0.050 A 
ATOM     14  C   LIG    1        1.527  16.122   1.165  0.00  0.00    +0.030 A 
ATOM     15  C   LIG    1        0.797  14.967   0.951  0.00  0.00    +0.020 A 
ATOM     16  C   LIG    1        1.433  13.731   0.921  0.00  0.00    +0.130 A 
ATOM     17  C   LIG    1        2.805  13.653   1.095  0.00  0.00    +0.090 A 
BRANCH  12  19
ATOM     18  C   LIG    1        5.798  16.007   1.722  0.00  0.00    +0.070 C 
ATOM     19  C   LIG    1        5.003  14.747   1.494  0.00  0.00    +0.390 C 
ATOM     20  O   LIG    1        5.565  13.673   1.465  0.00  0.00    -0.450 OA
ENDBRANCH  12  19
ENDBRANCH   8  16
ENDBRANCH   1  10
BRANCH   1  21
ATOM     21  S   LIG    1        1.644   8.879  -0.367  0.00  0.00    +0.120 S 
BRANCH  21  22
ATOM     22  C   LIG    1        0.610   7.452  -0.341  0.00  0.00    +0.200 A 
ATOM     23  N   LIG    1       -0.691   7.457  -0.163  0.00  0.00    -0.300 NA
ATOM     24  N   LIG    1       -1.117   6.120  -0.217  0.00  0.00    -0.470 N 
ATOM     25  H   LIG    1       -2.026   5.795  -0.124  0.00  0.00    +0.440 HD
ATOM     26  C   LIG    1       -0.008   5.375  -0.423  0.00  0.00    +0.340 A 
ATOM     27  N   LIG    1        1.023   6.193  -0.499  0.00  0.00    -0.500 NA
BRANCH  26  28
ATOM     28  C   LIG    1        0.040   3.901  -0.549  0.00  0.00    -0.040 A 
ATOM     29  C   LIG    1        1.257   3.256  -0.767  0.00  0.00    +0.080 A 
ATOM     30  C   LIG    1        1.295   1.881  -0.883  0.00  0.00    +0.010 A 
ATOM     31  C   LIG    1        0.129   1.143  -0.782  0.00  0.00    +0.030 A 
ATOM     32  C   LIG    1       -1.082   1.778  -0.571  0.00  0.00    +0.010 A 
ATOM     33  C   LIG    1       -1.132   3.151  -0.448  0.00  0.00    +0.020 A 
ENDBRANCH  26  28
ENDBRANCH  21  22
ENDBRANCH   1  21
TORSDOF 7
