REMARK  Name = ZINCkj00000y7B9P.0
REMARK                            x       y       z     vdW  Elec       q    Type
REMARK                         _______ _______ _______ _____ _____    ______ ____
ROOT
ATOM      1  C   LIG    1       -0.900   1.442  -3.626  0.00  0.00    +0.170 C 
ATOM      2  C   LIG    1       -0.929   2.957  -3.852  0.00  0.00    +0.060 C 
ATOM      3  C   LIG    1       -1.561   3.633  -2.632  0.00  0.00    +0.070 C 
ATOM      4  C   LIG    1       -0.774   3.248  -1.377  0.00  0.00    +0.250 C 
ATOM      5  N   LIG    1       -0.806   1.792  -1.202  0.00  0.00    -0.380 N 
ATOM      6  H   LIG    1       -1.765   1.482  -1.155  0.00  0.00    +0.420 HD
ATOM      7  C   LIG    1       -0.137   1.139  -2.334  0.00  0.00    +0.270 C 
ENDROOT
BRANCH   1  10
ATOM      8  O   LIG    1       -0.468  -1.212  -3.833  0.00  0.00    -0.520 OA
ATOM      9  C   LIG    1       -0.023  -0.540  -4.739  0.00  0.00    +0.520 C 
ATOM     10  N   LIG    1       -0.229   0.792  -4.754  0.00  0.00    -0.710 N 
ATOM     11  H   LIG    1        0.067   1.320  -5.512  0.00  0.00    +0.420 HD
BRANCH   9  12
ATOM     12  C   LIG    1        0.759  -1.194  -5.848  0.00  0.00    +0.190 C 
ATOM     13 CL   LIG    1        0.862  -2.969  -5.546  0.00  0.00    -0.110 Cl
ENDBRANCH   9  12
ENDBRANCH   1  10
BRANCH   5  14
ATOM     14  C   LIG    1       -0.116   1.434   0.044  0.00  0.00    +0.320 C 
BRANCH  14  15
ATOM     15  C   LIG    1       -0.873   2.002   1.218  0.00  0.00    -0.160 A 
ATOM     16  C   LIG    1       -0.569   3.265   1.690  0.00  0.00    +0.030 A 
ATOM     17  C   LIG    1       -1.266   3.788   2.763  0.00  0.00    +0.030 A 
ATOM     18  C   LIG    1       -2.259   3.044   3.371  0.00  0.00    +0.060 A 
ATOM     19  C   LIG    1       -2.560   1.778   2.902  0.00  0.00    +0.030 A 
ATOM     20  C   LIG    1       -1.866   1.258   1.826  0.00  0.00    +0.040 A 
ENDBRANCH  14  15
ENDBRANCH   5  14
BRANCH   1  21
ATOM     21  C   LIG    1       -2.332   0.915  -3.510  0.00  0.00    +0.180 C 
BRANCH  21  22
ATOM     22  O   LIG    1       -3.006   1.088  -4.758  0.00  0.00    -0.550 OA
ATOM     23  H   LIG    1       -3.921   0.775  -4.757  0.00  0.00    +0.400 HD
ENDBRANCH  21  22
ENDBRANCH   1  21
TORSDOF 6
