REMARK  Name = ZINCkj00000y7B9P.1
REMARK                            x       y       z     vdW  Elec       q    Type
REMARK                         _______ _______ _______ _____ _____    ______ ____
ROOT
ATOM      1  C   LIG    1       -2.099   0.878   1.280  0.00  0.00    +0.170 C 
ATOM      2  C   LIG    1       -2.644   1.337  -0.075  0.00  0.00    +0.070 C 
ATOM      3  C   LIG    1       -1.779   0.741  -1.190  0.00  0.00    +0.070 C 
ATOM      4  C   LIG    1       -0.323   1.161  -0.978  0.00  0.00    +0.240 C 
ATOM      5  N   LIG    1        0.147   0.671   0.323  0.00  0.00    -0.380 N 
ATOM      6  H   LIG    1        0.036  -0.331   0.364  0.00  0.00    +0.420 HD
ATOM      7  C   LIG    1       -0.632   1.294   1.399  0.00  0.00    +0.270 C 
ENDROOT
BRANCH   1  10
ATOM      8  O   LIG    1       -1.360  -0.568   3.434  0.00  0.00    -0.500 OA
ATOM      9  C   LIG    1       -1.761  -1.211   2.488  0.00  0.00    +0.510 C 
ATOM     10  N   LIG    1       -2.205  -0.579   1.383  0.00  0.00    -0.730 N 
ATOM     11  H   LIG    1       -2.596  -1.089   0.657  0.00  0.00    +0.410 HD
BRANCH   9  12
ATOM     12  C   LIG    1       -1.762  -2.717   2.546  0.00  0.00    +0.170 C 
ATOM     13 CL   LIG    1       -1.115  -3.257   4.139  0.00  0.00    -0.110 Cl
ENDBRANCH   9  12
ENDBRANCH   1  10
BRANCH   5  14
ATOM     14  C   LIG    1        1.567   1.011   0.488  0.00  0.00    +0.320 C 
BRANCH  14  15
ATOM     15  C   LIG    1        2.384   0.272  -0.539  0.00  0.00    -0.160 A 
ATOM     16  C   LIG    1        2.893  -0.980  -0.248  0.00  0.00    +0.040 A 
ATOM     17  C   LIG    1        3.639  -1.660  -1.192  0.00  0.00    +0.030 A 
ATOM     18  C   LIG    1        3.883  -1.085  -2.425  0.00  0.00    +0.060 A 
ATOM     19  C   LIG    1        3.378   0.169  -2.715  0.00  0.00    +0.030 A 
ATOM     20  C   LIG    1        2.628   0.847  -1.772  0.00  0.00    +0.030 A 
ENDBRANCH  14  15
ENDBRANCH   5  14
BRANCH   1  21
ATOM     21  C   LIG    1       -2.908   1.530   2.403  0.00  0.00    +0.210 C 
BRANCH  21  22
ATOM     22  O   LIG    1       -4.252   1.049   2.363  0.00  0.00    -0.560 OA
ATOM     23  H   LIG    1       -4.824   1.421   3.049  0.00  0.00    +0.400 HD
ENDBRANCH  21  22
ENDBRANCH   1  21
TORSDOF 6
