REMARK  Name = ZINCtV000002PJ4J.0
REMARK                            x       y       z     vdW  Elec       q    Type
REMARK                         _______ _______ _______ _____ _____    ______ ____
ROOT
ATOM      1  O   LIG    1        1.841  -1.156  -1.475  0.00  0.00    -0.500 OA
ATOM      2  C   LIG    1        2.523  -0.318  -2.036  0.00  0.00    +0.560 A 
ATOM      3  C   LIG    1        2.959  -0.498  -3.427  0.00  0.00    -0.200 A 
ATOM      4  C   LIG    1        2.614  -1.629  -4.165  0.00  0.00    +0.100 A 
ATOM      5  C   LIG    1        3.052  -1.753  -5.465  0.00  0.00    -0.010 A 
ATOM      6  C   LIG    1        3.834  -0.762  -6.044  0.00  0.00    +0.070 A 
ATOM      7  C   LIG    1        4.187   0.363  -5.335  0.00  0.00    +0.030 A 
ATOM      8  C   LIG    1        3.754   0.512  -4.014  0.00  0.00    +0.160 A 
ATOM      9  N   LIG    1        4.079   1.604  -3.281  0.00  0.00    -0.530 NA
ATOM     10  C   LIG    1        3.673   1.744  -2.044  0.00  0.00    +0.370 A 
ATOM     11  N   LIG    1        2.903   0.816  -1.403  0.00  0.00    -0.520 N 
ENDROOT
BRANCH  10  12
ATOM     12  S   LIG    1        4.143   3.197  -1.165  0.00  0.00    +0.010 S 
BRANCH  12  13
ATOM     13  C   LIG    1        5.112   4.037  -2.442  0.00  0.00    +0.170 C 
BRANCH  13  14
ATOM     14  C   LIG    1        5.631   5.344  -1.900  0.00  0.00    -0.070 A 
ATOM     15  C   LIG    1        4.884   6.497  -2.044  0.00  0.00    +0.080 A 
ATOM     16  C   LIG    1        5.357   7.695  -1.542  0.00  0.00    +0.050 A 
ATOM     17  C   LIG    1        6.584   7.743  -0.906  0.00  0.00    -0.020 A 
ATOM     18  C   LIG    1        7.336   6.589  -0.767  0.00  0.00    +0.050 A 
ATOM     19 CL   LIG    1        7.181   9.248  -0.282  0.00  0.00    -0.050 Cl
ATOM     20  C   LIG    1        6.860   5.390  -1.264  0.00  0.00    -0.010 A 
ATOM     21 CL   LIG    1        7.802   3.942  -1.091  0.00  0.00    -0.040 Cl
ENDBRANCH  13  14
ENDBRANCH  12  13
ENDBRANCH  10  12
BRANCH  11  22
ATOM     22  C   LIG    1        2.490   1.047  -0.016  0.00  0.00    +0.360 C 
BRANCH  22  23
ATOM     23  C   LIG    1        1.175   1.783   0.000  0.00  0.00    -0.120 A 
ATOM     24  C   LIG    1       -0.013   1.076   0.008  0.00  0.00    +0.060 A 
ATOM     25  C   LIG    1       -1.219   1.750   0.017  0.00  0.00    +0.030 A 
ATOM     26  C   LIG    1       -1.237   3.134   0.030  0.00  0.00    -0.020 A 
ATOM     27  C   LIG    1       -0.048   3.841   0.022  0.00  0.00    +0.030 A 
ATOM     28 CL   LIG    1       -2.752   3.982   0.049  0.00  0.00    -0.060 Cl
ATOM     29  C   LIG    1        1.157   3.165   0.008  0.00  0.00    +0.050 A 
ENDBRANCH  22  23
ENDBRANCH  11  22
TORSDOF 5
