REMARK  Name = ZINCrD000000CNmm.0
REMARK                            x       y       z     vdW  Elec       q    Type
REMARK                         _______ _______ _______ _____ _____    ______ ____
ROOT
ATOM      1  O   LIG    1       -8.723  -1.746  -8.177  0.00  0.00    -0.450 OA
ATOM      2  C   LIG    1       -8.808  -1.662  -6.970  0.00  0.00    +0.400 C 
ATOM      3  C   LIG    1      -10.160  -1.520  -6.314  0.00  0.00    +0.050 C 
ATOM      4  C   LIG    1      -10.186  -2.069  -4.883  0.00  0.00    +0.070 C 
ATOM      5  C   LIG    1       -9.128  -1.341  -4.053  0.00  0.00    +0.040 C 
ATOM      6  C   LIG    1       -8.866  -1.988  -2.682  0.00  0.00    +0.310 C 
ATOM      7  N   LIG    1       -7.392  -1.880  -2.547  0.00  0.00    -0.560 N 
ATOM      8  C   LIG    1       -6.829  -1.834  -3.829  0.00  0.00    +0.130 A 
ATOM      9  C   LIG    1       -5.519  -1.919  -4.305  0.00  0.00    +0.020 A 
ATOM     10  C   LIG    1       -5.269  -1.912  -5.667  0.00  0.00    +0.040 A 
ATOM     11  C   LIG    1       -6.292  -1.827  -6.599  0.00  0.00    +0.070 A 
ATOM     12  C   LIG    1       -6.709  -1.839  -1.386  0.00  0.00    +0.540 C 
ATOM     13  O   LIG    1       -7.304  -1.886  -0.330  0.00  0.00    -0.510 OA
ATOM     14  C   LIG    1       -7.814  -1.633  -4.762  0.00  0.00    -0.100 A 
ATOM     15  C   LIG    1       -7.596  -1.696  -6.139  0.00  0.00    -0.120 A 
ENDROOT
BRANCH  12  16
ATOM     16  C   LIG    1       -5.205  -1.734  -1.399  0.00  0.00    +0.080 C 
BRANCH  16  17
ATOM     17  C   LIG    1       -4.683  -1.705   0.038  0.00  0.00    +0.230 C 
BRANCH  17  18
ATOM     18  C   LIG    1       -3.180  -1.600   0.025  0.00  0.00    +0.190 A 
ATOM     19  N   LIG    1       -2.478  -0.495   0.024  0.00  0.00    -0.460 NA
ATOM     20  C   LIG    1       -1.182  -0.887   0.009  0.00  0.00    +0.250 A 
ATOM     21  N   LIG    1       -1.176  -2.198  -0.003  0.00  0.00    -0.360 NA
ATOM     22  O   LIG    1       -2.313  -2.619   0.011  0.00  0.00    +0.090 OA
BRANCH  20  23
ATOM     23  C   LIG    1        0.002  -0.004   0.002  0.00  0.00    +0.040 A 
ATOM     24  C   LIG    1        1.300  -0.409  -0.013  0.00  0.00    +0.020 A 
ATOM     25  C   LIG    1        2.089   0.757  -0.014  0.00  0.00    -0.060 A 
ATOM     26  C   LIG    1        1.243   1.806  -0.000  0.00  0.00    +0.210 A 
ATOM     27  O   LIG    1       -0.016   1.343   0.009  0.00  0.00    -0.150 OA
ENDBRANCH  20  23
ENDBRANCH  17  18
ENDBRANCH  16  17
ENDBRANCH  12  16
TORSDOF 4
