REMARK  Name = ZINCqH00000050QS.0
REMARK                            x       y       z     vdW  Elec       q    Type
REMARK                         _______ _______ _______ _____ _____    ______ ____
ROOT
ATOM      1  N   LIG    1       -1.364   1.056  -2.184  0.00  0.00    -0.680 N 
ATOM      2  H   LIG    1       -0.858   0.242  -2.033  0.00  0.00    +0.410 HD
ATOM      3  C   LIG    1       -1.953   1.686  -1.149  0.00  0.00    +0.520 C 
ATOM      4  O   LIG    1       -2.514   2.747  -1.324  0.00  0.00    -0.510 OA
ENDROOT
BRANCH   1   7
ATOM      5  C   LIG    1       -1.695   1.239  -5.852  0.00  0.00    -0.110 A 
ATOM      6  C   LIG    1       -1.571   0.717  -4.564  0.00  0.00    +0.030 A 
ATOM      7  C   LIG    1       -1.483   1.575  -3.479  0.00  0.00    +0.140 A 
ATOM      8  C   LIG    1       -1.508   2.950  -3.676  0.00  0.00    +0.070 A 
ATOM      9  C   LIG    1       -1.625   3.469  -4.952  0.00  0.00    +0.040 A 
ATOM     10  C   LIG    1       -1.719   2.623  -6.040  0.00  0.00    -0.000 A 
ATOM     11 CL   LIG    1       -1.866   3.280  -7.640  0.00  0.00    -0.040 Cl
BRANCH   5  14
ATOM     12  C   LIG    1       -1.370  -1.811  -8.095  0.00  0.00    +0.290 C 
ATOM     13  N   LIG    1       -1.222  -0.888  -6.967  0.00  0.00    -0.620 N 
ATOM     14  C   LIG    1       -1.794   0.331  -7.014  0.00  0.00    +0.560 C 
ATOM     15  O   LIG    1       -2.393   0.683  -8.011  0.00  0.00    -0.510 OA
ATOM     16  C   LIG    1       -0.451  -1.291  -5.788  0.00  0.00    +0.280 C 
ENDBRANCH   5  14
ENDBRANCH   1   7
BRANCH   3  17
ATOM     17  C   LIG    1       -1.915   1.072   0.227  0.00  0.00    +0.140 C 
BRANCH  17  18
ATOM     18  C   LIG    1       -2.640   1.969   1.197  0.00  0.00    -0.050 A 
ATOM     19  C   LIG    1       -1.946   2.876   1.938  0.00  0.00    +0.040 A 
ATOM     20  C   LIG    1       -2.597   3.715   2.840  0.00  0.00    +0.020 A 
ATOM     21  C   LIG    1       -3.946   3.651   3.006  0.00  0.00    +0.040 A 
ATOM     22  C   LIG    1       -4.694   2.727   2.259  0.00  0.00    -0.100 A 
ATOM     23  C   LIG    1       -6.091   2.629   2.400  0.00  0.00    +0.090 A 
ATOM     24  C   LIG    1       -6.755   1.718   1.628  0.00  0.00    -0.040 A 
ATOM     25  C   LIG    1       -6.046   0.908   0.744  0.00  0.00    +0.290 A 
ATOM     26  N   LIG    1       -4.744   0.999   0.618  0.00  0.00    -0.470 NA
ATOM     27  C   LIG    1       -4.036   1.876   1.337  0.00  0.00    +0.140 A 
ENDBRANCH  17  18
ENDBRANCH   3  17
TORSDOF 4
