REMARK  Name = ZINCrD000000CRTY.0
REMARK                            x       y       z     vdW  Elec       q    Type
REMARK                         _______ _______ _______ _____ _____    ______ ____
ROOT
ATOM      1  N   LIG    1       -1.235   2.068   0.019  0.00  0.00    -0.730 N 
ATOM      2  H   LIG    1       -2.069   1.573   0.020  0.00  0.00    +0.410 HD
ENDROOT
BRANCH   1   7
ATOM      3  C   LIG    1        1.208  -0.677  -0.013  0.00  0.00    -0.030 A 
ATOM      4  C   LIG    1        2.396   0.031  -0.021  0.00  0.00    -0.050 A 
ATOM      5  C   LIG    1        2.381   1.414  -0.013  0.00  0.00    +0.050 A 
ATOM      6  C   LIG    1        1.179   2.092   0.002  0.00  0.00    -0.060 A 
ATOM      7  C   LIG    1       -0.017   1.385   0.010  0.00  0.00    +0.220 A 
ATOM      8  C   LIG    1        0.002  -0.004   0.002  0.00  0.00    -0.060 A 
BRANCH   3  12
ATOM      9  O   LIG    1        3.338  -4.803  -1.238  0.00  0.00    -0.530 OA
ATOM     10  C   LIG    1        2.787  -3.937  -0.592  0.00  0.00    +0.520 C 
ATOM     11  C   LIG    1        2.108  -2.719  -1.176  0.00  0.00    +0.070 C 
ATOM     12  C   LIG    1        1.230  -2.184  -0.021  0.00  0.00    +0.040 C 
ATOM     13  C   LIG    1        1.971  -2.732   1.218  0.00  0.00    +0.270 C 
ATOM     14  N   LIG    1        2.691  -3.922   0.749  0.00  0.00    -0.730 N 
ATOM     15  H   LIG    1        3.050  -4.609   1.332  0.00  0.00    +0.410 HD
ENDBRANCH   3  12
ENDBRANCH   1   7
BRANCH   1  16
ATOM     16  C   LIG    1       -1.253   3.533   0.027  0.00  0.00    +0.250 C 
ATOM     17  C   LIG    1       -2.612   4.060  -0.488  0.00  0.00    +0.060 C 
ATOM     18  C   LIG    1       -2.828   5.302   0.406  0.00  0.00    +0.280 C 
ATOM     19  N   LIG    1       -2.061   5.041   1.630  0.00  0.00    -0.580 N 
ATOM     20  C   LIG    1       -1.165   4.056   1.444  0.00  0.00    +0.500 C 
ATOM     21  O   LIG    1       -0.398   3.646   2.290  0.00  0.00    -0.490 OA
BRANCH  19  22
ATOM     22  C   LIG    1       -2.239   5.729   2.837  0.00  0.00    +0.110 A 
ATOM     23  C   LIG    1       -1.504   6.877   3.098  0.00  0.00    +0.080 A 
ATOM     24  C   LIG    1       -1.687   7.558   4.286  0.00  0.00    +0.040 A 
ATOM     25  C   LIG    1       -2.592   7.091   5.221  0.00  0.00    -0.000 A 
ATOM     26  C   LIG    1       -3.324   5.943   4.968  0.00  0.00    +0.010 A 
ATOM     27 CL   LIG    1       -2.813   7.945   6.716  0.00  0.00    -0.050 Cl
ATOM     28  C   LIG    1       -3.150   5.261   3.778  0.00  0.00    +0.120 A 
ATOM     29  F   LIG    1       -3.864   4.141   3.530  0.00  0.00    -0.120 F 
ENDBRANCH  19  22
ENDBRANCH   1  16
TORSDOF 4
