REMARK  Name = ZINCtV000002KvJt.0
REMARK                            x       y       z     vdW  Elec       q    Type
REMARK                         _______ _______ _______ _____ _____    ______ ____
ROOT
ATOM      1  N   LIG    1       -2.329   7.867   4.266  0.00  0.00    -0.620 N 
ATOM      2  H   LIG    1       -3.107   7.722   4.827  0.00  0.00    +0.430 HD
ATOM      3  C   LIG    1       -2.301   7.376   3.011  0.00  0.00    +0.510 C 
ATOM      4  O   LIG    1       -1.328   7.558   2.310  0.00  0.00    -0.490 OA
ENDROOT
BRANCH   1   9
ATOM      5  C   LIG    1        2.221  10.469   5.337  0.00  0.00    +0.160 C 
ATOM      6  C   LIG    1        0.875   9.795   5.257  0.00  0.00    -0.250 A 
ATOM      7  C   LIG    1       -0.044   9.751   6.238  0.00  0.00    +0.110 A 
ATOM      8  N   LIG    1       -1.162   9.104   5.941  0.00  0.00    -0.490 NA
ATOM      9  C   LIG    1       -1.243   8.582   4.756  0.00  0.00    +0.270 A 
ATOM     10  S   LIG    1        0.235   8.928   3.863  0.00  0.00    +0.210 S 
BRANCH   7  11
ATOM     11  C   LIG    1        0.175  10.388   7.560  0.00  0.00    -0.010 A 
ATOM     12  C   LIG    1       -0.183   9.716   8.727  0.00  0.00    +0.050 A 
ATOM     13  C   LIG    1        0.029  10.310   9.955  0.00  0.00    +0.030 A 
ATOM     14  C   LIG    1        0.585  11.576  10.027  0.00  0.00    -0.030 A 
ATOM     15  C   LIG    1        0.938  12.249   8.870  0.00  0.00    +0.030 A 
ATOM     16 CL   LIG    1        0.842  12.321  11.574  0.00  0.00    -0.070 Cl
ATOM     17  C   LIG    1        0.736  11.662   7.638  0.00  0.00    +0.050 A 
ENDBRANCH   7  11
ENDBRANCH   1   9
BRANCH   3  18
ATOM     18  C   LIG    1       -3.479   6.600   2.480  0.00  0.00    +0.180 C 
BRANCH  18  19
ATOM     19  C   LIG    1       -3.197   6.166   1.065  0.00  0.00    -0.170 A 
ATOM     20  C   LIG    1       -3.562   6.797  -0.059  0.00  0.00    +0.240 A 
ATOM     21  O   LIG    1       -3.134   6.113  -1.135  0.00  0.00    -0.190 OA
ATOM     22  C   LIG    1       -2.468   5.001  -0.764  0.00  0.00    +0.060 A 
ATOM     23  C   LIG    1       -1.844   3.982  -1.470  0.00  0.00    +0.030 A 
ATOM     24  C   LIG    1       -1.228   2.945  -0.796  0.00  0.00    -0.070 A 
ATOM     25  C   LIG    1       -1.228   2.910   0.592  0.00  0.00    -0.110 A 
ATOM     26  C   LIG    1       -0.487   1.678   1.075  0.00  0.00    +0.080 C 
ATOM     27  C   LIG    1        0.331   1.200  -0.143  0.00  0.00    +0.030 C 
ATOM     28  C   LIG    1       -1.844   3.915   1.310  0.00  0.00    +0.060 A 
ATOM     29  C   LIG    1       -0.490   1.736  -1.334  0.00  0.00    +0.080 C 
ATOM     30  C   LIG    1       -2.467   4.965   0.640  0.00  0.00    -0.110 A 
ENDBRANCH  18  19
ENDBRANCH   3  18
TORSDOF 4
