REMARK  Name = ZINCAx0000000bYD.0
REMARK                            x       y       z     vdW  Elec       q    Type
REMARK                         _______ _______ _______ _____ _____    ______ ____
ROOT
ATOM      1  C   LIG    1       -4.122   1.736   2.665  0.00  0.00    +0.110 C 
ATOM      2  C   LIG    1       -2.665   1.322   2.882  0.00  0.00    +0.170 C 
ATOM      3  N   LIG    1       -1.791   2.506   2.926  0.00  0.00    -0.720 N 
ATOM      4  H   LIG    1       -1.831   3.233   3.568  0.00  0.00    +0.440 HD
ATOM      5  C   LIG    1       -0.922   2.382   1.906  0.00  0.00    +0.710 C 
ATOM      6  N   LIG    1       -1.125   1.266   1.195  0.00  0.00    -0.560 N 
ATOM      7  O   LIG    1       -0.053   3.193   1.656  0.00  0.00    -0.530 OA
ATOM      8  C   LIG    1       -2.149   0.542   1.689  0.00  0.00    +0.540 C 
ATOM      9  O   LIG    1       -2.569  -0.514   1.267  0.00  0.00    -0.450 OA
ENDROOT
BRANCH   2  10
ATOM     10  C   LIG    1       -2.529   0.511   4.145  0.00  0.00    -0.090 A 
ATOM     11  C   LIG    1       -2.336   1.147   5.332  0.00  0.00    +0.050 A 
ATOM     12  C   LIG    1       -2.208   0.394   6.512  0.00  0.00    -0.050 A 
ATOM     13  C   LIG    1       -2.008   1.015   7.756  0.00  0.00    +0.030 A 
ATOM     14  C   LIG    1       -1.889   0.253   8.878  0.00  0.00    +0.020 A 
ATOM     15  C   LIG    1       -1.963  -1.137   8.812  0.00  0.00    +0.020 A 
ATOM     16  C   LIG    1       -2.155  -1.773   7.624  0.00  0.00    +0.020 A 
ATOM     17  C   LIG    1       -2.283  -1.020   6.445  0.00  0.00    -0.050 A 
ATOM     18  C   LIG    1       -2.483  -1.641   5.200  0.00  0.00    +0.030 A 
ATOM     19  C   LIG    1       -2.608  -0.879   4.080  0.00  0.00    +0.030 A 
ENDBRANCH   2  10
BRANCH   6  20
ATOM     20  C   LIG    1       -0.330   0.878   0.028  0.00  0.00    +0.360 C 
BRANCH  20  21
ATOM     21  C   LIG    1       -0.959   1.442  -1.220  0.00  0.00    +0.510 C 
ATOM     22  N   LIG    1       -0.396   1.211  -2.422  0.00  0.00    -0.700 N 
ATOM     23  H   LIG    1        0.415   0.682  -2.484  0.00  0.00    +0.400 HD
ATOM     24  O   LIG    1       -1.973   2.103  -1.141  0.00  0.00    -0.530 OA
BRANCH  22  25
ATOM     25  C   LIG    1       -1.008   1.760  -3.635  0.00  0.00    +0.300 C 
BRANCH  25  26
ATOM     26  C   LIG    1       -0.522   3.170  -3.849  0.00  0.00    -0.100 A 
ATOM     27  C   LIG    1        0.799   3.491  -3.601  0.00  0.00    +0.020 A 
ATOM     28  C   LIG    1        1.246   4.784  -3.802  0.00  0.00    +0.000 A 
ATOM     29  C   LIG    1        0.369   5.757  -4.242  0.00  0.00    +0.000 A 
ATOM     30  C   LIG    1       -0.953   5.438  -4.486  0.00  0.00    +0.000 A 
ATOM     31  C   LIG    1       -1.399   4.144  -4.289  0.00  0.00    +0.020 A 
ENDBRANCH  25  26
BRANCH  25  32
ATOM     32  C   LIG    1       -0.618   0.897  -4.837  0.00  0.00    +0.200 C 
BRANCH  32  33
ATOM     33  N   LIG    1       -0.993  -0.499  -4.580  0.00  0.00    -0.530 NA
ATOM     34  C   LIG    1       -0.274  -1.412  -5.481  0.00  0.00    +0.160 C 
ATOM     35  C   LIG    1       -0.648  -2.857  -5.139  0.00  0.00    +0.220 C 
ATOM     36  O   LIG    1       -2.067  -3.011  -5.232  0.00  0.00    -0.380 OA
ATOM     37  C   LIG    1       -2.799  -2.138  -4.368  0.00  0.00    +0.220 C 
ATOM     38  C   LIG    1       -2.446  -0.686  -4.702  0.00  0.00    +0.160 C 
ENDBRANCH  32  33
ENDBRANCH  25  32
ENDBRANCH  22  25
ENDBRANCH  20  21
ENDBRANCH   6  20
TORSDOF 7
