REMARK  Name = ZINCkj00000dDvcD.0
REMARK                            x       y       z     vdW  Elec       q    Type
REMARK                         _______ _______ _______ _____ _____    ______ ____
ROOT
ATOM      1  N   LIG    1        0.585  -0.664  -1.018  0.00  0.00    -0.730 N 
ATOM      2  H   LIG    1        0.992  -0.170  -1.747  0.00  0.00    +0.410 HD
ATOM      3  C   LIG    1        0.002  -0.004   0.002  0.00  0.00    +0.520 C 
ATOM      4  O   LIG    1       -0.506  -0.622   0.913  0.00  0.00    -0.520 OA
ENDROOT
BRANCH   1  11
ATOM      5  C   LIG    1        0.760  -2.656  -2.471  0.00  0.00    +0.170 C 
ATOM      6  C   LIG    1        1.716  -3.863  -2.300  0.00  0.00    +0.270 C 
ATOM      7  N   LIG    1        2.661  -3.402  -1.250  0.00  0.00    -0.510 N 
ATOM      8  C   LIG    1        1.841  -2.651  -0.271  0.00  0.00    +0.270 C 
ATOM      9  H   LIG    1        3.361  -2.798  -1.654  0.00  0.00    +0.430 HD
ATOM     10  H   LIG    1        3.098  -4.194  -0.803  0.00  0.00    +0.440 HD
ATOM     11  C   LIG    1        0.605  -2.129  -1.026  0.00  0.00    +0.260 C 
BRANCH   5  13
ATOM     12  C   LIG    1       -0.623  -2.936  -4.409  0.00  0.00    +0.240 C 
ATOM     13  O   LIG    1       -0.501  -3.080  -2.993  0.00  0.00    -0.350 OA
ENDBRANCH   5  13
ENDBRANCH   1  11
BRANCH   3  14
ATOM     14  C   LIG    1       -0.018   1.503   0.010  0.00  0.00    +0.060 C 
BRANCH  14  15
ATOM     15  C   LIG    1       -0.735   1.996   1.269  0.00  0.00    +0.100 C 
BRANCH  15  16
ATOM     16  C   LIG    1       -0.755   3.503   1.277  0.00  0.00    -0.100 A 
ATOM     17  C   LIG    1        0.219   4.204   1.963  0.00  0.00    +0.010 A 
ATOM     18  C   LIG    1        0.204   5.586   1.966  0.00  0.00    +0.000 A 
ATOM     19  C   LIG    1       -0.793   6.267   1.293  0.00  0.00    -0.080 A 
ATOM     20  C   LIG    1       -1.770   5.566   0.612  0.00  0.00    +0.000 A 
ATOM     21  C   LIG    1       -0.813   7.774   1.301  0.00  0.00    +0.090 C 
ATOM     22  C   LIG    1       -1.752   4.185   0.604  0.00  0.00    -0.080 A 
ATOM     23  C   LIG    1       -2.817   3.421  -0.139  0.00  0.00    +0.080 C 
ENDBRANCH  15  16
ENDBRANCH  14  15
ENDBRANCH   3  14
TORSDOF 5
