REMARK  Name = ZINCvU0000000FP0.1
REMARK                            x       y       z     vdW  Elec       q    Type
REMARK                         _______ _______ _______ _____ _____    ______ ____
ROOT
ATOM      1  C   LIG    1        3.634   3.639  -0.126  0.00  0.00    -0.250 A 
ATOM      2  C   LIG    1        4.732   4.469  -0.237  0.00  0.00    +0.300 A 
ATOM      3  N   LIG    1        4.296   5.741  -0.309  0.00  0.00    -0.390 N 
ATOM      4  C   LIG    1        2.922   5.754  -0.237  0.00  0.00    +0.040 A 
ATOM      5  C   LIG    1        2.485   4.470  -0.123  0.00  0.00    +0.090 A 
ENDROOT
BRANCH   4   6
ATOM      6  C   LIG    1        2.070   6.952  -0.275  0.00  0.00    +0.260 A 
ATOM      7  N   LIG    1        2.481   8.198  -0.385  0.00  0.00    -0.290 NA
ATOM      8  N   LIG    1        1.463   8.985  -0.386  0.00  0.00    -0.260 NA
ATOM      9  C   LIG    1        0.362   8.276  -0.278  0.00  0.00    +0.210 A 
ATOM     10  O   LIG    1        0.722   6.977  -0.211  0.00  0.00    -0.210 OA
BRANCH   9  11
ATOM     11  C   LIG    1       -1.017   8.803  -0.242  0.00  0.00    -0.020 A 
ATOM     12  C   LIG    1       -2.099   7.928  -0.130  0.00  0.00    +0.070 A 
ATOM     13  C   LIG    1       -3.385   8.428  -0.090  0.00  0.00    +0.040 A 
ATOM     14  C   LIG    1       -3.603   9.793  -0.175  0.00  0.00    -0.010 A 
ATOM     15  C   LIG    1       -2.534  10.665  -0.292  0.00  0.00    +0.040 A 
ATOM     16 CL   LIG    1       -5.224  10.412  -0.133  0.00  0.00    -0.050 Cl
ATOM     17  C   LIG    1       -1.244  10.178  -0.327  0.00  0.00    +0.100 A 
ENDBRANCH   9  11
ENDBRANCH   4   6
BRANCH   3  18
ATOM     18  C   LIG    1        5.150   6.925  -0.438  0.00  0.00    +0.240 C 
ATOM     19  C   LIG    1        6.031   6.806  -1.699  0.00  0.00    +0.030 C 
ATOM     20  C   LIG    1        7.384   7.429  -1.276  0.00  0.00    +0.040 C 
ATOM     21  C   LIG    1        7.540   6.949   0.188  0.00  0.00    +0.010 C 
ATOM     22  C   LIG    1        6.110   7.015   0.762  0.00  0.00    +0.020 C 
ENDBRANCH   3  18
BRANCH   1  24
ATOM     23  O   LIG    1        4.703   1.566  -0.134  0.00  0.00    -0.460 OA
ATOM     24  C   LIG    1        3.652   2.170  -0.023  0.00  0.00    +0.480 C 
BRANCH  24  25
ATOM     25  C   LIG    1        2.398   1.431   0.215  0.00  0.00    -0.170 A 
ATOM     26  C   LIG    1        1.783   0.736  -0.830  0.00  0.00    +0.060 A 
ATOM     27  C   LIG    1        0.612   0.047  -0.600  0.00  0.00    +0.000 A 
ATOM     28  C   LIG    1        0.040   0.040   0.661  0.00  0.00    +0.040 A 
ATOM     29  C   LIG    1        0.637   0.724   1.703  0.00  0.00    -0.020 A 
ATOM     30  C   LIG    1        1.816   1.422   1.491  0.00  0.00    +0.140 A 
BRANCH  30  31
ATOM     31  O   LIG    1        2.404   2.093   2.513  0.00  0.00    -0.490 OA
ATOM     32  H   LIG    1        3.039   1.565   3.016  0.00  0.00    +0.390 HD
ENDBRANCH  30  31
ENDBRANCH  24  25
ENDBRANCH   1  24
TORSDOF 6
