REMARK  Name = ZINCvU00000009JD.0
REMARK                            x       y       z     vdW  Elec       q    Type
REMARK                         _______ _______ _______ _____ _____    ______ ____
ROOT
ATOM      1  C   LIG    1        4.654   2.317   4.442  0.00  0.00    +0.090 C 
ATOM      2  C   LIG    1        6.014   1.798   3.973  0.00  0.00    +0.050 C 
ATOM      3  S   LIG    1        6.212   0.076   4.508  0.00  0.00    +0.070 S 
ATOM      4  C   LIG    1        5.203  -0.692   3.283  0.00  0.00    +0.110 A 
ATOM      5  N   LIG    1        4.517  -1.792   3.325  0.00  0.00    -0.230 NA
ATOM      6  N   LIG    1        3.918  -1.968   2.194  0.00  0.00    -0.280 NA
ATOM      7  C   LIG    1        4.197  -0.987   1.375  0.00  0.00    +0.260 A 
ATOM      8  N   LIG    1        5.032  -0.142   2.031  0.00  0.00    -0.330 N 
ATOM      9  N   LIG    1        5.636   1.049   1.637  0.00  0.00    -0.250 NA
ATOM     10  C   LIG    1        6.094   1.906   2.481  0.00  0.00    +0.220 C 
ENDROOT
BRANCH  10  11
ATOM     11  C   LIG    1        6.756   3.103   1.929  0.00  0.00    -0.090 A 
ATOM     12  C   LIG    1        7.271   4.077   2.788  0.00  0.00    +0.100 A 
ATOM     13  C   LIG    1        7.893   5.192   2.268  0.00  0.00    -0.050 A 
ATOM     14  C   LIG    1        7.999   5.352   0.893  0.00  0.00    +0.140 A 
ATOM     15  C   LIG    1        7.485   4.388   0.035  0.00  0.00    +0.010 A 
ATOM     16  C   LIG    1        6.866   3.268   0.546  0.00  0.00    +0.120 A 
BRANCH  14  17
ATOM     17  O   LIG    1        8.608   6.455   0.385  0.00  0.00    -0.320 OA
BRANCH  17  18
ATOM     18  C   LIG    1        9.115   7.406   1.323  0.00  0.00    +0.600 C 
ATOM     19  F   LIG    1       10.070   6.792   2.140  0.00  0.00    -0.190 F 
ATOM     20  F   LIG    1        8.065   7.887   2.113  0.00  0.00    -0.200 F 
ENDBRANCH  17  18
ENDBRANCH  14  17
ENDBRANCH  10  11
BRANCH   7  21
ATOM     21  C   LIG    1        3.690  -0.827  -0.035  0.00  0.00    +0.230 C 
BRANCH  21  22
ATOM     22  C   LIG    1        2.399  -0.050  -0.020  0.00  0.00    -0.080 A 
ATOM     23  C   LIG    1        1.206  -0.706  -0.013  0.00  0.00    +0.040 A 
ATOM     24  C   LIG    1        0.002  -0.004   0.002  0.00  0.00    +0.010 A 
ATOM     25  C   LIG    1       -0.016   1.357   0.009  0.00  0.00    +0.030 A 
ATOM     26  C   LIG    1        1.196   2.069   0.002  0.00  0.00    -0.050 A 
ATOM     27  C   LIG    1        1.216   3.473   0.009  0.00  0.00    +0.020 A 
ATOM     28  C   LIG    1        2.409   4.129   0.002  0.00  0.00    +0.000 A 
ATOM     29  C   LIG    1        3.613   3.428  -0.013  0.00  0.00    +0.010 A 
ATOM     30  C   LIG    1        3.632   2.067  -0.020  0.00  0.00    +0.020 A 
ATOM     31  C   LIG    1        2.420   1.355  -0.013  0.00  0.00    -0.040 A 
ENDBRANCH  21  22
ENDBRANCH   7  21
TORSDOF 5
