REMARK  Name = ZINCvU00000007b5.0
REMARK                            x       y       z     vdW  Elec       q    Type
REMARK                         _______ _______ _______ _____ _____    ______ ____
ROOT
ATOM      1  O   LIG    1        0.904   2.740  -0.055  0.00  0.00    -0.560 OA
ATOM      2  C   LIG    1        0.759   1.533  -0.076  0.00  0.00    +0.710 C 
ATOM      3  N   LIG    1       -0.479   1.002  -0.068  0.00  0.00    -0.730 N 
ATOM      4  H   LIG    1       -0.594   0.039  -0.085  0.00  0.00    +0.400 HD
ATOM      5  N   LIG    1        1.838   0.726  -0.107  0.00  0.00    -0.680 N 
ATOM      6  H   LIG    1        1.726  -0.237  -0.060  0.00  0.00    +0.410 HD
ENDROOT
BRANCH   5   7
ATOM      7  C   LIG    1        3.121   1.276  -0.207  0.00  0.00    +0.170 A 
ATOM      8  C   LIG    1        3.407   2.486   0.411  0.00  0.00    +0.050 A 
ATOM      9  C   LIG    1        4.670   3.030   0.314  0.00  0.00    +0.050 A 
ATOM     10  C   LIG    1        5.661   2.365  -0.405  0.00  0.00    -0.050 A 
ATOM     11  C   LIG    1        5.373   1.150  -1.026  0.00  0.00    +0.060 A 
ATOM     12  C   LIG    1        4.109   0.607  -0.922  0.00  0.00    -0.060 A 
ATOM     13 CL   LIG    1        3.751  -0.909  -1.688  0.00  0.00    -0.060 Cl
BRANCH  10  14
ATOM     14  C   LIG    1        7.021   2.948  -0.510  0.00  0.00    -0.050 A 
ATOM     15  C   LIG    1        7.310   4.165   0.105  0.00  0.00    +0.020 A 
ATOM     16  C   LIG    1        8.578   4.701   0.008  0.00  0.00    +0.010 A 
ATOM     17  C   LIG    1        9.559   4.037  -0.708  0.00  0.00    +0.000 A 
ATOM     18  C   LIG    1        9.277   2.832  -1.325  0.00  0.00    +0.010 A 
ATOM     19  C   LIG    1        8.013   2.284  -1.230  0.00  0.00    +0.020 A 
ENDBRANCH  10  14
ENDBRANCH   5   7
BRANCH   3  20
ATOM     20  C   LIG    1       -1.652   1.880  -0.040  0.00  0.00    +0.290 C 
ATOM     21  C   LIG    1       -2.149   2.185  -1.472  0.00  0.00    +0.080 C 
ATOM     22  C   LIG    1       -3.206   1.134  -1.731  0.00  0.00    +0.520 C 
ATOM     23  N   LIG    1       -3.589   0.569  -0.573  0.00  0.00    -0.560 N 
ATOM     24  O   LIG    1       -3.644   0.844  -2.824  0.00  0.00    -0.500 OA
ATOM     25  C   LIG    1       -2.872   1.153   0.568  0.00  0.00    +0.290 C 
BRANCH  23  26
ATOM     26  C   LIG    1       -4.547  -0.446  -0.468  0.00  0.00    +0.200 A 
ATOM     27  C   LIG    1       -5.091  -1.009  -1.614  0.00  0.00    +0.010 A 
ATOM     28  C   LIG    1       -6.032  -2.015  -1.509  0.00  0.00    +0.100 A 
ATOM     29  C   LIG    1       -6.443  -2.453  -0.263  0.00  0.00    -0.100 A 
ATOM     30  C   LIG    1       -5.906  -1.888   0.884  0.00  0.00    +0.140 A 
ATOM     31  F   LIG    1       -6.309  -2.318   2.100  0.00  0.00    -0.120 F 
ATOM     32 CL   LIG    1       -7.631  -3.712  -0.135  0.00  0.00    -0.050 Cl
ATOM     33  C   LIG    1       -4.959  -0.886   0.783  0.00  0.00    -0.040 A 
ENDBRANCH  23  26
ENDBRANCH   3  20
TORSDOF 4
