REMARK  Name = ZINCvU0000000E7I.0
REMARK                            x       y       z     vdW  Elec       q    Type
REMARK                         _______ _______ _______ _____ _____    ______ ____
ROOT
ATOM      1  O   LIG    1        0.050  -0.082   0.114  0.00  0.00    -0.560 OA
ATOM      2  C   LIG    1       -0.023   1.132   0.115  0.00  0.00    +0.710 C 
ATOM      3  N   LIG    1        1.101   1.874   0.075  0.00  0.00    -0.730 N 
ATOM      4  H   LIG    1        1.043   2.843   0.076  0.00  0.00    +0.400 HD
ATOM      5  N   LIG    1       -1.228   1.735   0.152  0.00  0.00    -0.680 N 
ATOM      6  H   LIG    1       -1.285   2.700   0.235  0.00  0.00    +0.410 HD
ENDROOT
BRANCH   3   7
ATOM      7  C   LIG    1        2.410   1.219   0.029  0.00  0.00    +0.290 C 
ATOM      8  C   LIG    1        2.985   1.032   1.452  0.00  0.00    +0.070 C 
ATOM      9  C   LIG    1        4.470   1.271   1.287  0.00  0.00    +0.520 C 
ATOM     10  N   LIG    1        4.712   1.887   0.117  0.00  0.00    -0.560 N 
ATOM     11  O   LIG    1        5.319   0.953   2.093  0.00  0.00    -0.490 OA
ATOM     12  C   LIG    1        3.467   2.140  -0.619  0.00  0.00    +0.280 C 
BRANCH  10  13
ATOM     13  C   LIG    1        5.986   2.243  -0.340  0.00  0.00    +0.200 A 
ATOM     14  C   LIG    1        7.112   1.869   0.381  0.00  0.00    +0.020 A 
ATOM     15  C   LIG    1        8.370   2.216  -0.074  0.00  0.00    +0.100 A 
ATOM     16  C   LIG    1        8.508   2.945  -1.242  0.00  0.00    -0.100 A 
ATOM     17  C   LIG    1        7.386   3.325  -1.961  0.00  0.00    +0.140 A 
ATOM     18  F   LIG    1        7.523   4.037  -3.100  0.00  0.00    -0.120 F 
ATOM     19 CL   LIG    1       10.089   3.384  -1.807  0.00  0.00    -0.050 Cl
ATOM     20  C   LIG    1        6.125   2.975  -1.512  0.00  0.00    -0.040 A 
ENDBRANCH  10  13
ENDBRANCH   3   7
BRANCH   5  21
ATOM     21  C   LIG    1       -2.395   0.970   0.068  0.00  0.00    +0.180 A 
ATOM     22  C   LIG    1       -2.370  -0.273  -0.546  0.00  0.00    +0.020 A 
ATOM     23  C   LIG    1       -3.524  -1.030  -0.622  0.00  0.00    +0.040 A 
ATOM     24  C   LIG    1       -4.710  -0.549  -0.098  0.00  0.00    -0.010 A 
ATOM     25  C   LIG    1       -4.751   0.689   0.511  0.00  0.00    +0.050 A 
ATOM     26  C   LIG    1       -3.594   1.458   0.600  0.00  0.00    -0.090 A 
BRANCH  26  27
ATOM     27  C   LIG    1       -3.632   2.789   1.254  0.00  0.00    -0.030 A 
ATOM     28  C   LIG    1       -4.606   3.718   0.892  0.00  0.00    +0.030 A 
ATOM     29  C   LIG    1       -4.638   4.955   1.505  0.00  0.00    +0.040 A 
ATOM     30  C   LIG    1       -3.706   5.273   2.475  0.00  0.00    +0.030 A 
ATOM     31  C   LIG    1       -2.736   4.354   2.838  0.00  0.00    -0.030 A 
ATOM     32 CL   LIG    1       -1.569   4.762   4.058  0.00  0.00    -0.060 Cl
ATOM     33  C   LIG    1       -2.698   3.112   2.236  0.00  0.00    +0.020 A 
ENDBRANCH  26  27
ENDBRANCH   5  21
TORSDOF 4
