REMARK  Name = ZINCc70000006lvz.0
REMARK                            x       y       z     vdW  Elec       q    Type
REMARK                         _______ _______ _______ _____ _____    ______ ____
ROOT
ATOM      1  C   LIG    1       -4.505  -0.837  -0.064  0.00  0.00    +0.000 A 
ATOM      2  C   LIG    1       -4.025  -0.428   1.166  0.00  0.00    +0.000 A 
ATOM      3  C   LIG    1       -2.983   0.486   1.214  0.00  0.00    +0.060 A 
ATOM      4  C   LIG    1       -2.462   0.956   0.019  0.00  0.00    -0.020 A 
ATOM      5  C   LIG    1       -2.997   0.505  -1.173  0.00  0.00    +0.270 A 
ATOM      6  N   LIG    1       -3.985  -0.369  -1.181  0.00  0.00    -0.460 NA
ENDROOT
BRANCH   1   7
ATOM      7  C   LIG    1       -5.637  -1.831  -0.128  0.00  0.00    +0.350 C 
BRANCH   7   8
ATOM      8  N   LIG    1       -6.911  -1.112  -0.259  0.00  0.00    -0.630 N 
ATOM      9  H   LIG    1       -7.669  -1.777  -0.302  0.00  0.00    +0.430 HD
ATOM     10  H   LIG    1       -6.901  -0.559  -1.103  0.00  0.00    +0.440 HD
ATOM     11  H   LIG    1       -7.040  -0.507   0.538  0.00  0.00    +0.430 HD
ENDBRANCH   7   8
ENDBRANCH   1   7
BRANCH   4  12
ATOM     12  C   LIG    1       -1.330   1.951   0.019  0.00  0.00    -0.010 C 
BRANCH  12  13
ATOM     13  C   LIG    1       -0.015   1.215   0.009  0.00  0.00    +0.500 C 
ATOM     14  O   LIG    1        1.033   1.839   0.002  0.00  0.00    -0.680 OA
ATOM     15  O   LIG    1        0.002  -0.004   0.002  0.00  0.00    -0.690 OA
ENDBRANCH  12  13
ENDBRANCH   4  12
TORSDOF 4
