REMARK  Name = ZINCpk00000y6wmZ.0
REMARK                            x       y       z     vdW  Elec       q    Type
REMARK                         _______ _______ _______ _____ _____    ______ ____
ROOT
ATOM      1  N   LIG    1       -0.017   1.384   0.010  0.00  0.00    -0.570 N 
ATOM      2  C   LIG    1       -1.261   2.115   0.289  0.00  0.00    +0.290 C 
ATOM      3  C   LIG    1       -0.999   3.104   1.435  0.00  0.00    +0.020 C 
ATOM      4  C   LIG    1        0.186   4.000   1.067  0.00  0.00    +0.010 C 
ATOM      5  C   LIG    1        1.438   3.140   0.879  0.00  0.00    +0.230 C 
ATOM      6  C   LIG    1        1.206   2.151  -0.268  0.00  0.00    +0.300 C 
ENDROOT
BRANCH   1  12
ATOM      7  C   LIG    1       -2.401  -2.919   0.211  0.00  0.00    +0.320 C 
ATOM      8  N   LIG    1       -1.181  -2.115   0.102  0.00  0.00    -0.480 N 
ATOM      9  C   LIG    1        0.036  -2.719  -0.014  0.00  0.00    +0.160 A 
ATOM     10  C   LIG    1        1.165  -1.987  -0.115  0.00  0.00    +0.190 A 
ATOM     11  N   LIG    1        1.140  -0.655  -0.111  0.00  0.00    -0.510 NA
ATOM     12  C   LIG    1        0.002  -0.004   0.002  0.00  0.00    +0.350 A 
ATOM     13  C   LIG    1       -1.247  -0.765   0.114  0.00  0.00    +0.480 A 
ATOM     14  O   LIG    1       -2.320  -0.194   0.216  0.00  0.00    -0.520 OA
ENDBRANCH   1  12
BRANCH   5  15
ATOM     15  N   LIG    1        2.579   4.002   0.558  0.00  0.00    -0.720 N 
ATOM     16  H   LIG    1        2.825   4.156  -0.368  0.00  0.00    +0.400 HD
ATOM     17  C   LIG    1        3.286   4.580   1.549  0.00  0.00    +0.560 C 
ATOM     18  O   LIG    1        2.978   4.386   2.709  0.00  0.00    -0.510 OA
BRANCH  17  19
ATOM     19  C   LIG    1        4.436   5.448   1.225  0.00  0.00    -0.150 A 
ATOM     20  C   LIG    1        4.797   5.668  -0.106  0.00  0.00    +0.070 A 
ATOM     21  C   LIG    1        5.867   6.484  -0.403  0.00  0.00    +0.040 A 
ATOM     22  C   LIG    1        6.594   7.078   0.614  0.00  0.00    +0.050 A 
ATOM     23  C   LIG    1        6.250   6.862   1.937  0.00  0.00    +0.060 A 
ATOM     24  F   LIG    1        6.964   7.446   2.925  0.00  0.00    -0.120 F 
ATOM     25  C   LIG    1        5.173   6.050   2.250  0.00  0.00    +0.130 A 
ATOM     26  F   LIG    1        4.835   5.839   3.541  0.00  0.00    -0.100 F 
ENDBRANCH  17  19
ENDBRANCH   5  15
TORSDOF 3
