REMARK  Name = ZINCkj000005iJkJ.1
REMARK                            x       y       z     vdW  Elec       q    Type
REMARK                         _______ _______ _______ _____ _____    ______ ____
ROOT
ATOM      1  C   LIG    1        0.211   0.125  -2.447  0.00  0.00    +0.310 C 
ENDROOT
BRANCH   1   5
ATOM      2  C   LIG    1        2.455  -1.339  -5.776  0.00  0.00    +0.160 A 
ATOM      3  C   LIG    1        1.556  -2.171  -5.124  0.00  0.00    +0.000 A 
ATOM      4  C   LIG    1        0.832  -1.695  -4.048  0.00  0.00    +0.060 A 
ATOM      5  C   LIG    1        1.002  -0.391  -3.621  0.00  0.00    -0.180 A 
ATOM      6  C   LIG    1        1.893   0.442  -4.272  0.00  0.00    +0.070 A 
ATOM      7  C   LIG    1        2.624  -0.031  -5.345  0.00  0.00    -0.060 A 
BRANCH   2   9
ATOM      8  C   LIG    1        4.076  -0.892  -7.457  0.00  0.00    +0.250 C 
ATOM      9  O   LIG    1        3.169  -1.804  -6.834  0.00  0.00    -0.310 OA
ENDBRANCH   2   9
ENDBRANCH   1   5
BRANCH   1  10
ATOM     10  N   LIG    1       -0.220   1.500  -2.714  0.00  0.00    -1.100 NA
ATOM     11  H   LIG    1        0.366   2.107  -3.194  0.00  0.00    +0.430 HD
BRANCH  10  12
ATOM     12  S   LIG    1       -1.705   2.018  -2.198  0.00  0.00    +2.630 S 
ATOM     13  O   LIG    1       -2.609   1.038  -2.690  0.00  0.00    -0.940 OA
ATOM     14  O   LIG    1       -1.778   3.368  -2.636  0.00  0.00    -0.930 OA
BRANCH  12  15
ATOM     15  C   LIG    1       -1.607   1.941  -0.388  0.00  0.00    -0.550 C 
ATOM     16  C   LIG    1       -2.455   0.883   0.321  0.00  0.00    +0.100 C 
ATOM     17  C   LIG    1       -2.847   2.360   0.405  0.00  0.00    +0.120 C 
ENDBRANCH  12  15
ENDBRANCH  10  12
ENDBRANCH   1  10
BRANCH   1  18
ATOM     18  C   LIG    1        1.085   0.100  -1.191  0.00  0.00    +0.240 C 
BRANCH  18  19
ATOM     19  N   LIG    1        1.421  -1.291  -0.857  0.00  0.00    -0.380 N 
ATOM     20  C   LIG    1        2.387  -1.309   0.250  0.00  0.00    +0.320 C 
ATOM     21  C   LIG    1        0.203  -2.007  -0.456  0.00  0.00    +0.330 C 
ATOM     22  H   LIG    1        1.826  -1.742  -1.664  0.00  0.00    +0.430 HD
ENDBRANCH  18  19
ENDBRANCH   1  18
TORSDOF 7
