REMARK  Name = ZINCkj000005iigG.0
REMARK                            x       y       z     vdW  Elec       q    Type
REMARK                         _______ _______ _______ _____ _____    ______ ____
ROOT
ATOM      1  C   LIG    1        1.139   3.547   0.010  0.00  0.00    +0.190 C 
ATOM      2  C   LIG    1        0.189   4.008  -1.123  0.00  0.00    +0.070 C 
ATOM      3  C   LIG    1       -0.309   5.373  -0.578  0.00  0.00    +0.200 C 
ATOM      4  C   LIG    1       -0.403   5.129   0.943  0.00  0.00    +0.270 C 
ATOM      5  N   LIG    1        0.486   3.996   1.259  0.00  0.00    -0.380 N 
ATOM      6  H   LIG    1       -0.057   3.240   1.649  0.00  0.00    +0.430 HD
ENDROOT
BRANCH   3   7
ATOM      7  O   LIG    1       -1.592   5.700  -1.117  0.00  0.00    -0.550 OA
ATOM      8  H   LIG    1       -1.588   5.864  -2.070  0.00  0.00    +0.400 HD
ENDBRANCH   3   7
BRANCH   1   9
ATOM      9  C   LIG    1        1.280   2.024   0.001  0.00  0.00    +0.220 C 
BRANCH   9  11
ATOM     10  C   LIG    1        0.002  -0.004   0.002  0.00  0.00    +0.240 C 
ATOM     11  O   LIG    1       -0.017   1.425   0.010  0.00  0.00    -0.400 OA
ENDBRANCH   9  11
ENDBRANCH   1   9
BRANCH   5  12
ATOM     12  C   LIG    1        1.507   4.422   2.225  0.00  0.00    +0.320 C 
BRANCH  12  13
ATOM     13  C   LIG    1        0.847   4.762   3.536  0.00  0.00    -0.160 A 
ATOM     14  C   LIG    1        0.601   6.081   3.861  0.00  0.00    +0.040 A 
ATOM     15  C   LIG    1       -0.004   6.393   5.064  0.00  0.00    +0.030 A 
ATOM     16  C   LIG    1       -0.357   5.384   5.938  0.00  0.00    +0.060 A 
ATOM     17  C   LIG    1       -0.109   4.059   5.614  0.00  0.00    -0.110 A 
ATOM     18  C   LIG    1       -0.504   2.988   6.597  0.00  0.00    +0.290 C 
ATOM     19  O   LIG    1       -0.520   1.712   5.958  0.00  0.00    -0.370 OA
ATOM     20  C   LIG    1        0.693   1.420   5.254  0.00  0.00    +0.230 C 
ATOM     21  C   LIG    1        0.765   2.319   4.019  0.00  0.00    +0.040 C 
ATOM     22  C   LIG    1        0.485   3.748   4.409  0.00  0.00    -0.050 A 
ENDBRANCH  12  13
ENDBRANCH   5  12
TORSDOF 5
