REMARK  Name = ZINCkj000005iigG.1
REMARK                            x       y       z     vdW  Elec       q    Type
REMARK                         _______ _______ _______ _____ _____    ______ ____
ROOT
ATOM      1  C   LIG    1        1.464   5.564  -1.328  0.00  0.00    +0.180 C 
ATOM      2  C   LIG    1        2.792   6.187  -1.810  0.00  0.00    +0.060 C 
ATOM      3  C   LIG    1        3.474   5.015  -2.563  0.00  0.00    +0.190 C 
ATOM      4  C   LIG    1        3.042   3.801  -1.707  0.00  0.00    +0.270 C 
ATOM      5  N   LIG    1        1.654   4.103  -1.294  0.00  0.00    -0.380 N 
ATOM      6  H   LIG    1        1.007   3.661  -1.929  0.00  0.00    +0.420 HD
ENDROOT
BRANCH   3   7
ATOM      7  O   LIG    1        4.895   5.163  -2.561  0.00  0.00    -0.540 OA
ATOM      8  H   LIG    1        5.208   5.964  -3.003  0.00  0.00    +0.400 HD
ENDBRANCH   3   7
BRANCH   1   9
ATOM      9  C   LIG    1        1.123   6.078   0.072  0.00  0.00    +0.210 C 
BRANCH   9  11
ATOM     10  C   LIG    1        2.003   6.269   2.294  0.00  0.00    +0.230 C 
ATOM     11  O   LIG    1        2.220   5.825   0.953  0.00  0.00    -0.390 OA
ENDBRANCH   9  11
ENDBRANCH   1   9
BRANCH   5  12
ATOM     12  C   LIG    1        1.426   3.606   0.070  0.00  0.00    +0.320 C 
BRANCH  12  13
ATOM     13  C   LIG    1        1.153   2.125   0.026  0.00  0.00    -0.160 A 
ATOM     14  C   LIG    1       -0.146   1.667  -0.059  0.00  0.00    +0.040 A 
ATOM     15  C   LIG    1       -0.396   0.308  -0.100  0.00  0.00    +0.030 A 
ATOM     16  C   LIG    1        0.654  -0.587  -0.054  0.00  0.00    +0.060 A 
ATOM     17  C   LIG    1        1.960  -0.128   0.034  0.00  0.00    -0.110 A 
ATOM     18  C   LIG    1        3.078  -1.136   0.095  0.00  0.00    +0.280 C 
ATOM     19  O   LIG    1        4.327  -0.506  -0.187  0.00  0.00    -0.370 OA
ATOM     20  C   LIG    1        4.565   0.658   0.613  0.00  0.00    +0.220 C 
ATOM     21  C   LIG    1        3.615   1.765   0.153  0.00  0.00    +0.050 C 
ATOM     22  C   LIG    1        2.209   1.228   0.070  0.00  0.00    -0.050 A 
ENDBRANCH  12  13
ENDBRANCH   5  12
TORSDOF 5
