REMARK  Name = ZINCpk000000pFOM.2
REMARK                            x       y       z     vdW  Elec       q    Type
REMARK                         _______ _______ _______ _____ _____    ______ ____
ROOT
ATOM      1  C   LIG    1       -3.509   2.464   2.153  0.00  0.00    +0.530 C 
ATOM      2  N   LIG    1       -2.476   3.296   1.916  0.00  0.00    -0.600 N 
ATOM      3  O   LIG    1       -3.566   1.392   1.588  0.00  0.00    -0.510 OA
ENDROOT
BRANCH   2   4
ATOM      4  C   LIG    1       -1.468   2.946   0.912  0.00  0.00    +0.270 C 
ATOM      5  C   LIG    1       -0.750   1.645   1.318  0.00  0.00    +0.070 C 
ATOM      6  C   LIG    1        0.043   1.121   0.104  0.00  0.00    -0.310 C 
ATOM      7  S   LIG    1       -0.864   1.735  -1.361  0.00  0.00    +2.390 S 
ATOM      8  O   LIG    1       -1.466   0.639  -2.036  0.00  0.00    -0.930 OA
ATOM      9  O   LIG    1       -0.040   2.644  -2.079  0.00  0.00    -0.940 OA
ATOM     10  C   LIG    1       -2.151   2.670  -0.452  0.00  0.00    -0.310 C 
ENDBRANCH   2   4
BRANCH   1  11
ATOM     11  C   LIG    1       -4.594   2.865   3.119  0.00  0.00    +0.220 C 
BRANCH  11  17
ATOM     12  C   LIG    1       -6.370   1.948   4.485  0.00  0.00    +0.130 C 
ATOM     13  C   LIG    1       -7.227   0.702   4.722  0.00  0.00    +0.040 C 
ATOM     14  C   LIG    1       -8.101   0.447   3.491  0.00  0.00    +0.000 C 
ATOM     15  C   LIG    1       -7.202   0.288   2.261  0.00  0.00    +0.020 C 
ATOM     16  C   LIG    1       -6.347   1.546   2.095  0.00  0.00    +0.180 C 
ATOM     17  N   LIG    1       -5.529   1.746   3.298  0.00  0.00    -0.510 NA
BRANCH  12  19
ATOM     18  C   LIG    1       -4.493   1.036   5.859  0.00  0.00    +0.020 C 
ATOM     19  C   LIG    1       -5.481   2.195   5.705  0.00  0.00    +0.010 C 
ENDBRANCH  12  19
ENDBRANCH  11  17
ENDBRANCH   1  11
BRANCH   2  20
ATOM     20  C   LIG    1       -2.361   4.551   2.663  0.00  0.00    +0.290 C 
BRANCH  20  21
ATOM     21  C   LIG    1       -3.095   5.662   1.910  0.00  0.00    +0.150 C 
ATOM     22  C   LIG    1       -2.882   7.011   2.629  0.00  0.00    +0.020 C 
ATOM     23  C   LIG    1       -4.279   7.678   2.498  0.00  0.00    +0.010 C 
ATOM     24  C   LIG    1       -5.206   6.440   2.588  0.00  0.00    +0.200 C 
ATOM     25  O   LIG    1       -4.502   5.394   1.900  0.00  0.00    -0.370 OA
ENDBRANCH  20  21
ENDBRANCH   2  20
TORSDOF 6
