REMARK  Name = ZINC9l0000002q6Y.0
REMARK                            x       y       z     vdW  Elec       q    Type
REMARK                         _______ _______ _______ _____ _____    ______ ____
ROOT
ATOM      1  C   LIG    1       -0.013   1.086   0.008  0.00  0.00    +0.010 C 
ATOM      2  C   LIG    1       -0.729   1.579   1.267  0.00  0.00    -0.040 C 
ATOM      3  C   LIG    1        0.036   1.119   2.525  0.00  0.00    -0.010 C 
ATOM      4  C   LIG    1       -0.098   2.309   3.507  0.00  0.00    +0.020 C 
ATOM      5  C   LIG    1        0.018   3.539   2.573  0.00  0.00    -0.100 C 
ATOM      6  C   LIG    1       -0.742   3.118   1.297  0.00  0.00    +0.030 C 
ENDROOT
BRANCH   5   7
ATOM      7  C   LIG    1       -0.636   4.742   3.202  0.00  0.00    +0.500 C 
ATOM      8  O   LIG    1       -1.583   5.278   2.653  0.00  0.00    -0.700 OA
ATOM      9  O   LIG    1       -0.217   5.180   4.260  0.00  0.00    -0.700 OA
ENDBRANCH   5   7
TORSDOF 1
