REMARK  Name = ZINCrH000004q8fI.0
REMARK                            x       y       z     vdW  Elec       q    Type
REMARK                         _______ _______ _______ _____ _____    ______ ____
ROOT
ATOM      1  C   LIG    1       -2.837   0.464   1.330  0.00  0.00    +0.140 C 
ATOM      2  C   LIG    1       -2.448   1.904   1.113  0.00  0.00    -0.060 A 
ATOM      3  C   LIG    1       -1.211   2.369   0.796  0.00  0.00    -0.060 A 
ATOM      4  O   LIG    1       -1.258   3.714   0.679  0.00  0.00    -0.160 OA
ATOM      5  C   LIG    1       -2.509   4.149   0.918  0.00  0.00    +0.080 A 
ATOM      6  C   LIG    1       -3.100   5.431   0.927  0.00  0.00    -0.030 A 
ATOM      7  C   LIG    1       -2.344   6.580   0.649  0.00  0.00    +0.030 A 
ATOM      8  C   LIG    1       -2.944   7.804   0.667  0.00  0.00    +0.010 A 
ATOM      9  C   LIG    1       -4.299   7.931   0.960  0.00  0.00    +0.030 A 
ATOM     10  C   LIG    1       -5.061   6.836   1.236  0.00  0.00    +0.020 A 
ATOM     11  C   LIG    1       -4.477   5.560   1.226  0.00  0.00    -0.020 A 
ATOM     12  C   LIG    1       -5.246   4.410   1.509  0.00  0.00    +0.020 A 
ATOM     13  C   LIG    1       -4.672   3.184   1.497  0.00  0.00    +0.070 A 
ATOM     14  C   LIG    1       -3.302   3.032   1.203  0.00  0.00    -0.140 A 
ENDROOT
BRANCH   3  15
ATOM     15  C   LIG    1       -0.013   1.541   0.607  0.00  0.00    +0.600 C 
ATOM     16  N   LIG    1        1.161   2.118   0.282  0.00  0.00    -0.710 N 
ATOM     17  H   LIG    1        1.216   3.080   0.178  0.00  0.00    +0.410 HD
ATOM     18  O   LIG    1       -0.082   0.333   0.737  0.00  0.00    -0.520 OA
BRANCH  16  19
ATOM     19  C   LIG    1        2.354   1.290   0.087  0.00  0.00    +0.280 C 
BRANCH  19  20
ATOM     20  C   LIG    1        3.567   2.193  -0.146  0.00  0.00    +0.090 C 
ATOM     21  C   LIG    1        4.786   1.332  -0.483  0.00  0.00    +0.020 C 
ATOM     22  C   LIG    1        3.851   3.004   1.120  0.00  0.00    +0.060 C 
BRANCH  20  23
ATOM     23  N   LIG    1        3.290   3.108  -1.262  0.00  0.00    -0.530 NA
ATOM     24  C   LIG    1        2.960   2.362  -2.485  0.00  0.00    +0.150 C 
ATOM     25  C   LIG    1        2.621   3.351  -3.603  0.00  0.00    +0.220 C 
ATOM     26  O   LIG    1        3.723   4.244  -3.793  0.00  0.00    -0.380 OA
ATOM     27  C   LIG    1        4.071   4.986  -2.622  0.00  0.00    +0.220 C 
ATOM     28  C   LIG    1        4.424   4.014  -1.494  0.00  0.00    +0.150 C 
ENDBRANCH  20  23
ENDBRANCH  19  20
ENDBRANCH  16  19
ENDBRANCH   3  15
TORSDOF 4
