REMARK  Name = ZINCqH00000334JH.0
REMARK                            x       y       z     vdW  Elec       q    Type
REMARK                         _______ _______ _______ _____ _____    ______ ____
ROOT
ATOM      1  C   LIG    1       -2.705   3.599  -0.241  0.00  0.00    +0.540 C 
ATOM      2  N   LIG    1       -2.748   4.946  -0.285  0.00  0.00    -0.650 N 
ATOM      3  H   LIG    1       -1.979   5.465  -0.002  0.00  0.00    +0.420 HD
ATOM      4  O   LIG    1       -3.696   2.950  -0.516  0.00  0.00    -0.490 OA
ENDROOT
BRANCH   2   5
ATOM      5  C   LIG    1       -3.904   5.595  -0.737  0.00  0.00    +0.160 A 
ATOM      6  C   LIG    1       -5.153   5.053  -0.476  0.00  0.00    +0.010 A 
ATOM      7  C   LIG    1       -6.295   5.698  -0.924  0.00  0.00    +0.130 A 
ATOM      8  C   LIG    1       -6.189   6.886  -1.635  0.00  0.00    -0.040 A 
ATOM      9  C   LIG    1       -4.943   7.428  -1.897  0.00  0.00    +0.000 A 
ATOM     10 CL   LIG    1       -7.620   7.692  -2.195  0.00  0.00    -0.050 Cl
ATOM     11  C   LIG    1       -3.800   6.790  -1.446  0.00  0.00    +0.080 A 
BRANCH   7  12
ATOM     12  O   LIG    1       -7.521   5.167  -0.669  0.00  0.00    -0.300 OA
ATOM     13  C   LIG    1       -7.556   3.942   0.067  0.00  0.00    +0.250 C 
ENDBRANCH   7  12
BRANCH  11  14
ATOM     14  O   LIG    1       -2.576   7.328  -1.699  0.00  0.00    -0.320 OA
ATOM     15  C   LIG    1       -2.545   8.555  -2.431  0.00  0.00    +0.250 C 
ENDBRANCH  11  14
ENDBRANCH   2   5
BRANCH   1  21
ATOM     16  C   LIG    1       -1.436   1.524   0.299  0.00  0.00    -0.610 A 
ATOM     17  C   LIG    1       -0.267   0.889   0.661  0.00  0.00    +0.130 A 
ATOM     18  C   LIG    1        0.890   1.623   0.857  0.00  0.00    +0.030 A 
ATOM     19  C   LIG    1        0.881   2.997   0.697  0.00  0.00    +0.070 A 
ATOM     20  C   LIG    1       -0.284   3.645   0.341  0.00  0.00    +0.040 A 
ATOM     21  C   LIG    1       -1.454   2.912   0.141  0.00  0.00    -0.050 A 
BRANCH  16  22
ATOM     22  S   LIG    1       -2.907   0.588   0.043  0.00  0.00    +2.500 S 
ATOM     23  O   LIG    1       -3.892   1.266   0.810  0.00  0.00    -0.910 OA
ATOM     24  O   LIG    1       -2.529  -0.747   0.350  0.00  0.00    -0.950 OA
BRANCH  22  25
ATOM     25  C   LIG    1       -3.251   0.761  -1.730  0.00  0.00    -0.330 C 
BRANCH  25  27
ATOM     26  C   LIG    1       -4.885   0.252  -3.550  0.00  0.00    +0.040 C 
ATOM     27  C   LIG    1       -4.595   0.106  -2.055  0.00  0.00    +0.040 C 
ENDBRANCH  25  27
ENDBRANCH  22  25
ENDBRANCH  16  22
ENDBRANCH   1  21
TORSDOF 7
