REMARK  Name = ZINCtV00000tRS8Y.0
REMARK                            x       y       z     vdW  Elec       q    Type
REMARK                         _______ _______ _______ _____ _____    ______ ____
ROOT
ATOM      1  C   LIG    1        5.729  -0.501  -3.116  0.00  0.00    -0.080 A 
ATOM      2  C   LIG    1        6.334  -0.899  -1.920  0.00  0.00    +0.030 A 
ATOM      3  C   LIG    1        5.881  -0.396  -0.718  0.00  0.00    +0.060 A 
ATOM      4  C   LIG    1        4.832   0.505  -0.692  0.00  0.00    -0.040 A 
ATOM      5  C   LIG    1        4.220   0.902  -1.874  0.00  0.00    +0.130 A 
ATOM      6  C   LIG    1        4.666   0.405  -3.086  0.00  0.00    +0.020 A 
ENDROOT
BRANCH   1   8
ATOM      7  C   LIG    1        5.332  -1.313  -5.386  0.00  0.00    -0.630 C 
ATOM      8  C   LIG    1        6.209  -1.036  -4.401  0.00  0.00    +0.310 C 
BRANCH   7   9
ATOM      9  S   LIG    1        5.916  -1.768  -6.985  0.00  0.00    +2.590 S 
ATOM     10  O   LIG    1        7.335  -1.785  -6.903  0.00  0.00    -0.920 OA
ATOM     11  O   LIG    1        5.201  -0.968  -7.916  0.00  0.00    -0.910 OA
BRANCH   9  12
ATOM     12  C   LIG    1        5.414  -3.433  -7.269  0.00  0.00    -0.660 A 
ATOM     13  C   LIG    1        6.242  -4.477  -6.901  0.00  0.00    +0.160 A 
ATOM     14  C   LIG    1        5.847  -5.783  -7.120  0.00  0.00    +0.020 A 
ATOM     15  C   LIG    1        4.627  -6.045  -7.717  0.00  0.00    +0.020 A 
ATOM     16  C   LIG    1        3.801  -5.000  -8.091  0.00  0.00    +0.020 A 
ATOM     17 CL   LIG    1        4.133  -7.685  -7.999  0.00  0.00    -0.050 Cl
ATOM     18  C   LIG    1        4.195  -3.694  -7.866  0.00  0.00    +0.140 A 
ENDBRANCH   9  12
ENDBRANCH   7   9
BRANCH   7  20
ATOM     19  N   LIG    1        2.808  -1.177  -4.933  0.00  0.00    -0.380 NA
ATOM     20  C   LIG    1        3.924  -1.237  -5.133  0.00  0.00    +0.260 C 
ENDBRANCH   7  20
ENDBRANCH   1   8
BRANCH   5  21
ATOM     21  O   LIG    1        3.187   1.785  -1.841  0.00  0.00    -0.300 OA
BRANCH  21  22
ATOM     22  C   LIG    1        2.779   2.257  -0.555  0.00  0.00    +0.260 C 
BRANCH  22  23
ATOM     23  C   LIG    1        1.630   3.219  -0.715  0.00  0.00    -0.090 A 
ATOM     24  C   LIG    1        0.329   2.750  -0.700  0.00  0.00    +0.040 A 
ATOM     25  C   LIG    1       -0.725   3.631  -0.852  0.00  0.00    +0.050 A 
ATOM     26  C   LIG    1       -0.479   4.983  -1.009  0.00  0.00    -0.080 A 
ATOM     27  C   LIG    1        0.822   5.452  -1.025  0.00  0.00    +0.050 A 
ATOM     28 BR   LIG    1       -1.921   6.189  -1.210  0.00  0.00    -0.040 Br
ATOM     29  C   LIG    1        1.876   4.569  -0.878  0.00  0.00    +0.050 A 
ENDBRANCH  22  23
ENDBRANCH  21  22
ENDBRANCH   5  21
TORSDOF 7
