REMARK  Name = ZINCpe00000VVH28.0
REMARK                            x       y       z     vdW  Elec       q    Type
REMARK                         _______ _______ _______ _____ _____    ______ ____
ROOT
ATOM      1  C   LIG    1       -0.014   1.209   0.009  0.00  0.00    +0.520 C 
ATOM      2  N   LIG    1        1.143   1.898   0.001  0.00  0.00    -0.620 N 
ATOM      3  C   LIG    1        1.146   3.369   0.003  0.00  0.00    +0.280 C 
ATOM      4  C   LIG    1        2.069   3.848   1.135  0.00  0.00    +0.170 C 
ATOM      5  N   LIG    1        3.390   3.225   0.980  0.00  0.00    -0.530 NA
ATOM      6  C   LIG    1        3.309   1.765   1.112  0.00  0.00    +0.170 C 
ATOM      7  C   LIG    1        2.438   1.200  -0.015  0.00  0.00    +0.300 C 
ATOM      8  O   LIG    1        0.002  -0.004   0.002  0.00  0.00    -0.540 OA
ENDROOT
BRANCH   1   9
ATOM      9  C   LIG    1       -1.330   1.944   0.019  0.00  0.00    +0.040 C 
BRANCH   9  10
ATOM     10  C   LIG    1       -2.479   0.934   0.019  0.00  0.00    +0.320 C 
BRANCH  10  16
ATOM     11  O   LIG    1       -4.060   1.815  -2.213  0.00  0.00    -0.530 OA
ATOM     12  C   LIG    1       -4.425   2.025  -1.076  0.00  0.00    +0.510 C 
ATOM     13  C   LIG    1       -5.698   2.748  -0.694  0.00  0.00    +0.050 C 
ATOM     14  C   LIG    1       -5.492   3.118   0.794  0.00  0.00    +0.040 C 
ATOM     15  C   LIG    1       -4.477   2.042   1.246  0.00  0.00    +0.250 C 
ATOM     16  N   LIG    1       -3.757   1.649   0.029  0.00  0.00    -0.620 N 
ENDBRANCH  10  16
ENDBRANCH   9  10
ENDBRANCH   1   9
BRANCH   5  17
ATOM     17  C   LIG    1        4.353   3.788   1.936  0.00  0.00    +0.160 C 
BRANCH  17  18
ATOM     18  C   LIG    1        4.230   5.313   1.945  0.00  0.00    +0.260 C 
BRANCH  18  19
ATOM     19  C   LIG    1        5.218   5.891   2.925  0.00  0.00    -0.120 A 
ATOM     20  C   LIG    1        6.523   6.125   2.535  0.00  0.00    +0.010 A 
ATOM     21  C   LIG    1        7.428   6.659   3.433  0.00  0.00    +0.000 A 
ATOM     22  C   LIG    1        7.031   6.950   4.724  0.00  0.00    +0.000 A 
ATOM     23  C   LIG    1        5.727   6.711   5.117  0.00  0.00    +0.000 A 
ATOM     24  C   LIG    1        4.821   6.181   4.217  0.00  0.00    +0.010 A 
ENDBRANCH  18  19
BRANCH  18  25
ATOM     25  O   LIG    1        4.504   5.821   0.638  0.00  0.00    -0.540 OA
ATOM     26  H   LIG    1        5.389   5.608   0.310  0.00  0.00    +0.380 HD
ENDBRANCH  18  25
ENDBRANCH  17  18
ENDBRANCH   5  17
TORSDOF 7
