REMARK  Name = ZINCpk00000KfKyb.0
REMARK                            x       y       z     vdW  Elec       q    Type
REMARK                         _______ _______ _______ _____ _____    ______ ____
ROOT
ATOM      1  O   LIG    1        0.690  -2.184   3.490  0.00  0.00    -0.570 OA
ATOM      2  C   LIG    1        0.780  -2.710   2.397  0.00  0.00    +0.710 C 
ATOM      3  N   LIG    1        0.860  -4.052   2.299  0.00  0.00    -0.600 N 
ATOM      4  N   LIG    1        0.799  -1.950   1.284  0.00  0.00    -0.740 N 
ATOM      5  H   LIG    1        0.944  -2.363   0.418  0.00  0.00    +0.390 HD
ENDROOT
BRANCH   4   6
ATOM      6  C   LIG    1        0.602  -0.502   1.382  0.00  0.00    +0.340 C 
ATOM      7  C   LIG    1        0.055   0.036   0.054  0.00  0.00    +0.020 C 
ATOM      8  C   LIG    1        0.092   1.566   0.068  0.00  0.00    +0.040 C 
ATOM      9  C   LIG    1        1.548   2.043  -0.006  0.00  0.00    +0.100 C 
ATOM     10  C   LIG    1        2.344   1.305   1.040  0.00  0.00    +0.090 A 
ATOM     11  N   LIG    1        3.555   1.615   1.531  0.00  0.00    -0.360 N 
ATOM     12  N   LIG    1        3.893   0.646   2.487  0.00  0.00    -0.300 NA
ATOM     13  C   LIG    1        2.910  -0.218   2.561  0.00  0.00    +0.260 A 
ATOM     14  C   LIG    1        1.922   0.173   1.660  0.00  0.00    -0.250 A 
BRANCH  11  15
ATOM     15  C   LIG    1        4.377   2.763   1.138  0.00  0.00    +0.330 C 
BRANCH  15  16
ATOM     16  C   LIG    1        5.285   2.365  -0.027  0.00  0.00    +0.170 C 
BRANCH  16  17
ATOM     17  O   LIG    1        6.087   3.484  -0.411  0.00  0.00    -0.570 OA
ATOM     18  H   LIG    1        6.688   3.303  -1.146  0.00  0.00    +0.390 HD
ENDBRANCH  16  17
ENDBRANCH  15  16
ENDBRANCH  11  15
ENDBRANCH   4   6
BRANCH   3  19
ATOM     19  C   LIG    1        0.706  -4.884   3.495  0.00  0.00    +0.210 C 
ATOM     20  C   LIG    1        0.084  -4.234   4.733  0.00  0.00    +0.040 C 
ATOM     21  C   LIG    1        1.582  -4.551   4.705  0.00  0.00    +0.000 C 
ENDBRANCH   3  19
BRANCH   3  22
ATOM     22  C   LIG    1        1.101  -4.678   0.997  0.00  0.00    +0.290 C 
BRANCH  22  23
ATOM     23  C   LIG    1        2.607  -4.828   0.773  0.00  0.00    -0.050 C 
ATOM     24  C   LIG    1        2.903  -5.371  -0.646  0.00  0.00    +0.010 C 
ATOM     25  C   LIG    1        4.042  -6.386  -0.431  0.00  0.00    +0.190 C 
ATOM     26  O   LIG    1        4.376  -6.364   0.967  0.00  0.00    -0.380 OA
ATOM     27  C   LIG    1        3.192  -5.943   1.677  0.00  0.00    +0.210 C 
ENDBRANCH  22  23
ENDBRANCH   3  22
TORSDOF 7
