REMARK  Name = ZINCpk00000KfKYb.1
REMARK                            x       y       z     vdW  Elec       q    Type
REMARK                         _______ _______ _______ _____ _____    ______ ____
ROOT
ATOM      1  C   LIG    1        0.018   1.055  -0.631  0.00  0.00    -0.290 C 
ATOM      2  C   LIG    1        0.068  -0.104   0.060  0.00  0.00    +0.270 C 
ATOM      3  N   LIG    1        1.212  -0.498   0.693  0.00  0.00    -0.640 N 
ATOM      4  H   LIG    1        1.201  -1.338   1.177  0.00  0.00    +0.430 HD
ATOM      5  C   LIG    1        2.349   0.210   0.682  0.00  0.00    +0.700 C 
ATOM      6  N   LIG    1        2.454   1.388   0.035  0.00  0.00    -0.710 N 
ATOM      7  H   LIG    1        3.287   1.885   0.040  0.00  0.00    +0.430 HD
ATOM      8  O   LIG    1        3.317  -0.223   1.275  0.00  0.00    -0.560 OA
ATOM      9  C   LIG    1        1.274   1.902  -0.681  0.00  0.00    +0.270 C 
ATOM     10  C   LIG    1        0.937   3.279  -0.106  0.00  0.00    +0.040 C 
ENDROOT
BRANCH   1  11
ATOM     11  C   LIG    1       -1.165   1.462  -1.292  0.00  0.00    +0.540 C 
ATOM     12  O   LIG    1       -2.123   0.714  -1.339  0.00  0.00    -0.520 OA
BRANCH  11  13
ATOM     13  O   LIG    1       -1.230   2.680  -1.870  0.00  0.00    -0.350 OA
BRANCH  13  15
ATOM     14  C   LIG    1       -2.341   4.431  -3.110  0.00  0.00    +0.070 C 
ATOM     15  C   LIG    1       -2.455   3.025  -2.519  0.00  0.00    +0.200 C 
ENDBRANCH  13  15
ENDBRANCH  11  13
ENDBRANCH   1  11
BRANCH   2  16
ATOM     16  C   LIG    1       -1.159  -0.976   0.136  0.00  0.00    +0.260 C 
BRANCH  16  17
ATOM     17  N   LIG    1       -1.201  -1.863  -1.034  0.00  0.00    -0.670 NA
ATOM     18  H   LIG    1       -1.170  -1.333  -1.892  0.00  0.00    +0.350 HD
BRANCH  17  19
ATOM     19  C   LIG    1       -2.386  -2.730  -0.995  0.00  0.00    +0.210 C 
BRANCH  19  20
ATOM     20  C   LIG    1       -2.396  -3.638  -2.226  0.00  0.00    +0.190 C 
BRANCH  20  21
ATOM     21  O   LIG    1       -1.277  -4.525  -2.173  0.00  0.00    -0.300 OA
BRANCH  21  22
ATOM     22  C   LIG    1       -1.137  -5.404  -3.199  0.00  0.00    +0.130 A 
ATOM     23  C   LIG    1       -2.061  -5.417  -4.234  0.00  0.00    -0.080 A 
ATOM     24  C   LIG    1       -1.913  -6.307  -5.280  0.00  0.00    +0.040 A 
ATOM     25  C   LIG    1       -0.852  -7.194  -5.290  0.00  0.00    -0.130 A 
ATOM     26  C   LIG    1        0.067  -7.187  -4.256  0.00  0.00    +0.050 A 
ATOM     27  C   LIG    1       -0.697  -8.169  -6.428  0.00  0.00    +0.090 C 
ATOM     28  C   LIG    1       -0.073  -6.294  -3.212  0.00  0.00    -0.020 A 
ENDBRANCH  21  22
ENDBRANCH  20  21
ENDBRANCH  19  20
ENDBRANCH  17  19
ENDBRANCH  16  17
ENDBRANCH   2  16
TORSDOF 9
