REMARK  Name = ZINCrH00000No52V.0
REMARK                            x       y       z     vdW  Elec       q    Type
REMARK                         _______ _______ _______ _____ _____    ______ ____
ROOT
ATOM      1  C   LIG    1       -0.018   1.463   0.010  0.00  0.00    -0.240 A 
ATOM      2  C   LIG    1        1.304   1.870  -0.000  0.00  0.00    +0.290 A 
ATOM      3  N   LIG    1        2.072   0.769  -0.014  0.00  0.00    -0.350 N 
ATOM      4  N   LIG    1        1.264  -0.371  -0.012  0.00  0.00    -0.270 NA
ATOM      5  C   LIG    1        0.002  -0.004   0.002  0.00  0.00    +0.150 A 
ENDROOT
BRANCH   5   6
ATOM      6  C   LIG    1       -1.177  -0.902   0.009  0.00  0.00    -0.020 A 
ATOM      7  C   LIG    1       -2.323  -0.547   0.719  0.00  0.00    +0.030 A 
ATOM      8  C   LIG    1       -3.420  -1.385   0.717  0.00  0.00    +0.010 A 
ATOM      9  C   LIG    1       -3.380  -2.580   0.022  0.00  0.00    +0.020 A 
ATOM     10  C   LIG    1       -2.243  -2.940  -0.679  0.00  0.00    +0.010 A 
ATOM     11  C   LIG    1       -1.143  -2.108  -0.690  0.00  0.00    +0.040 A 
ENDBRANCH   5   6
BRANCH   1  13
ATOM     12  C   LIG    1       -1.061   3.672   0.027  0.00  0.00    -0.110 C 
ATOM     13  C   LIG    1       -1.204   2.327   0.021  0.00  0.00    +0.210 C 
BRANCH  12  14
ATOM     14  C   LIG    1       -2.205   4.505   0.037  0.00  0.00    +0.510 C 
ATOM     15  O   LIG    1       -3.317   4.011   0.040  0.00  0.00    -0.520 OA
BRANCH  14  16
ATOM     16  O   LIG    1       -2.063   5.847   0.044  0.00  0.00    -0.340 OA
BRANCH  16  17
ATOM     17  C   LIG    1       -3.260   6.627   0.054  0.00  0.00    +0.210 C 
BRANCH  17  19
ATOM     18  C   LIG    1       -3.998   9.130   0.071  0.00  0.00    +0.090 C 
ATOM     19  C   LIG    1       -2.906   8.091   0.060  0.00  0.00    +0.350 C 
ATOM     20  O   LIG    1       -1.748   8.432   0.057  0.00  0.00    -0.440 OA
ENDBRANCH  17  19
ENDBRANCH  16  17
ENDBRANCH  14  16
ENDBRANCH  12  14
ENDBRANCH   1  13
BRANCH   3  21
ATOM     21  C   LIG    1        3.537   0.764  -0.027  0.00  0.00    +0.380 C 
BRANCH  21  22
ATOM     22  C   LIG    1        4.047  -0.059   1.128  0.00  0.00    -0.120 A 
ATOM     23  C   LIG    1        4.297   0.543   2.348  0.00  0.00    +0.020 A 
ATOM     24  C   LIG    1        4.760  -0.212   3.409  0.00  0.00    +0.010 A 
ATOM     25  C   LIG    1        4.984  -1.567   3.247  0.00  0.00    +0.010 A 
ATOM     26  C   LIG    1        4.739  -2.167   2.026  0.00  0.00    +0.010 A 
ATOM     27  C   LIG    1        4.271  -1.413   0.967  0.00  0.00    +0.040 A 
ENDBRANCH  21  22
ENDBRANCH   3  21
TORSDOF 8
