REMARK  Name = ZINCvU0000000Ai3.0
REMARK                            x       y       z     vdW  Elec       q    Type
REMARK                         _______ _______ _______ _____ _____    ______ ____
ROOT
ATOM      1  O   LIG    1       -2.103   4.234   0.444  0.00  0.00    -0.510 OA
ATOM      2  C   LIG    1       -1.105   3.649   0.065  0.00  0.00    +0.660 C 
ATOM      3  N   LIG    1       -1.151   2.320  -0.120  0.00  0.00    -0.530 NA
ATOM      4  C   LIG    1       -0.063   1.610  -0.249  0.00  0.00    +0.330 C 
ATOM      5  C   LIG    1        1.292   2.264  -0.166  0.00  0.00    +0.110 C 
ATOM      6  C   LIG    1        1.202   3.686  -0.725  0.00  0.00    +0.330 C 
ATOM      7  N   LIG    1        0.019   4.349  -0.167  0.00  0.00    -0.740 N 
ATOM      8  H   LIG    1        0.048   5.297   0.037  0.00  0.00    +0.420 HD
ENDROOT
BRANCH   5   9
ATOM      9  C   LIG    1        2.286   1.468  -0.972  0.00  0.00    +0.070 A 
ATOM     10  N   LIG    1        2.115   1.129  -2.193  0.00  0.00    -0.450 NA
ATOM     11  C   LIG    1        3.090   0.419  -2.792  0.00  0.00    +0.080 A 
ATOM     12  C   LIG    1        3.164  -0.077  -4.109  0.00  0.00    +0.070 A 
ATOM     13  C   LIG    1        4.251  -0.787  -4.519  0.00  0.00    +0.040 A 
ATOM     14  C   LIG    1        5.305  -1.037  -3.651  0.00  0.00    +0.050 A 
ATOM     15  C   LIG    1        5.260  -0.564  -2.358  0.00  0.00    +0.060 A 
ATOM     16  C   LIG    1        4.156   0.164  -1.921  0.00  0.00    -0.180 A 
ATOM     17  S   LIG    1        3.777   0.899  -0.367  0.00  0.00    +0.170 S 
ENDBRANCH   5   9
BRANCH   6  18
ATOM     18  C   LIG    1        1.087   3.631  -2.227  0.00  0.00    -0.040 A 
ATOM     19  C   LIG    1       -0.148   3.773  -2.831  0.00  0.00    +0.040 A 
ATOM     20  C   LIG    1       -0.253   3.722  -4.209  0.00  0.00    +0.080 A 
ATOM     21  C   LIG    1        0.876   3.529  -4.981  0.00  0.00    +0.040 A 
ATOM     22  C   LIG    1        2.111   3.387  -4.377  0.00  0.00    +0.100 A 
ATOM     23  C   LIG    1        2.217   3.442  -3.000  0.00  0.00    +0.010 A 
BRANCH  23  24
ATOM     24  N   LIG    1        3.540   3.295  -2.353  0.00  0.00    +0.020 N 
ATOM     25  O   LIG    1        3.633   3.340  -1.139  0.00  0.00    -0.170 OA
ATOM     26  O   LIG    1        4.536   3.129  -3.034  0.00  0.00    -0.160 OA
ENDBRANCH  23  24
ENDBRANCH   6  18
BRANCH   4  27
ATOM     27  C   LIG    1       -0.161   0.163  -0.483  0.00  0.00    -0.080 A 
ATOM     28  C   LIG    1       -1.236  -0.361  -1.211  0.00  0.00    +0.080 A 
ATOM     29  C   LIG    1       -1.318  -1.720  -1.431  0.00  0.00    +0.000 A 
ATOM     30  C   LIG    1       -0.346  -2.566  -0.925  0.00  0.00    +0.040 A 
ATOM     31  C   LIG    1        0.717  -2.057  -0.199  0.00  0.00    +0.010 A 
ATOM     32  C   LIG    1        0.817  -0.700   0.025  0.00  0.00    +0.040 A 
ENDBRANCH   4  27
TORSDOF 4
