REMARK  Name = ZINCpk000000nTGo.0
REMARK                            x       y       z     vdW  Elec       q    Type
REMARK                         _______ _______ _______ _____ _____    ______ ____
ROOT
ATOM      1  C   LIG    1        0.002  -0.004   0.002  0.00  0.00    +0.330 C 
ENDROOT
BRANCH   1   2
ATOM      2  N   LIG    1       -0.018   1.461   0.010  0.00  0.00    -0.560 N 
ATOM      3  C   LIG    1        1.143   2.135   0.003  0.00  0.00    +0.710 A 
ATOM      4  N   LIG    1        1.206   3.477   0.009  0.00  0.00    -0.640 N 
ATOM      5  H   LIG    1        2.070   3.918   0.004  0.00  0.00    +0.440 HD
ATOM      6  C   LIG    1        0.046   4.239   0.024  0.00  0.00    +0.200 A 
ATOM      7  C   LIG    1        0.088   5.625   0.032  0.00  0.00    -0.020 A 
ATOM      8  C   LIG    1       -1.090   6.346   0.048  0.00  0.00    +0.100 A 
ATOM      9  C   LIG    1       -2.315   5.698   0.056  0.00  0.00    -0.010 A 
ATOM     10  C   LIG    1       -2.376   4.320   0.048  0.00  0.00    +0.140 A 
ATOM     11  C   LIG    1       -1.196   3.581   0.032  0.00  0.00    -0.200 A 
ATOM     12  O   LIG    1        2.182   1.504  -0.010  0.00  0.00    -0.540 OA
ATOM     13  C   LIG    1       -1.204   2.107   0.019  0.00  0.00    +0.560 A 
ATOM     14  O   LIG    1       -2.251   1.489   0.021  0.00  0.00    -0.490 OA
ENDBRANCH   1   2
BRANCH   1  15
ATOM     15  C   LIG    1        0.023  -0.522   1.442  0.00  0.00    +0.030 C 
BRANCH  15  16
ATOM     16  C   LIG    1        0.043  -2.052   1.433  0.00  0.00    +0.230 C 
BRANCH  16  17
ATOM     17  O   LIG    1        0.063  -2.543   2.799  0.00  0.00    -0.350 OA
BRANCH  17  18
ATOM     18  C   LIG    1        0.083  -3.874   2.968  0.00  0.00    +0.470 C 
ATOM     19  O   LIG    1        0.084  -4.605   2.006  0.00  0.00    -0.500 OA
BRANCH  18  21
ATOM     20  C   LIG    1       -1.142  -4.005   5.122  0.00  0.00    +0.070 C 
ATOM     21  C   LIG    1        0.104  -4.458   4.357  0.00  0.00    -0.050 C 
ATOM     22  C   LIG    1        1.360  -3.983   5.094  0.00  0.00    +0.020 C 
ATOM     23  C   LIG    1        1.413  -4.642   6.474  0.00  0.00    +0.220 C 
ATOM     24  O   LIG    1        1.398  -6.063   6.323  0.00  0.00    -0.380 OA
ATOM     25  C   LIG    1        0.225  -6.569   5.683  0.00  0.00    +0.220 C 
ATOM     26  C   LIG    1        0.124  -5.987   4.271  0.00  0.00    +0.020 C 
ENDBRANCH  18  21
ENDBRANCH  17  18
ENDBRANCH  16  17
ENDBRANCH  15  16
ENDBRANCH   1  15
TORSDOF 6
