REMARK  Name = ZINCfA000000beE7.1
REMARK                            x       y       z     vdW  Elec       q    Type
REMARK                         _______ _______ _______ _____ _____    ______ ____
ROOT
ATOM      1  C   LIG    1        0.000   1.080   2.488  0.00  0.00    +0.060 A 
ATOM      2  N   LIG    1        0.956   1.707   3.085  0.00  0.00    -0.470 NA
ATOM      3  C   LIG    1        1.486   1.128   4.143  0.00  0.00    +0.000 A 
ATOM      4  C   LIG    1        0.947  -0.054   4.456  0.00  0.00    -0.050 A 
ATOM      5  S   LIG    1       -0.325  -0.396   3.286  0.00  0.00    +0.210 S 
ENDROOT
BRANCH   1   6
ATOM      6  C   LIG    1       -0.729   1.579   1.267  0.00  0.00    +0.140 C 
BRANCH   6   7
ATOM      7  C   LIG    1       -0.013   1.086   0.008  0.00  0.00    +0.030 C 
BRANCH   7   9
ATOM      8  C   LIG    1       -0.037   1.099  -2.490  0.00  0.00    +0.010 C 
ATOM      9  C   LIG    1       -0.753   1.593  -1.232  0.00  0.00    +0.010 C 
ENDBRANCH   7   9
ENDBRANCH   6   7
ENDBRANCH   1   6
BRANCH   3  10
ATOM     10  C   LIG    1        2.608   1.748   4.936  0.00  0.00    +0.370 C 
BRANCH  10  11
ATOM     11  N   LIG    1        3.894   1.410   4.311  0.00  0.00    -0.390 N 
ATOM     12  C   LIG    1        3.925   1.898   2.909  0.00  0.00    +0.270 C 
ATOM     13  C   LIG    1        5.441   1.989   2.599  0.00  0.00    +0.070 C 
ATOM     14  C   LIG    1        6.038   2.486   3.935  0.00  0.00    +0.060 C 
ATOM     15  C   LIG    1        4.997   2.109   5.006  0.00  0.00    +0.250 C 
ATOM     16  H   LIG    1        4.043   0.413   4.337  0.00  0.00    +0.420 HD
ENDBRANCH  10  11
ENDBRANCH   3  10
TORSDOF 5
