REMARK  Name = ZINCpe000000Tjjd.0
REMARK                            x       y       z     vdW  Elec       q    Type
REMARK                         _______ _______ _______ _____ _____    ______ ____
ROOT
ATOM      1  C   LIG    1       -2.566   3.966   1.436  0.00  0.00    +0.600 C 
ATOM      2  N   LIG    1       -1.678   3.255   0.714  0.00  0.00    -0.600 N 
ATOM      3  C   LIG    1       -1.397   3.436  -0.722  0.00  0.00    +0.230 C 
ATOM      4  C   LIG    1       -0.831   2.070  -1.194  0.00  0.00    +0.180 C 
ATOM      5  C   LIG    1        0.003   1.638   0.041  0.00  0.00    -0.010 C 
ATOM      6  C   LIG    1        0.123   0.114   0.106  0.00  0.00    +0.050 C 
ATOM      7  C   LIG    1       -0.828   2.171   1.228  0.00  0.00    +0.270 C 
ATOM      8  O   LIG    1       -3.218   4.843   0.904  0.00  0.00    -0.520 OA
ENDROOT
BRANCH   1  11
ATOM      9  N   LIG    1       -2.165   2.441   4.693  0.00  0.00    -0.330 N 
ATOM     10  N   LIG    1       -2.043   2.729   3.447  0.00  0.00    -0.170 NA
ATOM     11  C   LIG    1       -2.749   3.678   2.875  0.00  0.00    +0.020 A 
ATOM     12  C   LIG    1       -3.678   4.430   3.632  0.00  0.00    +0.130 A 
ATOM     13  C   LIG    1       -3.823   4.133   4.955  0.00  0.00    -0.020 A 
ATOM     14  C   LIG    1       -3.026   3.097   5.492  0.00  0.00    +0.480 A 
ATOM     15  O   LIG    1       -3.119   2.800   6.671  0.00  0.00    -0.520 OA
BRANCH   9  16
ATOM     16  C   LIG    1       -1.343   1.368   5.259  0.00  0.00    +0.320 C 
BRANCH  16  17
ATOM     17  C   LIG    1       -2.087   0.037   5.135  0.00  0.00    +0.010 C 
BRANCH  17  19
ATOM     18  C   LIG    1       -1.972  -2.415   5.602  0.00  0.00    +0.020 C 
ATOM     19  C   LIG    1       -1.229  -1.083   5.727  0.00  0.00    +0.020 C 
ENDBRANCH  17  19
ENDBRANCH  16  17
ENDBRANCH   9  16
ENDBRANCH   1  11
BRANCH   4  20
ATOM     20  N   LIG    1        0.025   2.231  -2.377  0.00  0.00    -0.520 NA
ATOM     21  C   LIG    1        1.030   3.283  -2.161  0.00  0.00    +0.150 C 
ATOM     22  C   LIG    1        1.936   3.376  -3.392  0.00  0.00    +0.220 C 
ATOM     23  O   LIG    1        1.134   3.623  -4.550  0.00  0.00    -0.380 OA
ATOM     24  C   LIG    1        0.145   2.618  -4.791  0.00  0.00    +0.220 C 
ATOM     25  C   LIG    1       -0.779   2.517  -3.574  0.00  0.00    +0.150 C 
ENDBRANCH   4  20
TORSDOF 5
