REMARK  Name = ZINCqH00000076qu.0
REMARK                            x       y       z     vdW  Elec       q    Type
REMARK                         _______ _______ _______ _____ _____    ______ ____
ROOT
ATOM      1  N   LIG    1        1.425   1.335  -0.127  0.00  0.00    -0.720 N 
ATOM      2  H   LIG    1        1.744   2.002  -0.755  0.00  0.00    +0.400 HD
ATOM      3  C   LIG    1        2.303   0.638   0.621  0.00  0.00    +0.600 C 
ATOM      4  O   LIG    1        1.901  -0.199   1.409  0.00  0.00    -0.510 OA
ENDROOT
BRANCH   3   5
ATOM      5  C   LIG    1        3.743   0.887   0.486  0.00  0.00    -0.310 A 
ATOM      6  C   LIG    1        4.740   0.259   1.183  0.00  0.00    +0.160 A 
ATOM      7  N   LIG    1        5.942   0.664   0.872  0.00  0.00    -0.430 NA
ATOM      8  C   LIG    1        6.045   1.596  -0.031  0.00  0.00    +0.090 A 
ATOM      9  C   LIG    1        4.475  -0.807   2.214  0.00  0.00    +0.170 C 
ATOM     10  S   LIG    1        4.498   2.054  -0.597  0.00  0.00    +0.260 S 
BRANCH   8  11
ATOM     11  C   LIG    1        7.321   2.177  -0.502  0.00  0.00    +0.380 A 
ATOM     12  N   LIG    1        7.298   3.121  -1.434  0.00  0.00    -0.510 NA
ATOM     13  C   LIG    1        8.420   3.664  -1.873  0.00  0.00    +0.340 A 
ATOM     14  C   LIG    1        9.631   3.229  -1.355  0.00  0.00    -0.050 A 
ATOM     15  C   LIG    1        9.619   2.236  -0.385  0.00  0.00    +0.330 A 
ATOM     16  N   LIG    1        8.462   1.739   0.014  0.00  0.00    -0.470 NA
ENDBRANCH   8  11
ENDBRANCH   3   5
BRANCH   1  17
ATOM     17  C   LIG    1       -0.013   1.086   0.008  0.00  0.00    +0.300 C 
ATOM     18  C   LIG    1       -0.578   1.957   1.131  0.00  0.00    +0.040 C 
BRANCH  17  25
ATOM     19  C   LIG    1       -1.893   0.792  -1.625  0.00  0.00    +0.130 A 
ATOM     20  C   LIG    1       -2.528   1.106  -2.818  0.00  0.00    -0.070 A 
ATOM     21  C   LIG    1       -1.976   2.047  -3.666  0.00  0.00    +0.050 A 
ATOM     22  C   LIG    1       -0.792   2.675  -3.327  0.00  0.00    -0.120 A 
ATOM     23  C   LIG    1       -0.160   2.368  -2.136  0.00  0.00    +0.040 A 
ATOM     24  C   LIG    1       -0.193   3.701  -4.254  0.00  0.00    +0.100 C 
ATOM     25  C   LIG    1       -0.705   1.424  -1.287  0.00  0.00    -0.120 A 
BRANCH  19  27
ATOM     26  C   LIG    1       -3.658  -0.744  -1.202  0.00  0.00    +0.250 C 
ATOM     27  O   LIG    1       -2.433  -0.133  -0.789  0.00  0.00    -0.310 OA
ENDBRANCH  19  27
ENDBRANCH  17  25
ENDBRANCH   1  17
TORSDOF 5
