REMARK  Name = ZINCkj000005htoY.0
REMARK                            x       y       z     vdW  Elec       q    Type
REMARK                         _______ _______ _______ _____ _____    ______ ____
ROOT
ATOM      1  N   LIG    1        0.529   1.866   2.209  0.00  0.00    -0.400 N 
ATOM      2  C   LIG    1        1.554   2.451   1.306  0.00  0.00    +0.260 C 
ATOM      3  C   LIG    1        1.426   1.641  -0.003  0.00  0.00    +0.080 C 
ATOM      4  C   LIG    1       -0.013   1.086   0.008  0.00  0.00    +0.060 C 
ATOM      5  C   LIG    1       -0.634   1.606   1.322  0.00  0.00    +0.280 C 
ATOM      6  H   LIG    1        0.866   1.005   2.613  0.00  0.00    +0.430 HD
ENDROOT
BRANCH   4   7
ATOM      7  C   LIG    1       -0.783   1.605  -1.179  0.00  0.00    -0.100 A 
ATOM      8  C   LIG    1       -0.920   2.966  -1.373  0.00  0.00    +0.000 A 
ATOM      9  C   LIG    1       -1.622   3.442  -2.464  0.00  0.00    +0.020 A 
ATOM     10  C   LIG    1       -2.196   2.556  -3.356  0.00  0.00    +0.030 A 
ATOM     11  C   LIG    1       -2.064   1.194  -3.160  0.00  0.00    +0.020 A 
ATOM     12  C   LIG    1       -1.357   0.718  -2.071  0.00  0.00    +0.030 A 
ENDBRANCH   4   7
BRANCH   1  13
ATOM     13  C   LIG    1        0.168   2.822   3.264  0.00  0.00    +0.290 C 
BRANCH  13  14
ATOM     14  C   LIG    1        1.372   3.050   4.180  0.00  0.00    +0.070 C 
BRANCH  14  21
ATOM     15  C   LIG    1        2.129   6.571   9.140  0.00  0.00    +0.330 C 
ATOM     16  N   LIG    1        2.489   5.617   8.088  0.00  0.00    -0.740 N 
ATOM     17  H   LIG    1        3.383   5.240   8.060  0.00  0.00    +0.400 HD
ATOM     18  C   LIG    1        1.580   5.263   7.159  0.00  0.00    +0.690 C 
ATOM     19  N   LIG    1        1.911   4.385   6.191  0.00  0.00    -0.690 N 
ATOM     20  H   LIG    1        2.804   4.008   6.164  0.00  0.00    +0.410 HD
ATOM     21  C   LIG    1        1.001   4.031   5.262  0.00  0.00    +0.530 C 
ATOM     22  O   LIG    1       -0.115   4.502   5.297  0.00  0.00    -0.460 OA
ATOM     23  O   LIG    1        0.460   5.735   7.194  0.00  0.00    -0.520 OA
ENDBRANCH  14  21
ENDBRANCH  13  14
ENDBRANCH   1  13
TORSDOF 4
