REMARK  Name = ZINCkj000005htoY.1
REMARK                            x       y       z     vdW  Elec       q    Type
REMARK                         _______ _______ _______ _____ _____    ______ ____
ROOT
ATOM      1  N   LIG    1       -0.788   1.606  -1.147  0.00  0.00    -0.390 N 
ATOM      2  C   LIG    1       -0.013   1.086   0.008  0.00  0.00    +0.270 C 
ATOM      3  C   LIG    1       -0.798   1.615   1.234  0.00  0.00    +0.080 C 
ATOM      4  C   LIG    1       -1.253   3.020   0.771  0.00  0.00    +0.060 C 
ATOM      5  C   LIG    1       -1.209   2.972  -0.768  0.00  0.00    +0.280 C 
ATOM      6  H   LIG    1       -1.597   1.026  -1.313  0.00  0.00    +0.430 HD
ENDROOT
BRANCH   4   7
ATOM      7  C   LIG    1       -2.655   3.304   1.246  0.00  0.00    -0.110 A 
ATOM      8  C   LIG    1       -3.684   2.441   0.917  0.00  0.00    -0.010 A 
ATOM      9  C   LIG    1       -4.969   2.700   1.356  0.00  0.00    +0.020 A 
ATOM     10  C   LIG    1       -5.226   3.825   2.116  0.00  0.00    +0.030 A 
ATOM     11  C   LIG    1       -4.198   4.690   2.441  0.00  0.00    +0.020 A 
ATOM     12  C   LIG    1       -2.913   4.430   2.005  0.00  0.00    +0.030 A 
ENDBRANCH   4   7
BRANCH   1  13
ATOM     13  C   LIG    1        0.060   1.652  -2.346  0.00  0.00    +0.290 C 
BRANCH  13  14
ATOM     14  C   LIG    1        0.429   0.227  -2.765  0.00  0.00    +0.070 C 
BRANCH  14  21
ATOM     15  C   LIG    1        3.819  -1.926  -7.395  0.00  0.00    +0.330 C 
ATOM     16  N   LIG    1        2.974  -1.972  -6.199  0.00  0.00    -0.740 N 
ATOM     17  H   LIG    1        2.738  -2.826  -5.805  0.00  0.00    +0.400 HD
ATOM     18  C   LIG    1        2.525  -0.828  -5.647  0.00  0.00    +0.690 C 
ATOM     19  N   LIG    1        1.747  -0.870  -4.547  0.00  0.00    -0.690 N 
ATOM     20  H   LIG    1        1.511  -1.724  -4.153  0.00  0.00    +0.410 HD
ATOM     21  C   LIG    1        1.298   0.275  -3.995  0.00  0.00    +0.530 C 
ATOM     22  O   LIG    1        1.593   1.342  -4.488  0.00  0.00    -0.460 OA
ATOM     23  O   LIG    1        2.821   0.243  -6.141  0.00  0.00    -0.520 OA
ENDBRANCH  14  21
ENDBRANCH  13  14
ENDBRANCH   1  13
TORSDOF 4
