REMARK  Name = ZINCrD0000070Xcz.0
REMARK                            x       y       z     vdW  Elec       q    Type
REMARK                         _______ _______ _______ _____ _____    ______ ____
ROOT
ATOM      1  N   LIG    1        0.082  -0.149  -0.020  0.00  0.00    -0.670 N 
ATOM      2  H   LIG    1        0.919  -0.635  -0.072  0.00  0.00    +0.410 HD
ATOM      3  C   LIG    1       -1.086  -0.820   0.038  0.00  0.00    +0.520 C 
ATOM      4  O   LIG    1       -2.136  -0.214   0.009  0.00  0.00    -0.490 OA
ENDROOT
BRANCH   1   8
ATOM      5  C   LIG    1        0.093   4.021   0.021  0.00  0.00    +0.130 A 
ATOM      6  C   LIG    1       -0.874   3.322   0.732  0.00  0.00    +0.010 A 
ATOM      7  C   LIG    1       -0.878   1.942   0.718  0.00  0.00    +0.040 A 
ATOM      8  C   LIG    1        0.085   1.252  -0.006  0.00  0.00    +0.130 A 
ATOM      9  C   LIG    1        1.056   1.951  -0.712  0.00  0.00    +0.010 A 
ATOM     10  C   LIG    1        1.056   3.331  -0.703  0.00  0.00    +0.040 A 
BRANCH   5  13
ATOM     11  C   LIG    1        0.363   7.610  -1.087  0.00  0.00    +0.110 C 
ATOM     12  C   LIG    1        0.458   6.106  -1.068  0.00  0.00    +0.510 C 
ATOM     13  N   LIG    1        0.097   5.422   0.035  0.00  0.00    -0.670 N 
ATOM     14  H   LIG    1       -0.160   5.899   0.840  0.00  0.00    +0.410 HD
ATOM     15  O   LIG    1        0.858   5.511  -2.047  0.00  0.00    -0.530 OA
ENDBRANCH   5  13
ENDBRANCH   1   8
BRANCH   3  16
ATOM     16  C   LIG    1       -1.086  -2.324   0.139  0.00  0.00    +0.270 C 
BRANCH  16  17
ATOM     17  O   LIG    1       -2.455  -2.805   0.186  0.00  0.00    -0.330 OA
BRANCH  17  18
ATOM     18  C   LIG    1       -2.631  -4.133   0.277  0.00  0.00    +0.470 C 
ATOM     19  O   LIG    1       -1.673  -4.868   0.316  0.00  0.00    -0.500 OA
BRANCH  18  20
ATOM     20  C   LIG    1       -4.024  -4.706   0.332  0.00  0.00    -0.040 C 
ATOM     21  C   LIG    1       -4.784  -4.319  -0.938  0.00  0.00    +0.050 C 
ATOM     22  C   LIG    1       -6.198  -4.901  -0.883  0.00  0.00    +0.000 C 
ATOM     23  C   LIG    1       -6.931  -4.346   0.340  0.00  0.00    +0.030 C 
ATOM     24  C   LIG    1       -6.170  -4.734   1.610  0.00  0.00    +0.000 C 
ATOM     25  C   LIG    1       -6.090  -6.258   1.711  0.00  0.00    +0.020 C 
ATOM     26  C   LIG    1       -5.357  -6.813   0.488  0.00  0.00    -0.010 C 
ATOM     27  C   LIG    1       -6.118  -6.425  -0.782  0.00  0.00    +0.020 C 
ATOM     28  C   LIG    1       -4.756  -4.152   1.555  0.00  0.00    +0.050 C 
ATOM     29  C   LIG    1       -3.944  -6.231   0.433  0.00  0.00    +0.050 C 
ENDBRANCH  18  20
ENDBRANCH  17  18
ENDBRANCH  16  17
ENDBRANCH   3  16
TORSDOF 6
