REMARK  Name = ZINCqH0000007bYe.0
REMARK                            x       y       z     vdW  Elec       q    Type
REMARK                         _______ _______ _______ _____ _____    ______ ____
ROOT
ATOM      1  N   LIG    1       -1.256  -2.102   0.003  0.00  0.00    -0.730 N 
ATOM      2  H   LIG    1       -0.411  -2.579  -0.008  0.00  0.00    +0.400 HD
ATOM      3  C   LIG    1       -1.269  -0.755   0.011  0.00  0.00    +0.560 C 
ATOM      4  O   LIG    1       -2.328  -0.157   0.025  0.00  0.00    -0.510 OA
ENDROOT
BRANCH   3   5
ATOM      5  C   LIG    1        0.002  -0.004   0.002  0.00  0.00    -0.150 A 
ATOM      6  C   LIG    1        1.206  -0.689  -0.013  0.00  0.00    +0.110 A 
ATOM      7  C   LIG    1        2.410   0.029  -0.021  0.00  0.00    -0.090 A 
ATOM      8  C   LIG    1        3.650  -0.634  -0.037  0.00  0.00    +0.040 A 
ATOM      9  C   LIG    1        4.802   0.091  -0.045  0.00  0.00    +0.000 A 
ATOM     10  C   LIG    1        4.772   1.484  -0.037  0.00  0.00    +0.040 A 
ATOM     11  C   LIG    1        3.591   2.161  -0.021  0.00  0.00    +0.000 A 
ATOM     12  C   LIG    1        2.380   1.448  -0.013  0.00  0.00    +0.010 A 
ATOM     13  C   LIG    1        1.146   2.119   0.003  0.00  0.00    -0.080 A 
ATOM     14  C   LIG    1       -0.017   1.407   0.010  0.00  0.00    +0.180 A 
BRANCH  14  15
ATOM     15  O   LIG    1       -1.206   2.062   0.019  0.00  0.00    -0.280 OA
ATOM     16  C   LIG    1       -1.159   3.491   0.026  0.00  0.00    +0.240 C 
ENDBRANCH  14  15
ENDBRANCH   3   5
BRANCH   1  17
ATOM     17  C   LIG    1       -2.517  -2.847   0.012  0.00  0.00    +0.330 C 
BRANCH  17  21
ATOM     18  C   LIG    1       -1.695  -7.044  -0.025  0.00  0.00    +0.110 A 
ATOM     19  C   LIG    1       -1.841  -6.353  -1.217  0.00  0.00    -0.030 A 
ATOM     20  C   LIG    1       -2.112  -4.997  -1.202  0.00  0.00    +0.040 A 
ATOM     21  C   LIG    1       -2.227  -4.326   0.001  0.00  0.00    -0.110 A 
ATOM     22  C   LIG    1       -2.082  -5.009   1.195  0.00  0.00    -0.010 A 
ATOM     23  C   LIG    1       -1.816  -6.369   1.186  0.00  0.00    +0.100 A 
BRANCH  18  25
ATOM     24  C   LIG    1       -1.324  -9.005  -1.318  0.00  0.00    +0.240 C 
ATOM     25  O   LIG    1       -1.435  -8.379  -0.038  0.00  0.00    -0.310 OA
ENDBRANCH  18  25
BRANCH  23  26
ATOM     26  O   LIG    1       -1.673  -7.042   2.359  0.00  0.00    -0.310 OA
ATOM     27  C   LIG    1       -1.810  -6.285   3.563  0.00  0.00    +0.240 C 
ENDBRANCH  23  26
ENDBRANCH  17  21
ENDBRANCH   1  17
TORSDOF 6
