REMARK  Name = ZINCtV00000L6kWM.0
REMARK                            x       y       z     vdW  Elec       q    Type
REMARK                         _______ _______ _______ _____ _____    ______ ____
ROOT
ATOM      1  C   LIG    1       -2.531   0.171  -1.230  0.00  0.00    -0.160 A 
ATOM      2  C   LIG    1       -2.554   1.295  -0.438  0.00  0.00    +0.130 A 
ATOM      3  N   LIG    1       -3.718   1.911  -0.385  0.00  0.00    -0.450 NA
ATOM      4  C   LIG    1       -4.697   1.397  -1.069  0.00  0.00    +0.110 A 
ATOM      5  S   LIG    1       -4.143  -0.049  -1.907  0.00  0.00    +0.140 S 
ENDROOT
BRANCH   2   6
ATOM      6  C   LIG    1       -1.362   1.779   0.293  0.00  0.00    -0.130 A 
ATOM      7  C   LIG    1       -0.726   0.998   1.234  0.00  0.00    +0.160 A 
ATOM      8  C   LIG    1        0.443   1.573   1.905  0.00  0.00    -0.150 A 
ATOM      9  C   LIG    1        1.302   0.771   2.664  0.00  0.00    +0.090 A 
ATOM     10  C   LIG    1        2.389   1.331   3.274  0.00  0.00    +0.000 A 
ATOM     11  C   LIG    1        2.648   2.688   3.146  0.00  0.00    +0.070 A 
ATOM     12  C   LIG    1        1.812   3.497   2.403  0.00  0.00    +0.010 A 
ATOM     13  C   LIG    1        0.701   2.951   1.777  0.00  0.00    +0.130 A 
ATOM     14  O   LIG    1       -0.133   3.729   1.048  0.00  0.00    -0.270 OA
ATOM     15  C   LIG    1       -0.799   3.118   0.043  0.00  0.00    +0.530 A 
ATOM     16  O   LIG    1       -0.934   3.660  -1.038  0.00  0.00    -0.430 OA
ENDBRANCH   2   6
BRANCH   1  21
ATOM     17  C   LIG    1        2.021  -3.220  -2.161  0.00  0.00    +0.090 C 
ATOM     18  C   LIG    1        0.829  -2.331  -1.917  0.00  0.00    -0.070 A 
ATOM     19  C   LIG    1       -0.393  -2.893  -1.588  0.00  0.00    +0.010 A 
ATOM     20  C   LIG    1       -1.488  -2.086  -1.363  0.00  0.00    +0.030 A 
ATOM     21  C   LIG    1       -1.363  -0.699  -1.469  0.00  0.00    -0.030 A 
ATOM     22  C   LIG    1       -0.129  -0.139  -1.808  0.00  0.00    +0.040 A 
ATOM     23  C   LIG    1        0.960  -0.958  -2.024  0.00  0.00    +0.010 A 
ENDBRANCH   1  21
BRANCH   4  24
ATOM     24  C   LIG    1       -6.068   1.944  -1.133  0.00  0.00    -0.030 A 
ATOM     25  C   LIG    1       -7.040   1.309  -1.908  0.00  0.00    +0.020 A 
ATOM     26  C   LIG    1       -8.320   1.821  -1.959  0.00  0.00    +0.010 A 
ATOM     27  C   LIG    1       -8.638   2.969  -1.255  0.00  0.00    +0.030 A 
ATOM     28  C   LIG    1       -7.677   3.607  -0.490  0.00  0.00    +0.010 A 
ATOM     29  C   LIG    1       -6.395   3.101  -0.425  0.00  0.00    +0.070 A 
ENDBRANCH   4  24
TORSDOF 3
