REMARK  Name = ZINCkj00000hbMtm.0
REMARK                            x       y       z     vdW  Elec       q    Type
REMARK                         _______ _______ _______ _____ _____    ______ ____
ROOT
ATOM      1  N   LIG    1       -3.673   4.758   2.900  0.00  0.00    -0.730 N 
ATOM      2  H   LIG    1       -4.227   3.991   3.116  0.00  0.00    +0.400 HD
ATOM      3  C   LIG    1       -2.474   4.578   2.311  0.00  0.00    +0.720 C 
ATOM      4  N   LIG    1       -2.046   3.333   2.021  0.00  0.00    -0.640 N 
ATOM      5  C   LIG    1       -2.785   2.096   2.295  0.00  0.00    +0.290 C 
ATOM      6  C   LIG    1       -2.160   1.001   1.410  0.00  0.00    +0.020 C 
ATOM      7  C   LIG    1       -1.580  -0.171   2.220  0.00  0.00    +0.060 C 
ATOM      8  C   LIG    1       -0.367   0.727   2.514  0.00  0.00    +0.110 C 
ATOM      9  C   LIG    1       -0.699   1.479   1.216  0.00  0.00    -0.010 C 
ATOM     10  C   LIG    1       -0.743   3.006   1.378  0.00  0.00    +0.330 C 
ATOM     11  O   LIG    1       -1.780   5.539   2.040  0.00  0.00    -0.570 OA
ENDROOT
BRANCH   9  12
ATOM     12  N   LIG    1       -0.012   1.005   0.008  0.00  0.00    -0.600 N 
ATOM     13  H   LIG    1       -0.500   1.339  -0.810  0.00  0.00    +0.440 HD
ATOM     14  H   LIG    1        0.935   1.354   0.000  0.00  0.00    +0.440 HD
ATOM     15  H   LIG    1        0.002  -0.004   0.002  0.00  0.00    +0.440 HD
ENDBRANCH   9  12
BRANCH   1  16
ATOM     16  C   LIG    1       -4.139   6.111   3.215  0.00  0.00    +0.280 C 
BRANCH  16  20
ATOM     17  C   LIG    1       -8.343   6.803   3.972  0.00  0.00    +0.150 C 
ATOM     18  C   LIG    1       -7.328   7.359   4.974  0.00  0.00    +0.030 C 
ATOM     19  C   LIG    1       -5.950   7.435   4.315  0.00  0.00    +0.040 C 
ATOM     20  C   LIG    1       -5.518   6.035   3.874  0.00  0.00    -0.020 C 
ATOM     21  C   LIG    1       -6.532   5.480   2.872  0.00  0.00    +0.010 C 
ATOM     22  C   LIG    1       -7.911   5.404   3.531  0.00  0.00    -0.010 C 
BRANCH  17  24
ATOM     23  C   LIG    1       -9.683   7.684   2.190  0.00  0.00    +0.200 C 
ATOM     24  O   LIG    1       -8.407   7.663   2.833  0.00  0.00    -0.380 OA
ENDBRANCH  17  24
ENDBRANCH  16  20
ENDBRANCH   1  16
TORSDOF 4
