REMARK  Name = ZINCpk00000xIi0Q.0
REMARK                            x       y       z     vdW  Elec       q    Type
REMARK                         _______ _______ _______ _____ _____    ______ ____
ROOT
ATOM      1  C   LIG    1       -0.073   4.655   1.583  0.00  0.00    +0.500 C 
ATOM      2  N   LIG    1       -0.099   3.473   0.936  0.00  0.00    -0.550 N 
ATOM      3  C   LIG    1        1.077   2.739   0.708  0.00  0.00    +0.110 A 
ATOM      4  C   LIG    1        2.295   3.371   0.543  0.00  0.00    +0.010 A 
ATOM      5  C   LIG    1        3.430   2.619   0.290  0.00  0.00    +0.030 A 
ATOM      6  C   LIG    1        3.345   1.242   0.204  0.00  0.00    +0.040 A 
ATOM      7  C   LIG    1        2.131   0.603   0.375  0.00  0.00    +0.020 A 
ATOM      8  C   LIG    1        0.991   1.347   0.633  0.00  0.00    +0.140 A 
ATOM      9  N   LIG    1       -0.246   0.720   0.822  0.00  0.00    -0.660 N 
ATOM     10  H   LIG    1       -0.280  -0.229   1.021  0.00  0.00    +0.420 HD
ATOM     11  C   LIG    1       -1.392   1.425   0.723  0.00  0.00    +0.520 C 
ATOM     12  O   LIG    1       -2.458   0.864   0.865  0.00  0.00    -0.490 OA
ATOM     13  C   LIG    1       -1.357   2.902   0.442  0.00  0.00    +0.160 C 
ATOM     14  C   LIG    1       -1.482   3.149  -1.072  0.00  0.00    +0.040 C 
ATOM     15  C   LIG    1       -2.990   3.435  -1.284  0.00  0.00    +0.030 C 
ATOM     16  C   LIG    1       -3.364   4.256  -0.025  0.00  0.00    +0.030 C 
ATOM     17  C   LIG    1       -2.549   3.600   1.111  0.00  0.00    +0.050 C 
ATOM     18  O   LIG    1       -1.051   5.373   1.575  0.00  0.00    -0.450 OA
ENDROOT
BRANCH   1  19
ATOM     19  C   LIG    1        1.172   5.086   2.316  0.00  0.00    +0.390 C 
BRANCH  19  22
ATOM     20  C   LIG    1        0.063   7.960   4.191  0.00  0.00    +0.300 A 
ATOM     21  N   LIG    1        0.169   7.334   3.036  0.00  0.00    -0.220 NA
ATOM     22  N   LIG    1        0.829   6.122   3.294  0.00  0.00    -0.370 N 
ATOM     23  C   LIG    1        1.090   6.101   4.615  0.00  0.00    +0.520 A 
ATOM     24  N   LIG    1        0.629   7.202   5.142  0.00  0.00    -0.500 NA
BRANCH  20  26
ATOM     25  N   LIG    1       -1.034  10.253   4.557  0.00  0.00    -0.350 NA
ATOM     26  C   LIG    1       -0.548   9.238   4.395  0.00  0.00    +0.310 C 
ENDBRANCH  20  26
ENDBRANCH  19  22
ENDBRANCH   1  19
TORSDOF 3
