REMARK  Name = ZINCAx0000000fK4.0
REMARK                            x       y       z     vdW  Elec       q    Type
REMARK                         _______ _______ _______ _____ _____    ______ ____
ROOT
ATOM      1  C   LIG    1       -1.376   4.437  -2.067  0.00  0.00    +0.240 C 
ENDROOT
BRANCH   1   2
ATOM      2  N   LIG    1       -1.017   4.316  -0.648  0.00  0.00    -0.520 NA
ATOM      3  C   LIG    1       -0.889   2.906  -0.255  0.00  0.00    +0.180 C 
ATOM      4  C   LIG    1       -0.438   2.824   1.205  0.00  0.00    +0.240 C 
ATOM      5  N   LIG    1       -1.414   3.518   2.057  0.00  0.00    -0.480 N 
ATOM      6  C   LIG    1       -1.542   4.928   1.664  0.00  0.00    +0.210 C 
ATOM      7  C   LIG    1       -1.994   5.010   0.204  0.00  0.00    +0.200 C 
BRANCH   5   8
ATOM      8  C   LIG    1       -1.075   3.404   3.396  0.00  0.00    +0.370 A 
ATOM      9  C   LIG    1       -1.867   3.990   4.377  0.00  0.00    -0.110 A 
ATOM     10  C   LIG    1       -1.484   3.846   5.707  0.00  0.00    +0.370 A 
ATOM     11  N   LIG    1       -0.380   3.157   5.991  0.00  0.00    -0.570 NA
ATOM     12  C   LIG    1        0.344   2.616   5.032  0.00  0.00    +0.550 A 
ATOM     13  N   LIG    1        0.012   2.726   3.762  0.00  0.00    -0.570 NA
BRANCH  10  14
ATOM     14  N   LIG    1       -2.240   4.411   6.723  0.00  0.00    -0.470 N 
ATOM     15  C   LIG    1       -2.398   5.858   6.519  0.00  0.00    +0.180 C 
ATOM     16  C   LIG    1       -3.287   6.430   7.627  0.00  0.00    +0.240 C 
ATOM     17  O   LIG    1       -2.712   6.122   8.899  0.00  0.00    -0.380 OA
ATOM     18  C   LIG    1       -2.545   4.721   9.131  0.00  0.00    +0.230 C 
ATOM     19  C   LIG    1       -1.648   4.131   8.039  0.00  0.00    +0.190 C 
ENDBRANCH  10  14
ENDBRANCH   5   8
ENDBRANCH   1   2
BRANCH   1  20
ATOM     20  C   LIG    1       -0.427   3.613  -2.897  0.00  0.00    +0.270 A 
ATOM     21  N   LIG    1        0.874   3.738  -2.941  0.00  0.00    -0.300 NA
ATOM     22  N   LIG    1        1.385   2.878  -3.746  0.00  0.00    -0.030 NA
ATOM     23  N   LIG    1        0.456   2.157  -4.276  0.00  0.00    -0.070 NA
ATOM     24  N   LIG    1       -0.762   2.612  -3.740  0.00  0.00    -0.340 N 
BRANCH  24  25
ATOM     25  C   LIG    1       -2.049   2.129  -4.020  0.00  0.00    +0.110 A 
ATOM     26  C   LIG    1       -2.959   1.939  -2.989  0.00  0.00    +0.050 A 
ATOM     27  C   LIG    1       -4.228   1.469  -3.267  0.00  0.00    +0.020 A 
ATOM     28  C   LIG    1       -4.588   1.177  -4.572  0.00  0.00    +0.120 A 
ATOM     29  C   LIG    1       -3.680   1.360  -5.601  0.00  0.00    +0.020 A 
ATOM     30  F   LIG    1       -5.828   0.712  -4.841  0.00  0.00    -0.130 F 
ATOM     31  C   LIG    1       -2.412   1.835  -5.327  0.00  0.00    +0.090 A 
ENDBRANCH  24  25
ENDBRANCH   1  20
BRANCH   1  32
ATOM     32  C   LIG    1       -1.285   5.904  -2.493  0.00  0.00    +0.080 C 
BRANCH  32  34
ATOM     33  C   LIG    1       -3.274   5.511  -3.953  0.00  0.00    +0.020 C 
ATOM     34  C   LIG    1       -1.847   6.061  -3.907  0.00  0.00    -0.070 C 
ATOM     35  C   LIG    1       -0.970   5.285  -4.893  0.00  0.00    +0.010 C 
ATOM     36  C   LIG    1       -1.858   7.542  -4.290  0.00  0.00    +0.040 C 
ENDBRANCH  32  34
ENDBRANCH   1  32
TORSDOF 7
