REMARK  Name = ZINCpk000000oQoN.0
REMARK                            x       y       z     vdW  Elec       q    Type
REMARK                         _______ _______ _______ _____ _____    ______ ____
ROOT
ATOM      1  C   LIG    1        3.555   1.792  -0.124  0.00  0.00    +0.560 C 
ATOM      2  N   LIG    1        2.400   1.105  -0.015  0.00  0.00    -0.670 N 
ATOM      3  H   LIG    1        2.417   0.138   0.056  0.00  0.00    +0.410 HD
ATOM      4  O   LIG    1        3.541   3.008  -0.118  0.00  0.00    -0.510 OA
ENDROOT
BRANCH   2   5
ATOM      5  C   LIG    1        1.178   1.788  -0.006  0.00  0.00    +0.160 A 
ATOM      6  C   LIG    1        0.118   1.300   0.750  0.00  0.00    +0.010 A 
ATOM      7  C   LIG    1       -1.090   1.969   0.764  0.00  0.00    +0.060 A 
ATOM      8  C   LIG    1       -1.248   3.130   0.023  0.00  0.00    +0.080 A 
ATOM      9  N   LIG    1       -2.315   4.007  -0.164  0.00  0.00    -0.640 N 
ATOM     10  H   LIG    1       -3.194   3.926   0.239  0.00  0.00    +0.440 HD
ATOM     11  C   LIG    1       -1.918   4.986  -0.998  0.00  0.00    +0.690 A 
ATOM     12  N   LIG    1       -0.638   4.782  -1.361  0.00  0.00    -0.640 N 
ATOM     13  H   LIG    1       -0.120   5.346  -1.956  0.00  0.00    +0.440 HD
ATOM     14  O   LIG    1       -2.611   5.916  -1.368  0.00  0.00    -0.550 OA
ATOM     15  C   LIG    1       -0.182   3.625  -0.733  0.00  0.00    +0.110 A 
ATOM     16  C   LIG    1        1.027   2.949  -0.750  0.00  0.00    +0.040 A 
ENDBRANCH   2   5
BRANCH   1  21
ATOM     17  C   LIG    1        7.227   1.094  -0.485  0.00  0.00    -0.690 A 
ATOM     18  C   LIG    1        7.239  -0.289  -0.492  0.00  0.00    +0.160 A 
ATOM     19  C   LIG    1        6.055  -0.998  -0.381  0.00  0.00    +0.000 A 
ATOM     20  C   LIG    1        4.856  -0.328  -0.255  0.00  0.00    +0.110 A 
ATOM     21  C   LIG    1        4.837   1.068  -0.253  0.00  0.00    -0.160 A 
ATOM     22  C   LIG    1        6.034   1.776  -0.366  0.00  0.00    +0.200 A 
BRANCH  17  23
ATOM     23  S   LIG    1        8.740   1.987  -0.628  0.00  0.00    +2.700 S 
ATOM     24  O   LIG    1        8.402   3.270  -1.137  0.00  0.00    -0.950 OA
ATOM     25  O   LIG    1        9.661   1.115  -1.269  0.00  0.00    -0.950 OA
BRANCH  23  26
ATOM     26  N   LIG    1        9.314   2.228   0.906  0.00  0.00    -1.120 NA
ATOM     27  H   LIG    1        9.379   3.127   1.263  0.00  0.00    +0.420 HD
BRANCH  26  29
ATOM     28  C   LIG    1       10.546   1.576   2.916  0.00  0.00    +0.040 C 
ATOM     29  C   LIG    1        9.723   1.083   1.724  0.00  0.00    +0.250 C 
ENDBRANCH  26  29
ENDBRANCH  23  26
ENDBRANCH  17  23
ENDBRANCH   1  21
TORSDOF 5
