REMARK  Name = ZINCpe00000bZ6kb.0
REMARK                            x       y       z     vdW  Elec       q    Type
REMARK                         _______ _______ _______ _____ _____    ______ ____
ROOT
ATOM      1  C   LIG    1        1.978   2.959  -0.672  0.00  0.00    +0.610 C 
ATOM      2  N   LIG    1        1.443   1.867  -0.091  0.00  0.00    -0.630 N 
ATOM      3  C   LIG    1        0.074   1.325  -0.265  0.00  0.00    +0.260 C 
ATOM      4  C   LIG    1        0.260  -0.210  -0.290  0.00  0.00    +0.020 C 
ATOM      5  C   LIG    1        1.578  -0.449   0.455  0.00  0.00    -0.110 C 
ATOM      6  C   LIG    1        2.590  -1.348  -0.255  0.00  0.00    +0.310 C 
ATOM      7  N   LIG    1        2.868  -1.908   1.084  0.00  0.00    -0.640 N 
ATOM      8  C   LIG    1        3.918  -2.542   1.642  0.00  0.00    +0.570 C 
ATOM      9  O   LIG    1        3.865  -2.900   2.800  0.00  0.00    -0.530 OA
ATOM     10  C   LIG    1        1.533  -1.496   1.568  0.00  0.00    +0.310 C 
ATOM     11  C   LIG    1        2.092   0.936   0.865  0.00  0.00    +0.300 C 
ATOM     12  O   LIG    1        3.127   3.277  -0.428  0.00  0.00    -0.520 OA
ENDROOT
BRANCH   1  18
ATOM     13  C   LIG    1        0.570   6.378  -4.143  0.00  0.00    +0.100 C 
ATOM     14  C   LIG    1        0.542   5.266  -3.126  0.00  0.00    -0.180 A 
ATOM     15  C   LIG    1       -0.552   4.569  -2.736  0.00  0.00    +0.050 A 
ATOM     16  N   LIG    1       -0.180   3.651  -1.811  0.00  0.00    -0.540 N 
ATOM     17  H   LIG    1       -0.771   3.019  -1.372  0.00  0.00    +0.420 HD
ATOM     18  C   LIG    1        1.175   3.765  -1.598  0.00  0.00    -0.060 A 
ATOM     19  C   LIG    1       -1.953   4.777  -3.250  0.00  0.00    +0.150 C 
ATOM     20  C   LIG    1        1.641   4.771  -2.417  0.00  0.00    +0.050 A 
ENDBRANCH   1  18
BRANCH   8  21
ATOM     21  C   LIG    1        5.159  -2.804   0.828  0.00  0.00    -0.070 C 
ATOM     22  C   LIG    1        6.318  -3.526   1.519  0.00  0.00    +0.080 C 
ATOM     23  C   LIG    1        6.426  -2.032   1.201  0.00  0.00    +0.200 C 
ATOM     24  F   LIG    1        6.344  -1.136   2.272  0.00  0.00    -0.170 F 
ENDBRANCH   8  21
BRANCH   4  25
ATOM     25  C   LIG    1       -0.898  -0.900   0.433  0.00  0.00    +0.200 C 
BRANCH  25  26
ATOM     26  O   LIG    1       -2.107  -0.695  -0.300  0.00  0.00    -0.570 OA
ATOM     27  H   LIG    1       -2.885  -1.105   0.102  0.00  0.00    +0.390 HD
ENDBRANCH  25  26
ENDBRANCH   4  25
TORSDOF 4
