REMARK  Name = ZINCrD0000074VHg.0
REMARK                            x       y       z     vdW  Elec       q    Type
REMARK                         _______ _______ _______ _____ _____    ______ ____
ROOT
ATOM      1  C   LIG    1        3.999   5.220  -0.653  0.00  0.00    -0.260 A 
ATOM      2  C   LIG    1        2.772   4.688  -1.003  0.00  0.00    +0.130 A 
ATOM      3  N   LIG    1        2.361   3.888  -0.001  0.00  0.00    -0.390 N 
ATOM      4  C   LIG    1        3.281   3.880   1.010  0.00  0.00    +0.020 A 
ATOM      5  C   LIG    1        3.159   3.103   2.296  0.00  0.00    +0.150 C 
ATOM      6  C   LIG    1        2.025   4.956  -2.284  0.00  0.00    +0.150 C 
ATOM      7  C   LIG    1        4.313   4.670   0.673  0.00  0.00    +0.010 A 
ENDROOT
BRANCH   3   8
ATOM      8  C   LIG    1        1.157   3.170   0.008  0.00  0.00    +0.140 A 
ATOM      9  C   LIG    1        1.175   1.782   0.000  0.00  0.00    +0.020 A 
ATOM     10  C   LIG    1       -0.013   1.076   0.008  0.00  0.00    +0.080 A 
ATOM     11  C   LIG    1       -1.219   1.750   0.017  0.00  0.00    +0.010 A 
ATOM     12  C   LIG    1       -1.242   3.135   0.030  0.00  0.00    +0.120 A 
ATOM     13  F   LIG    1       -2.423   3.791   0.044  0.00  0.00    -0.130 F 
ATOM     14  C   LIG    1       -0.056   3.846   0.022  0.00  0.00    -0.010 A 
ENDBRANCH   3   8
BRANCH   1  15
ATOM     15  C   LIG    1        4.817   6.143  -1.442  0.00  0.00    +0.430 C 
ATOM     16  O   LIG    1        4.431   6.519  -2.529  0.00  0.00    -0.440 OA
BRANCH  15  17
ATOM     17  C   LIG    1        6.139   6.627  -0.903  0.00  0.00    +0.250 C 
BRANCH  17  18
ATOM     18  O   LIG    1        6.754   7.525  -1.864  0.00  0.00    -0.310 OA
BRANCH  18  19
ATOM     19  C   LIG    1        7.949   8.050  -1.532  0.00  0.00    +0.530 C 
ATOM     20  O   LIG    1        8.464   7.765  -0.470  0.00  0.00    -0.490 OA
BRANCH  19  25
ATOM     21  C   LIG    1       10.617  11.591  -5.060  0.00  0.00    +0.160 C 
ATOM     22  C   LIG    1        9.920  10.650  -4.111  0.00  0.00    +0.120 A 
ATOM     23  C   LIG    1        8.688  10.110  -4.454  0.00  0.00    +0.230 A 
ATOM     24  N   LIG    1        8.074   9.287  -3.628  0.00  0.00    -0.380 NA
ATOM     25  C   LIG    1        8.636   8.973  -2.463  0.00  0.00    +0.030 A 
ATOM     26  C   LIG    1        9.872   9.522  -2.120  0.00  0.00    +0.320 A 
ATOM     27  N   LIG    1       10.483  10.342  -2.956  0.00  0.00    -0.440 NA
ENDBRANCH  19  25
ENDBRANCH  18  19
ENDBRANCH  17  18
ENDBRANCH  15  17
ENDBRANCH   1  15
TORSDOF 6
