REMARK  Name = ZINCpk000000mRio.0
REMARK                            x       y       z     vdW  Elec       q    Type
REMARK                         _______ _______ _______ _____ _____    ______ ____
ROOT
ATOM      1  C   LIG    1       -1.289  -0.705   0.201  0.00  0.00    +0.280 C 
ATOM      2  C   LIG    1       -1.787  -0.690   1.647  0.00  0.00    +0.040 C 
ENDROOT
BRANCH   1   3
ATOM      3  C   LIG    1        0.015   0.046   0.111  0.00  0.00    -0.080 A 
ATOM      4  C   LIG    1        0.013   1.428   0.060  0.00  0.00    +0.000 A 
ATOM      5  C   LIG    1        1.207   2.122  -0.022  0.00  0.00    +0.040 A 
ATOM      6  C   LIG    1        2.405   1.436  -0.055  0.00  0.00    +0.010 A 
ATOM      7  C   LIG    1        2.410   0.047  -0.004  0.00  0.00    +0.140 A 
ATOM      8  C   LIG    1        1.209  -0.646   0.080  0.00  0.00    +0.010 A 
BRANCH   7   9
ATOM      9  N   LIG    1        3.620  -0.650  -0.037  0.00  0.00    -1.060 N 
ATOM     10  H   LIG    1        3.780  -1.373   0.589  0.00  0.00    +0.430 HD
BRANCH   9  11
ATOM     11  S   LIG    1        4.781  -0.241  -1.144  0.00  0.00    +2.610 S 
ATOM     12  O   LIG    1        5.820  -1.185  -0.927  0.00  0.00    -0.950 OA
ATOM     13  O   LIG    1        4.996   1.147  -0.931  0.00  0.00    -0.950 OA
ATOM     14  C   LIG    1        3.991  -0.523  -2.753  0.00  0.00    -0.280 C 
ENDBRANCH   9  11
ENDBRANCH   7   9
ENDBRANCH   1   3
BRANCH   1  16
ATOM     15  C   LIG    1       -3.315  -0.781  -1.150  0.00  0.00    +0.520 C 
ATOM     16  N   LIG    1       -2.282  -0.065  -0.665  0.00  0.00    -0.730 N 
ATOM     17  H   LIG    1       -2.196   0.875  -0.889  0.00  0.00    +0.400 HD
ATOM     18  O   LIG    1       -3.423  -1.957  -0.869  0.00  0.00    -0.530 OA
BRANCH  15  25
ATOM     19  C   LIG    1       -5.651   2.726  -5.619  0.00  0.00    +0.090 C 
ATOM     20  C   LIG    1       -4.592   2.205  -4.681  0.00  0.00    +0.510 C 
ATOM     21  N   LIG    1       -4.671   0.946  -4.208  0.00  0.00    -0.610 N 
ATOM     22  C   LIG    1       -5.783   0.068  -4.598  0.00  0.00    +0.260 C 
ATOM     23  C   LIG    1       -6.450  -0.475  -3.330  0.00  0.00    +0.010 C 
ATOM     24  C   LIG    1       -5.394  -1.151  -2.453  0.00  0.00    +0.050 C 
ATOM     25  C   LIG    1       -4.337  -0.123  -2.040  0.00  0.00    -0.020 C 
ATOM     26  C   LIG    1       -3.647   0.424  -3.293  0.00  0.00    +0.290 C 
ATOM     27  O   LIG    1       -3.670   2.920  -4.352  0.00  0.00    -0.540 OA
ENDBRANCH  15  25
ENDBRANCH   1  16
TORSDOF 5
