REMARK  Name = ZINCc70000004SU1.1
REMARK                            x       y       z     vdW  Elec       q    Type
REMARK                         _______ _______ _______ _____ _____    ______ ____
ROOT
ATOM      1  C   LIG    1       -0.752   1.592  -1.233  0.00  0.00    +0.080 C 
ATOM      2  C   LIG    1       -2.188   1.061  -1.217  0.00  0.00    +0.050 C 
ATOM      3  C   LIG    1       -2.869   1.498   0.083  0.00  0.00    +0.040 C 
ATOM      4  C   LIG    1       -2.052   0.995   1.275  0.00  0.00    +0.250 C 
ATOM      5  N   LIG    1       -0.699   1.559   1.217  0.00  0.00    -0.500 N 
ATOM      6  H   LIG    1       -0.755   2.566   1.198  0.00  0.00    +0.420 HD
ATOM      7  H   LIG    1       -0.180   1.268   2.032  0.00  0.00    +0.430 HD
ATOM      8  C   LIG    1       -0.013   1.086   0.008  0.00  0.00    +0.260 C 
ENDROOT
BRANCH   1  12
ATOM      9  O   LIG    1        1.622   1.401  -5.433  0.00  0.00    -0.650 OA
ATOM     10  C   LIG    1        1.053   1.041  -4.419  0.00  0.00    +0.470 A 
ATOM     11  C   LIG    1        0.488   1.884  -3.433  0.00  0.00    -0.360 A 
ATOM     12  C   LIG    1       -0.047   1.104  -2.472  0.00  0.00    +0.070 A 
ATOM     13  N   LIG    1        0.163  -0.203  -2.809  0.00  0.00    -0.430 NA
ATOM     14  N   LIG    1        0.847  -0.235  -4.032  0.00  0.00    -0.560 N 
ATOM     15  H   LIG    1        1.125  -1.031  -4.511  0.00  0.00    +0.410 HD
ENDBRANCH   1  12
TORSDOF 1
