REMARK  Name = ZINCvU00000004ab.0
REMARK                            x       y       z     vdW  Elec       q    Type
REMARK                         _______ _______ _______ _____ _____    ______ ____
ROOT
ATOM      1  C   LIG    1        0.178   3.884   7.850  0.00  0.00    +0.520 C 
ATOM      2  N   LIG    1        0.682   5.052   7.407  0.00  0.00    -0.610 N 
ATOM      3  C   LIG    1        1.628   5.820   8.228  0.00  0.00    +0.270 C 
ATOM      4  C   LIG    1        2.883   6.107   7.398  0.00  0.00    +0.010 C 
ATOM      5  C   LIG    1        2.479   6.799   6.093  0.00  0.00    +0.030 C 
ATOM      6  C   LIG    1        1.564   5.876   5.287  0.00  0.00    -0.070 C 
ATOM      7  C   LIG    1        2.293   4.563   4.989  0.00  0.00    +0.050 C 
ATOM      8  C   LIG    1        1.393   3.669   4.134  0.00  0.00    +0.200 C 
ATOM      9  N   LIG    1        1.060   4.361   2.882  0.00  0.00    -0.470 N 
ATOM     10  C   LIG    1        0.317   5.601   3.142  0.00  0.00    +0.200 C 
ATOM     11  C   LIG    1        1.185   6.554   3.968  0.00  0.00    +0.050 C 
ATOM     12  C   LIG    1        0.295   5.584   6.093  0.00  0.00    +0.270 C 
ATOM     13  O   LIG    1        0.582   3.405   8.889  0.00  0.00    -0.540 OA
ENDROOT
BRANCH   9  14
ATOM     14  C   LIG    1        0.354   3.530   2.027  0.00  0.00    +0.360 A 
ATOM     15  C   LIG    1       -0.064   3.989   0.777  0.00  0.00    -0.110 A 
ATOM     16  C   LIG    1       -0.764   3.122  -0.039  0.00  0.00    +0.190 A 
ATOM     17  N   LIG    1       -1.014   1.892   0.388  0.00  0.00    -0.530 NA
ATOM     18  C   LIG    1       -0.606   1.489   1.574  0.00  0.00    +0.360 A 
ATOM     19  C   LIG    1       -1.237   3.568  -1.399  0.00  0.00    +0.130 C 
ATOM     20  N   LIG    1        0.060   2.284   2.387  0.00  0.00    -0.550 NA
BRANCH  18  21
ATOM     21  C   LIG    1       -0.914   0.082   2.015  0.00  0.00    +0.080 C 
ATOM     22  C   LIG    1       -2.430  -0.124   2.043  0.00  0.00    +0.050 C 
BRANCH  21  23
ATOM     23  C   LIG    1       -0.283  -0.910   1.036  0.00  0.00    +0.020 C 
ATOM     24  C   LIG    1       -0.489  -2.336   1.551  0.00  0.00    +0.020 C 
ENDBRANCH  21  23
ENDBRANCH  18  21
ENDBRANCH   9  14
BRANCH   1  25
ATOM     25  C   LIG    1       -0.886   3.172   7.056  0.00  0.00    -0.010 C 
ATOM     26  C   LIG    1       -2.195   3.960   7.136  0.00  0.00    +0.040 C 
BRANCH  25  27
ATOM     27  C   LIG    1       -1.099   1.770   7.629  0.00  0.00    +0.050 C 
BRANCH  27  28
ATOM     28  C   LIG    1       -2.088   1.003   6.748  0.00  0.00    -0.020 C 
ATOM     29  C   LIG    1       -1.475   0.785   5.364  0.00  0.00    +0.010 C 
BRANCH  28  31
ATOM     30  C   LIG    1       -3.478  -1.066   6.575  0.00  0.00    +0.010 C 
ATOM     31  C   LIG    1       -2.396  -0.352   7.388  0.00  0.00    +0.000 C 
ENDBRANCH  28  31
ENDBRANCH  27  28
ENDBRANCH  25  27
ENDBRANCH   1  25
TORSDOF 7
