REMARK  Name = ZINCrH000004u6M9.0
REMARK                            x       y       z     vdW  Elec       q    Type
REMARK                         _______ _______ _______ _____ _____    ______ ____
ROOT
ATOM      1  O   LIG    1       -3.418   7.001  -4.524  0.00  0.00    -0.530 OA
ATOM      2  C   LIG    1       -2.241   6.819  -4.281  0.00  0.00    +0.560 C 
ATOM      3  N   LIG    1       -1.340   7.783  -4.555  0.00  0.00    -0.720 N 
ATOM      4  H   LIG    1       -0.400   7.638  -4.362  0.00  0.00    +0.400 HD
ENDROOT
BRANCH   3   5
ATOM      5  C   LIG    1       -1.779   9.050  -5.144  0.00  0.00    +0.240 C 
ATOM      6  C   LIG    1       -1.866   8.903  -6.664  0.00  0.00    +0.020 C 
ATOM      7  C   LIG    1       -2.359  10.219  -7.274  0.00  0.00    +0.300 C 
ATOM      8  N   LIG    1       -1.480  11.307  -6.822  0.00  0.00    -0.610 N 
ATOM      9  C   LIG    1       -1.255  11.481  -5.381  0.00  0.00    +0.290 C 
ATOM     10  C   LIG    1       -0.893  12.130  -7.714  0.00  0.00    +0.610 C 
ATOM     11  O   LIG    1       -0.978  11.897  -8.905  0.00  0.00    -0.520 OA
ATOM     12  C   LIG    1       -0.775  10.151  -4.793  0.00  0.00    +0.030 C 
BRANCH  10  13
ATOM     13  C   LIG    1       -0.152  13.306  -7.248  0.00  0.00    -0.080 A 
ATOM     14  C   LIG    1        0.607  14.135  -8.023  0.00  0.00    +0.050 A 
ATOM     15  C   LIG    1        1.129  15.121  -7.170  0.00  0.00    -0.060 A 
ATOM     16  C   LIG    1        0.671  14.853  -5.927  0.00  0.00    +0.200 A 
ATOM     17  O   LIG    1       -0.105  13.762  -5.979  0.00  0.00    -0.160 OA
ENDBRANCH  10  13
ENDBRANCH   3   5
BRANCH   2  18
ATOM     18  C   LIG    1       -1.798   5.540  -3.687  0.00  0.00    -0.120 A 
ATOM     19  C   LIG    1       -2.728   4.539  -3.403  0.00  0.00    +0.080 A 
ATOM     20  C   LIG    1       -2.308   3.348  -2.849  0.00  0.00    +0.040 A 
ATOM     21  C   LIG    1       -0.967   3.143  -2.575  0.00  0.00    -0.050 A 
ATOM     22  C   LIG    1       -0.040   4.133  -2.849  0.00  0.00    +0.050 A 
ATOM     23  C   LIG    1       -0.447   5.327  -3.408  0.00  0.00    +0.040 A 
BRANCH  21  24
ATOM     24  C   LIG    1       -0.516   1.840  -1.969  0.00  0.00    +0.160 C 
ATOM     25  S   LIG    1        0.679   0.992  -3.066  0.00  0.00    -0.230 S 
ATOM     26  C   LIG    1        1.839   0.264  -1.874  0.00  0.00    +0.130 C 
ATOM     27  C   LIG    1        1.388   0.548  -0.436  0.00  0.00    +0.140 C 
ATOM     28  S   LIG    1        0.480   2.134  -0.453  0.00  0.00    -0.230 S 
ENDBRANCH  21  24
ENDBRANCH   2  18
TORSDOF 4
