REMARK  Name = ZINCrg00000SjSz1.0
REMARK                            x       y       z     vdW  Elec       q    Type
REMARK                         _______ _______ _______ _____ _____    ______ ____
ROOT
ATOM      1  C   LIG    1        2.411  -2.880  -0.172  0.00  0.00    +0.540 C 
ATOM      2  N   LIG    1        1.319  -2.096  -0.076  0.00  0.00    -0.710 N 
ATOM      3  H   LIG    1        0.441  -2.496   0.015  0.00  0.00    +0.420 HD
ATOM      4  O   LIG    1        3.510  -2.379  -0.285  0.00  0.00    -0.520 OA
ENDROOT
BRANCH   1   6
ATOM      5  C   LIG    1        2.107  -4.845   1.311  0.00  0.00    +0.100 C 
ATOM      6  C   LIG    1        2.267  -4.380  -0.138  0.00  0.00    +0.020 C 
BRANCH   6   7
ATOM      7  S   LIG    1        3.741  -5.144  -0.858  0.00  0.00    +0.080 S 
BRANCH   7   8
ATOM      8  C   LIG    1        3.251  -6.837  -0.832  0.00  0.00    +0.390 A 
ATOM      9  N   LIG    1        2.068  -7.159  -0.351  0.00  0.00    -0.580 NA
ATOM     10  C   LIG    1        1.657  -8.432  -0.319  0.00  0.00    +0.460 A 
ATOM     11  C   LIG    1        2.492  -9.437  -0.789  0.00  0.00    -0.250 A 
ATOM     12  C   LIG    1        3.748  -9.087  -1.293  0.00  0.00    +0.540 A 
ATOM     13  O   LIG    1        4.509  -9.944  -1.715  0.00  0.00    -0.550 OA
ATOM     14  N   LIG    1        4.106  -7.786  -1.305  0.00  0.00    -0.620 N 
ATOM     15  H   LIG    1        4.974  -7.526  -1.651  0.00  0.00    +0.420 HD
BRANCH  10  16
ATOM     16  N   LIG    1        0.411  -8.745   0.184  0.00  0.00    -0.830 N 
ATOM     17  H   LIG    1       -0.171  -8.041   0.512  0.00  0.00    +0.410 HD
ATOM     18  H   LIG    1        0.116  -9.669   0.210  0.00  0.00    +0.420 HD
ENDBRANCH  10  16
ENDBRANCH   7   8
ENDBRANCH   6   7
ENDBRANCH   1   6
BRANCH   2  19
ATOM     19  C   LIG    1        1.460  -0.638  -0.108  0.00  0.00    +0.320 C 
BRANCH  19  20
ATOM     20  C   LIG    1        0.101   0.001   0.015  0.00  0.00    +0.520 C 
ATOM     21  N   LIG    1       -0.016   1.344   0.009  0.00  0.00    -0.660 N 
ATOM     22  H   LIG    1        0.778   1.899  -0.009  0.00  0.00    +0.420 HD
ATOM     23  O   LIG    1       -0.888  -0.694   0.121  0.00  0.00    -0.510 OA
BRANCH  21  24
ATOM     24  C   LIG    1       -1.286   1.937   0.023  0.00  0.00    +0.130 A 
ATOM     25  C   LIG    1       -2.324   1.340   0.726  0.00  0.00    +0.100 A 
ATOM     26  C   LIG    1       -3.575   1.926   0.740  0.00  0.00    +0.050 A 
ATOM     27  C   LIG    1       -3.797   3.107   0.053  0.00  0.00    +0.090 A 
ATOM     28  C   LIG    1       -2.763   3.706  -0.650  0.00  0.00    +0.050 A 
ATOM     29  F   LIG    1       -2.981   4.859  -1.320  0.00  0.00    -0.110 F 
ATOM     30  F   LIG    1       -5.022   3.677   0.069  0.00  0.00    -0.120 F 
ATOM     31  C   LIG    1       -1.506   3.126  -0.662  0.00  0.00    +0.070 A 
ATOM     32  F   LIG    1       -0.497   3.712  -1.342  0.00  0.00    -0.110 F 
ENDBRANCH  21  24
ENDBRANCH  19  20
ENDBRANCH   2  19
TORSDOF 7
