REMARK  Name = ZINCrD00000762sb.0
REMARK                            x       y       z     vdW  Elec       q    Type
REMARK                         _______ _______ _______ _____ _____    ______ ____
ROOT
ATOM      1  C   LIG    1       -1.739  -1.023  -1.408  0.00  0.00    +0.190 A 
ATOM      2  N   LIG    1       -2.506  -0.250  -2.118  0.00  0.00    -0.370 NA
ATOM      3  O   LIG    1       -2.681  -0.722  -3.222  0.00  0.00    +0.090 OA
ATOM      4  C   LIG    1       -2.025  -1.889  -3.323  0.00  0.00    +0.270 A 
ATOM      5  N   LIG    1       -1.420  -2.085  -2.163  0.00  0.00    -0.460 NA
ENDROOT
BRANCH   4   6
ATOM      6  C   LIG    1       -1.985  -2.779  -4.500  0.00  0.00    -0.150 A 
ATOM      7  C   LIG    1       -1.322  -3.970  -4.641  0.00  0.00    +0.270 A 
ATOM      8  O   LIG    1       -1.590  -4.402  -5.878  0.00  0.00    +0.120 OA
ATOM      9  N   LIG    1       -2.303  -3.635  -6.480  0.00  0.00    -0.330 NA
ATOM     10  C   LIG    1       -2.622  -2.600  -5.763  0.00  0.00    +0.050 A 
BRANCH  10  11
ATOM     11  C   LIG    1       -3.493  -1.443  -6.182  0.00  0.00    +0.250 C 
ATOM     12  C   LIG    1       -2.716  -0.525  -7.145  0.00  0.00    +0.020 C 
ATOM     13  C   LIG    1       -3.576  -0.510  -8.432  0.00  0.00    +0.020 C 
ATOM     14  C   LIG    1       -4.964  -0.947  -7.900  0.00  0.00    +0.210 C 
ATOM     15  O   LIG    1       -4.646  -1.930  -6.888  0.00  0.00    -0.360 OA
ENDBRANCH  10  11
ENDBRANCH   4   6
BRANCH   1  16
ATOM     16  C   LIG    1       -1.294  -0.774   0.010  0.00  0.00    +0.230 C 
BRANCH  16  20
ATOM     17  C   LIG    1        2.381   1.409  -0.013  0.00  0.00    +0.140 A 
ATOM     18  C   LIG    1        1.169   2.087   0.002  0.00  0.00    +0.000 A 
ATOM     19  C   LIG    1       -0.017   1.379   0.010  0.00  0.00    +0.060 A 
ATOM     20  C   LIG    1        0.002  -0.004   0.002  0.00  0.00    -0.100 A 
ATOM     21  C   LIG    1        1.207  -0.682  -0.013  0.00  0.00    +0.070 A 
ATOM     22  C   LIG    1        2.396   0.021  -0.020  0.00  0.00    +0.010 A 
BRANCH  17  25
ATOM     23  C   LIG    1        5.045   3.748  -0.026  0.00  0.00    +0.160 A 
ATOM     24  C   LIG    1        3.724   3.489  -0.020  0.00  0.00    +0.130 A 
ATOM     25  N   LIG    1        3.586   2.125  -0.020  0.00  0.00    -0.410 N 
ATOM     26  C   LIG    1        4.838   1.599  -0.035  0.00  0.00    +0.400 A 
ATOM     27  N   LIG    1        5.701   2.578  -0.038  0.00  0.00    -0.480 NA
ENDBRANCH  17  25
ENDBRANCH  16  20
ENDBRANCH   1  16
TORSDOF 5
