REMARK  Name = ZINCtV00000VuO8w.0
REMARK                            x       y       z     vdW  Elec       q    Type
REMARK                         _______ _______ _______ _____ _____    ______ ____
ROOT
ATOM      1  C   LIG    1        3.721  -0.698  -0.038  0.00  0.00    +0.170 C 
ATOM      2  C   LIG    1        3.805  -1.572  -1.292  0.00  0.00    +0.060 C 
ATOM      3  C   LIG    1        5.117  -2.359  -1.272  0.00  0.00    +0.200 C 
ATOM      4  N   LIG    1        5.172  -3.194  -0.065  0.00  0.00    -0.500 N 
ATOM      5  C   LIG    1        5.141  -2.372   1.151  0.00  0.00    +0.200 C 
ATOM      6  F   LIG    1        4.769   0.229  -0.043  0.00  0.00    -0.200 F 
ATOM      7  C   LIG    1        3.829  -1.586   1.204  0.00  0.00    +0.060 C 
ENDROOT
BRANCH   4   8
ATOM      8  C   LIG    1        6.292  -4.021  -0.081  0.00  0.00    +0.170 A 
ATOM      9  C   LIG    1        7.578  -3.483  -0.047  0.00  0.00    +0.010 A 
ATOM     10  C   LIG    1        8.662  -4.336  -0.063  0.00  0.00    +0.060 A 
ATOM     11  N   LIG    1        8.493  -5.644  -0.110  0.00  0.00    -0.440 NA
ATOM     12  C   LIG    1        7.293  -6.192  -0.143  0.00  0.00    +0.320 A 
ATOM     13  C   LIG    1        6.157  -5.409  -0.125  0.00  0.00    -0.100 A 
ATOM     14 BR   LIG    1        4.442  -6.205  -0.165  0.00  0.00    +0.010 Br
BRANCH  10  15
ATOM     15  C   LIG    1       10.057  -3.767  -0.026  0.00  0.00    +0.520 C 
ATOM     16  F   LIG    1       10.065  -2.511  -0.643  0.00  0.00    -0.170 F 
ATOM     17  F   LIG    1       10.929  -4.625  -0.705  0.00  0.00    -0.160 F 
ATOM     18  F   LIG    1       10.472  -3.637   1.303  0.00  0.00    -0.170 F 
ENDBRANCH  10  15
ENDBRANCH   4   8
BRANCH   1  24
ATOM     19  C   LIG    1        1.213  -0.680  -0.013  0.00  0.00    +0.120 A 
ATOM     20  C   LIG    1        0.002  -0.004   0.002  0.00  0.00    -0.050 A 
ATOM     21  C   LIG    1       -0.017   1.377   0.010  0.00  0.00    +0.070 A 
ATOM     22  C   LIG    1        1.170   2.086   0.002  0.00  0.00    +0.010 A 
ATOM     23  C   LIG    1        2.379   1.415  -0.013  0.00  0.00    +0.070 A 
ATOM     24  C   LIG    1        2.403   0.034  -0.021  0.00  0.00    -0.120 A 
BRANCH  19  25
ATOM     25  O   LIG    1        1.234  -2.039  -0.021  0.00  0.00    -0.300 OA
BRANCH  25  27
ATOM     26  F   LIG    1       -0.760  -2.336  -1.147  0.00  0.00    -0.160 F 
ATOM     27  C   LIG    1       -0.029  -2.707  -0.013  0.00  0.00    +0.600 C 
ATOM     28  F   LIG    1       -0.739  -2.349   1.138  0.00  0.00    -0.160 F 
ATOM     29  F   LIG    1        0.176  -4.091  -0.023  0.00  0.00    -0.130 F 
ENDBRANCH  25  27
ENDBRANCH  19  25
ENDBRANCH   1  24
TORSDOF 5
