REMARK  Name = ZINCvU0000000E8f.0
REMARK                            x       y       z     vdW  Elec       q    Type
REMARK                         _______ _______ _______ _____ _____    ______ ____
ROOT
ATOM      1  C   LIG    1        1.022   3.584  -0.102  0.00  0.00    -0.100 A 
ATOM      2  C   LIG    1        1.036   4.199  -1.338  0.00  0.00    +0.030 A 
ATOM      3  C   LIG    1        0.689   5.534  -1.453  0.00  0.00    +0.010 A 
ATOM      4  C   LIG    1        0.337   6.261  -0.331  0.00  0.00    +0.020 A 
ATOM      5  C   LIG    1        0.324   5.657   0.911  0.00  0.00    +0.020 A 
ATOM      6  C   LIG    1        0.667   4.312   1.032  0.00  0.00    -0.030 A 
ENDROOT
BRANCH   6   7
ATOM      7  C   LIG    1        0.656   3.658   2.363  0.00  0.00    -0.040 A 
ATOM      8  C   LIG    1       -0.501   3.671   3.139  0.00  0.00    +0.010 A 
ATOM      9  C   LIG    1       -0.508   3.055   4.374  0.00  0.00    +0.040 A 
ATOM     10  C   LIG    1        0.635   2.437   4.848  0.00  0.00    -0.110 A 
ATOM     11  C   LIG    1        1.789   2.426   4.084  0.00  0.00    +0.020 A 
ATOM     12  C   LIG    1        1.805   3.033   2.845  0.00  0.00    +0.020 A 
BRANCH  10  13
ATOM     13  C   LIG    1        0.624   1.772   6.200  0.00  0.00    +0.340 C 
BRANCH  13  14
ATOM     14  N   LIG    1        1.019   2.742   7.224  0.00  0.00    -0.620 N 
ATOM     15  C   LIG    1        2.402   2.969   7.661  0.00  0.00    +0.250 C 
ATOM     16  C   LIG    1        2.384   4.332   8.390  0.00  0.00    +0.040 C 
ATOM     17  C   LIG    1        0.914   4.416   8.862  0.00  0.00    +0.050 C 
ATOM     18  C   LIG    1        0.161   3.535   7.889  0.00  0.00    +0.520 C 
ATOM     19  O   LIG    1       -1.041   3.543   7.732  0.00  0.00    -0.530 OA
ENDBRANCH  13  14
ENDBRANCH  10  13
ENDBRANCH   6   7
BRANCH   1  20
ATOM     20  C   LIG    1        1.395   2.129   0.021  0.00  0.00    +0.330 C 
BRANCH  20  23
ATOM     21  O   LIG    1        1.379  -0.518   0.531  0.00  0.00    -0.510 OA
ATOM     22  C   LIG    1        0.285   0.011   0.491  0.00  0.00    +0.560 C 
ATOM     23  N   LIG    1        0.186   1.332   0.242  0.00  0.00    -0.720 N 
ATOM     24  H   LIG    1       -0.687   1.754   0.206  0.00  0.00    +0.400 HD
BRANCH  22  25
ATOM     25  C   LIG    1       -0.934  -0.792   0.715  0.00  0.00    -0.120 A 
ATOM     26  C   LIG    1       -2.191  -0.187   0.670  0.00  0.00    +0.070 A 
ATOM     27  C   LIG    1       -3.326  -0.943   0.879  0.00  0.00    +0.040 A 
ATOM     28  C   LIG    1       -3.222  -2.299   1.134  0.00  0.00    +0.080 A 
ATOM     29  C   LIG    1       -1.980  -2.907   1.181  0.00  0.00    -0.040 A 
ATOM     30 CL   LIG    1       -1.860  -4.609   1.502  0.00  0.00    -0.040 Cl
ATOM     31  C   LIG    1       -0.834  -2.163   0.967  0.00  0.00    +0.020 A 
ATOM     32 CL   LIG    1        0.723  -2.928   1.020  0.00  0.00    -0.010 Cl
ENDBRANCH  22  25
ENDBRANCH  20  23
ENDBRANCH   1  20
TORSDOF 6
