REMARK  Name = ZINCrD00000F5LGR.0
REMARK                            x       y       z     vdW  Elec       q    Type
REMARK                         _______ _______ _______ _____ _____    ______ ____
ROOT
ATOM      1  C   LIG    1       -1.302   2.115  -0.009  0.00  0.00    +0.580 C 
ATOM      2  N   LIG    1       -1.295   3.458   0.103  0.00  0.00    -0.710 N 
ATOM      3  H   LIG    1       -0.454   3.941   0.095  0.00  0.00    +0.420 HD
ATOM      4  O   LIG    1       -2.358   1.517  -0.093  0.00  0.00    -0.540 OA
ENDROOT
BRANCH   1  15
ATOM      5  O   LIG    1        0.237  -2.792   0.215  0.00  0.00    -0.440 OA
ATOM      6  C   LIG    1        1.242  -2.158  -0.030  0.00  0.00    +0.410 C 
ATOM      7  C   LIG    1        2.554  -2.854  -0.323  0.00  0.00    +0.040 C 
ATOM      8  C   LIG    1        3.654  -2.085   0.421  0.00  0.00    +0.070 C 
ATOM      9  C   LIG    1        3.745  -0.670  -0.141  0.00  0.00    +0.110 C 
ATOM     10  C   LIG    1        2.410   0.028  -0.091  0.00  0.00    +0.260 A 
ATOM     11  N   LIG    1        2.398   1.376  -0.091  0.00  0.00    -0.590 N 
ATOM     12  H   LIG    1        3.241   1.855  -0.112  0.00  0.00    +0.420 HD
ATOM     13  C   LIG    1        1.252   2.077  -0.064  0.00  0.00    +0.540 A 
ATOM     14  O   LIG    1        1.280   3.294  -0.067  0.00  0.00    -0.520 OA
ATOM     15  C   LIG    1       -0.032   1.372  -0.030  0.00  0.00    -0.280 A 
ATOM     16  C   LIG    1       -0.018  -0.016  -0.025  0.00  0.00    +0.260 A 
ATOM     17  C   LIG    1        1.224  -0.685  -0.051  0.00  0.00    -0.280 A 
ENDBRANCH   1  15
BRANCH   2  18
ATOM     18  C   LIG    1       -2.558   4.189   0.237  0.00  0.00    +0.250 C 
ATOM     19  C   LIG    1       -2.953   4.973  -1.026  0.00  0.00    +0.030 C 
ATOM     20  C   LIG    1       -3.416   6.099  -0.086  0.00  0.00    +0.140 C 
ATOM     21  F   LIG    1       -4.751   5.980   0.316  0.00  0.00    -0.180 F 
ATOM     22  C   LIG    1       -2.412   5.548   0.941  0.00  0.00    +0.040 C 
BRANCH  20  23
ATOM     23  C   LIG    1       -3.074   7.480  -0.583  0.00  0.00    -0.090 A 
ATOM     24  C   LIG    1       -2.627   7.656  -1.879  0.00  0.00    +0.040 A 
ATOM     25  C   LIG    1       -2.318   8.924  -2.338  0.00  0.00    +0.030 A 
ATOM     26  C   LIG    1       -2.446  10.013  -1.497  0.00  0.00    +0.040 A 
ATOM     27  C   LIG    1       -2.889   9.836  -0.198  0.00  0.00    -0.040 A 
ATOM     28 CL   LIG    1       -3.049  11.204   0.858  0.00  0.00    -0.060 Cl
ATOM     29  C   LIG    1       -3.203   8.569   0.258  0.00  0.00    +0.050 A 
ENDBRANCH  20  23
ENDBRANCH   2  18
TORSDOF 3
