REMARK  Name = ZINCqH00000365VO.0
REMARK                            x       y       z     vdW  Elec       q    Type
REMARK                         _______ _______ _______ _____ _____    ______ ____
ROOT
ATOM      1  C   LIG    1       -0.074   5.628   0.031  0.00  0.00    +0.270 C 
ATOM      2  C   LIG    1       -0.328   6.142   1.464  0.00  0.00    +0.050 C 
ATOM      3  C   LIG    1       -1.260   7.364   1.232  0.00  0.00    +0.040 C 
ATOM      4  C   LIG    1       -2.110   6.885   0.029  0.00  0.00    +0.260 C 
ATOM      5  N   LIG    1       -1.174   6.117  -0.813  0.00  0.00    -0.600 N 
ATOM      6  C   LIG    1       -1.306   5.899  -2.136  0.00  0.00    +0.590 C 
ATOM      7  O   LIG    1       -0.470   5.248  -2.731  0.00  0.00    -0.490 OA
ENDROOT
BRANCH   6   8
ATOM      8  C   LIG    1       -2.470   6.454  -2.867  0.00  0.00    +0.090 A 
ATOM      9  C   LIG    1       -2.572   6.222  -4.198  0.00  0.00    -0.040 A 
ATOM     10  C   LIG    1       -3.726   6.787  -4.918  0.00  0.00    +0.420 A 
ATOM     11  C   LIG    1       -4.510   7.802  -4.186  0.00  0.00    -0.220 A 
ATOM     12  C   LIG    1       -5.451   8.601  -4.832  0.00  0.00    +0.110 A 
ATOM     13  C   LIG    1       -6.148   9.546  -4.111  0.00  0.00    -0.010 A 
ATOM     14  C   LIG    1       -5.915   9.700  -2.752  0.00  0.00    +0.090 A 
ATOM     15  C   LIG    1       -4.989   8.913  -2.101  0.00  0.00    +0.000 A 
ATOM     16  C   LIG    1       -4.276   7.950  -2.808  0.00  0.00    +0.140 A 
ATOM     17  O   LIG    1       -4.015   6.441  -6.050  0.00  0.00    -0.440 OA
ATOM     18  O   LIG    1       -3.375   7.168  -2.184  0.00  0.00    -0.220 OA
ENDBRANCH   6   8
BRANCH   1  22
ATOM     19  C   LIG    1       -0.016   1.355   0.009  0.00  0.00    +0.130 A 
ATOM     20  C   LIG    1       -1.226   2.033   0.019  0.00  0.00    -0.080 A 
ATOM     21  C   LIG    1       -1.242   3.414   0.031  0.00  0.00    +0.060 A 
ATOM     22  C   LIG    1       -0.054   4.121   0.024  0.00  0.00    -0.130 A 
ATOM     23  C   LIG    1        1.153   3.447   0.009  0.00  0.00    +0.070 A 
ATOM     24  C   LIG    1        1.175   2.066   0.002  0.00  0.00    -0.020 A 
BRANCH  19  26
ATOM     25  C   LIG    1       -1.262  -0.670   0.011  0.00  0.00    +0.250 C 
ATOM     26  O   LIG    1        0.002  -0.004   0.002  0.00  0.00    -0.320 OA
ENDBRANCH  19  26
ENDBRANCH   1  22
TORSDOF 3
