REMARK  Name = ZINCrH000004qtvl.0
REMARK                            x       y       z     vdW  Elec       q    Type
REMARK                         _______ _______ _______ _____ _____    ______ ____
ROOT
ATOM      1  C   LIG    1        4.827   2.646   8.712  0.00  0.00    +0.130 A 
ATOM      2  C   LIG    1        5.647   2.015   7.852  0.00  0.00    -0.100 A 
ATOM      3  S   LIG    1        4.723   1.611   6.407  0.00  0.00    +0.200 S 
ATOM      4  C   LIG    1        3.292   2.357   7.112  0.00  0.00    +0.270 A 
ATOM      5  N   LIG    1        3.582   2.814   8.291  0.00  0.00    -0.480 NA
ENDROOT
BRANCH   1  10
ATOM      6  C   LIG    1        6.607   4.496  13.867  0.00  0.00    +0.090 C 
ATOM      7  C   LIG    1        6.142   4.012  12.518  0.00  0.00    -0.070 A 
ATOM      8  C   LIG    1        5.410   4.853  11.699  0.00  0.00    +0.000 A 
ATOM      9  C   LIG    1        4.980   4.415  10.463  0.00  0.00    -0.050 A 
ATOM     10  C   LIG    1        5.286   3.123  10.040  0.00  0.00    -0.030 A 
ATOM     11  C   LIG    1        6.019   2.278  10.871  0.00  0.00    +0.030 A 
ATOM     12  C   LIG    1        4.183   5.332   9.572  0.00  0.00    +0.090 C 
ATOM     13  C   LIG    1        6.448   2.728  12.103  0.00  0.00    -0.090 A 
ATOM     14  C   LIG    1        7.247   1.818  13.000  0.00  0.00    +0.090 C 
ENDBRANCH   1  10
BRANCH   4  15
ATOM     15  N   LIG    1        2.047   2.438   6.503  0.00  0.00    -0.600 N 
ATOM     16  H   LIG    1        1.308   2.864   6.965  0.00  0.00    +0.440 HD
ATOM     17  C   LIG    1        1.865   1.926   5.270  0.00  0.00    +0.620 C 
ATOM     18  O   LIG    1        2.791   1.392   4.691  0.00  0.00    -0.470 OA
BRANCH  17  19
ATOM     19  C   LIG    1        0.537   2.012   4.621  0.00  0.00    +0.240 A 
ATOM     20  N   LIG    1        0.242   1.548   3.421  0.00  0.00    -0.250 NA
ATOM     21  N   LIG    1       -1.110   1.835   3.193  0.00  0.00    -0.320 N 
ATOM     22  C   LIG    1       -1.950   1.600   2.148  0.00  0.00    +0.200 A 
ATOM     23  C   LIG    1       -3.238   2.017   2.232  0.00  0.00    -0.040 A 
ATOM     24  C   LIG    1       -3.673   2.670   3.393  0.00  0.00    +0.420 A 
ATOM     25  N   LIG    1       -2.840   2.884   4.385  0.00  0.00    -0.450 NA
ATOM     26  C   LIG    1       -1.455   0.890   0.914  0.00  0.00    +0.160 C 
ATOM     27  C   LIG    1       -1.565   2.480   4.311  0.00  0.00    +0.450 A 
ATOM     28  N   LIG    1       -0.549   2.573   5.157  0.00  0.00    -0.500 NA
ENDBRANCH  17  19
ENDBRANCH   4  15
TORSDOF 3
