REMARK  Name = ZINCqH0000002CDS.0
REMARK                            x       y       z     vdW  Elec       q    Type
REMARK                         _______ _______ _______ _____ _____    ______ ____
ROOT
ATOM      1  N   LIG    1        2.102   1.394  -0.263  0.00  0.00    -0.620 N 
ATOM      2  C   LIG    1        0.872   1.853   0.046  0.00  0.00    +0.570 C 
ATOM      3  C   LIG    1       -0.262   0.912   0.077  0.00  0.00    -0.210 A 
ATOM      4  C   LIG    1       -1.581   1.355   0.114  0.00  0.00    +0.140 A 
ATOM      5  C   LIG    1       -2.607   0.433   0.145  0.00  0.00    -0.020 A 
ATOM      6  C   LIG    1       -2.333  -0.926   0.149  0.00  0.00    +0.030 A 
ATOM      7  C   LIG    1       -1.026  -1.379   0.114  0.00  0.00    -0.030 A 
ATOM      8 CL   LIG    1       -3.639  -2.068   0.196  0.00  0.00    -0.050 Cl
ATOM      9  C   LIG    1        0.014  -0.468   0.076  0.00  0.00    +0.240 A 
ATOM     10  N   LIG    1        1.344  -0.869   0.032  0.00  0.00    -0.740 N 
ATOM     11  H   LIG    1        1.624  -1.704   0.440  0.00  0.00    +0.420 HD
ATOM     12  O   LIG    1        0.700   3.031   0.297  0.00  0.00    -0.520 OA
ATOM     13  C   LIG    1        2.316  -0.002  -0.645  0.00  0.00    +0.560 C 
ENDROOT
BRANCH  13  14
ATOM     14  C   LIG    1        2.155  -0.142  -2.137  0.00  0.00    -0.270 A 
ATOM     15  C   LIG    1        3.161  -0.702  -2.908  0.00  0.00    +0.370 A 
ATOM     16  N   LIG    1        2.986  -0.815  -4.214  0.00  0.00    -0.550 NA
ATOM     17  C   LIG    1        1.869  -0.390  -4.787  0.00  0.00    +0.500 A 
ATOM     18  N   LIG    1        0.891   0.155  -4.079  0.00  0.00    -0.520 NA
ATOM     19  C   LIG    1        1.000   0.292  -2.768  0.00  0.00    +0.360 A 
BRANCH  17  20
ATOM     20  N   LIG    1        1.722  -0.519  -6.157  0.00  0.00    -0.450 N 
ATOM     21  C   LIG    1        1.591   0.811  -6.806  0.00  0.00    +0.200 C 
ATOM     22  C   LIG    1        1.965   0.524  -8.282  0.00  0.00    +0.030 C 
ATOM     23  C   LIG    1        3.102  -0.515  -8.154  0.00  0.00    +0.020 C 
ATOM     24  C   LIG    1        2.916  -1.147  -6.762  0.00  0.00    +0.220 C 
ENDBRANCH  17  20
ENDBRANCH  13  14
BRANCH   1  25
ATOM     25  C   LIG    1        3.245   2.309  -0.216  0.00  0.00    +0.290 C 
BRANCH  25  27
ATOM     26  C   LIG    1        4.580   3.968  -1.523  0.00  0.00    +0.030 C 
ATOM     27  C   LIG    1        3.329   3.088  -1.530  0.00  0.00    -0.010 C 
ENDBRANCH  25  27
ENDBRANCH   1  25
TORSDOF 4
