REMARK  Name = ZINCvU0000000CfP.0
REMARK                            x       y       z     vdW  Elec       q    Type
REMARK                         _______ _______ _______ _____ _____    ______ ____
ROOT
ATOM      1  C   LIG    1       -4.352   5.845   0.072  0.00  0.00    -0.030 C 
ATOM      2  C   LIG    1       -4.925   5.298   1.381  0.00  0.00    +0.090 C 
ENDROOT
BRANCH   1   3
ATOM      3  C   LIG    1       -4.670   7.314  -0.040  0.00  0.00    +0.440 C 
ATOM      4  O   LIG    1       -3.857   8.140   0.323  0.00  0.00    -0.430 OA
BRANCH   3   9
ATOM      5  C   LIG    1       -7.627   8.985  -1.284  0.00  0.00    -0.220 A 
ATOM      6  C   LIG    1       -7.952   7.649  -1.446  0.00  0.00    +0.140 A 
ATOM      7  N   LIG    1       -6.924   6.902  -1.016  0.00  0.00    -0.510 N 
ATOM      8  H   LIG    1       -6.894   5.933  -1.019  0.00  0.00    +0.430 HD
ATOM      9  C   LIG    1       -5.915   7.731  -0.569  0.00  0.00    -0.100 A 
ATOM     10  C   LIG    1       -9.245   7.121  -2.011  0.00  0.00    +0.150 C 
ATOM     11  C   LIG    1       -6.334   9.035  -0.722  0.00  0.00    +0.000 A 
ATOM     12  C   LIG    1       -5.559  10.275  -0.361  0.00  0.00    +0.140 C 
BRANCH   5  13
ATOM     13  C   LIG    1       -8.476  10.138  -1.630  0.00  0.00    +0.550 C 
ATOM     14  O   LIG    1       -9.241  10.598  -0.806  0.00  0.00    -0.490 OA
BRANCH  13  15
ATOM     15  O   LIG    1       -8.403  10.683  -2.861  0.00  0.00    -0.350 OA
BRANCH  15  17
ATOM     16  C   LIG    1       -9.048  12.296  -4.567  0.00  0.00    +0.070 C 
ATOM     17  C   LIG    1       -9.268  11.817  -3.131  0.00  0.00    +0.200 C 
ENDBRANCH  15  17
ENDBRANCH  13  15
ENDBRANCH   5  13
ENDBRANCH   3   9
ENDBRANCH   1   3
BRANCH   1  18
ATOM     18  S   LIG    1       -2.557   5.612   0.055  0.00  0.00    +0.070 S 
BRANCH  18  19
ATOM     19  C   LIG    1       -2.477   3.852   0.045  0.00  0.00    +0.190 A 
ATOM     20  N   LIG    1       -3.583   3.119   0.050  0.00  0.00    -0.510 NA
ATOM     21  C   LIG    1       -3.536   1.797   0.043  0.00  0.00    +0.260 A 
ATOM     22  N   LIG    1       -2.411   1.122   0.029  0.00  0.00    -0.460 NA
ATOM     23  C   LIG    1       -1.233   1.764   0.017  0.00  0.00    +0.170 A 
ATOM     24  C   LIG    1       -0.013   1.076   0.008  0.00  0.00    +0.060 A 
ATOM     25  C   LIG    1        1.157   1.778   0.001  0.00  0.00    +0.070 A 
ATOM     26  C   LIG    1        1.157   3.169   0.008  0.00  0.00    +0.040 A 
ATOM     27  C   LIG    1       -0.013   3.870   0.022  0.00  0.00    +0.060 A 
ATOM     28  C   LIG    1       -1.229   3.180   0.030  0.00  0.00    -0.120 A 
BRANCH  21  29
ATOM     29  C   LIG    1       -4.834   1.030   0.050  0.00  0.00    +0.550 C 
ATOM     30  F   LIG    1       -5.051   0.493   1.323  0.00  0.00    -0.160 F 
ATOM     31  F   LIG    1       -4.769  -0.005  -0.889  0.00  0.00    -0.160 F 
ATOM     32  F   LIG    1       -5.886   1.892  -0.277  0.00  0.00    -0.160 F 
ENDBRANCH  21  29
ENDBRANCH  18  19
ENDBRANCH   1  18
TORSDOF 8
