REMARK  Name = ZINCrD0000073PFH.0
REMARK                            x       y       z     vdW  Elec       q    Type
REMARK                         _______ _______ _______ _____ _____    ______ ____
ROOT
ATOM      1  C   LIG    1       -3.249  -5.073  -0.412  0.00  0.00    +0.460 C 
ATOM      2  O   LIG    1       -4.371  -4.624  -0.412  0.00  0.00    -0.490 OA
ENDROOT
BRANCH   1   4
ATOM      3  C   LIG    1       -2.206  -6.861  -1.778  0.00  0.00    +0.100 C 
ATOM      4  C   LIG    1       -3.034  -6.561  -0.527  0.00  0.00    +0.280 C 
BRANCH   4   5
ATOM      5  N   LIG    1       -4.330  -7.236  -0.624  0.00  0.00    -0.510 N 
ATOM      6  C   LIG    1       -5.160  -6.923  -1.663  0.00  0.00    +0.270 A 
ATOM      7  C   LIG    1       -6.361  -7.502  -1.824  0.00  0.00    -0.050 A 
ATOM      8  C   LIG    1       -6.815  -8.498  -0.853  0.00  0.00    +0.010 A 
ATOM      9  C   LIG    1       -8.055  -9.128  -0.965  0.00  0.00    +0.000 A 
ATOM     10  C   LIG    1       -8.432 -10.052  -0.030  0.00  0.00    +0.050 A 
ATOM     11  C   LIG    1       -7.597 -10.372   1.032  0.00  0.00    -0.010 A 
ATOM     12  C   LIG    1       -6.367  -9.766   1.169  0.00  0.00    +0.090 A 
ATOM     13  C   LIG    1       -5.961  -8.821   0.227  0.00  0.00    -0.150 A 
ATOM     14  C   LIG    1       -4.665  -8.140   0.317  0.00  0.00    +0.550 A 
ATOM     15  O   LIG    1       -3.900  -8.390   1.232  0.00  0.00    -0.520 OA
ENDBRANCH   4   5
ENDBRANCH   1   4
BRANCH   1  16
ATOM     16  O   LIG    1       -2.195  -4.248  -0.310  0.00  0.00    -0.320 OA
BRANCH  16  17
ATOM     17  C   LIG    1       -2.478  -2.828  -0.204  0.00  0.00    +0.270 C 
BRANCH  17  18
ATOM     18  C   LIG    1       -1.183  -2.065  -0.099  0.00  0.00    +0.520 C 
ATOM     19  N   LIG    1       -1.199  -0.721   0.010  0.00  0.00    -0.670 N 
ATOM     20  H   LIG    1       -2.044  -0.252   0.098  0.00  0.00    +0.420 HD
ATOM     21  O   LIG    1       -0.126  -2.659  -0.113  0.00  0.00    -0.490 OA
BRANCH  19  22
ATOM     22  C   LIG    1        0.002  -0.004  -0.004  0.00  0.00    +0.160 A 
ATOM     23  C   LIG    1        0.126   1.159   0.746  0.00  0.00    -0.010 A 
ATOM     24  C   LIG    1        1.313   1.866   0.730  0.00  0.00    +0.050 A 
ATOM     25  C   LIG    1        2.377   1.418  -0.030  0.00  0.00    +0.020 A 
ATOM     26  C   LIG    1        2.256   0.260  -0.779  0.00  0.00    -0.010 A 
ATOM     27 CL   LIG    1        3.595  -0.299  -1.733  0.00  0.00    -0.060 Cl
ATOM     28  C   LIG    1        1.071  -0.452  -0.768  0.00  0.00    +0.040 A 
ENDBRANCH  19  22
ENDBRANCH  17  18
ENDBRANCH  16  17
ENDBRANCH   1  16
TORSDOF 6
