REMARK  Name = ZINCyk0000000g1g.0
REMARK                            x       y       z     vdW  Elec       q    Type
REMARK                         _______ _______ _______ _____ _____    ______ ____
ROOT
ATOM      1  C   LIG    1        7.703  -5.387   7.678  0.00  0.00    +0.590 C 
ATOM      2  N   LIG    1        7.069  -5.110   6.521  0.00  0.00    -0.620 N 
ATOM      3  C   LIG    1        5.770  -4.448   6.356  0.00  0.00    +0.350 C 
ATOM      4  C   LIG    1        5.492  -4.367   4.871  0.00  0.00    -0.170 C 
ATOM      5  C   LIG    1        6.475  -4.901   4.205  0.00  0.00    -0.170 C 
ATOM      6  C   LIG    1        6.197  -4.820   2.720  0.00  0.00    +0.350 C 
ATOM      7  N   LIG    1        4.898  -4.158   2.555  0.00  0.00    -0.620 N 
ATOM      8  C   LIG    1        4.265  -3.881   1.399  0.00  0.00    +0.540 C 
ATOM      9  O   LIG    1        4.773  -4.186   0.341  0.00  0.00    -0.520 OA
ATOM     10  C   LIG    1        4.436  -3.857   3.915  0.00  0.00    +0.340 C 
ATOM     11  C   LIG    1        7.534  -5.406   5.161  0.00  0.00    +0.350 C 
ATOM     12  O   LIG    1        7.240  -4.998   8.732  0.00  0.00    -0.510 OA
ENDROOT
BRANCH   1  16
ATOM     13  C   LIG    1       11.314  -7.623   7.638  0.00  0.00    +0.160 A 
ATOM     14  C   LIG    1       10.707  -7.309   8.848  0.00  0.00    +0.050 A 
ATOM     15  C   LIG    1        9.536  -6.583   8.865  0.00  0.00    +0.120 A 
ATOM     16  C   LIG    1        8.958  -6.165   7.664  0.00  0.00    -0.120 A 
ATOM     17  C   LIG    1        9.569  -6.488   6.450  0.00  0.00    +0.070 A 
ATOM     18  C   LIG    1       10.743  -7.208   6.441  0.00  0.00    +0.030 A 
BRANCH  13  24
ATOM     19  C   LIG    1       12.109  -9.722   5.504  0.00  0.00    +0.220 C 
ATOM     20  C   LIG    1       12.889  -9.282   6.716  0.00  0.00    +0.260 A 
ATOM     21  N   LIG    1       14.066  -9.720   7.081  0.00  0.00    -0.320 NA
ATOM     22  N   LIG    1       14.447  -9.144   8.163  0.00  0.00    -0.020 NA
ATOM     23  N   LIG    1       13.554  -8.303   8.559  0.00  0.00    -0.070 NA
ATOM     24  N   LIG    1       12.505  -8.360   7.625  0.00  0.00    -0.340 N 
ENDBRANCH  13  24
ENDBRANCH   1  16
BRANCH   8  25
ATOM     25  C   LIG    1        2.925  -3.190   1.420  0.00  0.00    +0.050 C 
BRANCH  25  26
ATOM     26  C   LIG    1        2.430  -2.995  -0.015  0.00  0.00    +0.320 C 
BRANCH  26  27
ATOM     27  N   LIG    1        1.127  -2.324   0.006  0.00  0.00    -0.570 NA
ATOM     28  C   LIG    1       -0.104  -3.115   0.063  0.00  0.00    +0.320 C 
BRANCH  27  29
ATOM     29  C   LIG    1        1.060  -0.934  -0.029  0.00  0.00    +0.310 C 
ATOM     30  C   LIG    1       -0.170  -0.277  -0.010  0.00  0.00    -0.030 C 
ATOM     31  C   LIG    1       -0.193   1.102  -0.046  0.00  0.00    +0.370 C 
ATOM     32  N   LIG    1        0.928   1.796  -0.099  0.00  0.00    -0.500 NA
ATOM     33  C   LIG    1        2.111   1.211  -0.118  0.00  0.00    +0.370 C 
ATOM     34  H   LIG    1        0.881   2.765  -0.123  0.00  0.00    +0.450 HD
ATOM     35  C   LIG    1        2.221  -0.163  -0.084  0.00  0.00    -0.030 C 
ENDBRANCH  27  29
ENDBRANCH  26  27
ENDBRANCH  25  26
ENDBRANCH   8  25
TORSDOF 6
