REMARK  Name = ZINCtV000002F7JK.0
REMARK                            x       y       z     vdW  Elec       q    Type
REMARK                         _______ _______ _______ _____ _____    ______ ____
ROOT
ATOM      1  C   LIG    1       -3.349  -5.482   0.002  0.00  0.00    +0.510 C 
ATOM      2  N   LIG    1       -2.724  -4.288   0.003  0.00  0.00    -0.630 N 
ATOM      3  H   LIG    1       -3.244  -3.469   0.013  0.00  0.00    +0.420 HD
ATOM      4  O   LIG    1       -2.700  -6.506  -0.010  0.00  0.00    -0.490 OA
ENDROOT
BRANCH   2   5
ATOM      5  C   LIG    1       -1.336  -4.230  -0.009  0.00  0.00    +0.250 A 
ATOM      6  N   LIG    1       -0.642  -3.137  -0.004  0.00  0.00    -0.500 NA
ATOM      7  C   LIG    1        0.679  -3.264  -0.022  0.00  0.00    +0.180 A 
ATOM      8  C   LIG    1        1.109  -4.539  -0.033  0.00  0.00    -0.160 A 
ATOM      9  S   LIG    1       -0.303  -5.592  -0.026  0.00  0.00    +0.250 S 
BRANCH   7  10
ATOM     10  C   LIG    1        1.601  -2.102  -0.025  0.00  0.00    -0.110 A 
ATOM     11  C   LIG    1        2.954  -2.144  -0.038  0.00  0.00    +0.260 A 
ATOM     12  N   LIG    1        3.456  -0.871  -0.035  0.00  0.00    -0.590 N 
ATOM     13  H   LIG    1        4.399  -0.646  -0.044  0.00  0.00    +0.420 HD
ATOM     14  C   LIG    1        2.426   0.044  -0.021  0.00  0.00    +0.090 A 
ATOM     15  C   LIG    1        2.385   1.435  -0.013  0.00  0.00    -0.010 A 
ATOM     16  C   LIG    1        1.170   2.083   0.002  0.00  0.00    +0.030 A 
ATOM     17  C   LIG    1       -0.017   1.363   0.009  0.00  0.00    -0.030 A 
ATOM     18  C   LIG    1        0.002  -0.004   0.002  0.00  0.00    +0.070 A 
ATOM     19  C   LIG    1        1.221  -0.680  -0.013  0.00  0.00    -0.080 A 
ENDBRANCH   7  10
ENDBRANCH   2   5
BRANCH   1  20
ATOM     20  C   LIG    1       -4.855  -5.545   0.015  0.00  0.00    +0.170 C 
BRANCH  20  23
ATOM     21  C   LIG    1       -5.370  -7.306   2.518  0.00  0.00    +0.130 C 
ATOM     22  C   LIG    1       -5.523  -7.754   1.088  0.00  0.00    +0.110 A 
ATOM     23  C   LIG    1       -5.298  -6.985   0.011  0.00  0.00    -0.160 A 
ATOM     24  C   LIG    1       -5.570  -7.809  -1.169  0.00  0.00    -0.080 A 
ATOM     25  C   LIG    1       -5.508  -7.583  -2.545  0.00  0.00    +0.090 A 
ATOM     26  C   LIG    1       -5.830  -8.599  -3.418  0.00  0.00    -0.110 A 
ATOM     27  C   LIG    1       -6.208  -9.845  -2.936  0.00  0.00    +0.070 A 
ATOM     28  C   LIG    1       -6.268 -10.085  -1.581  0.00  0.00    +0.010 A 
ATOM     29 BR   LIG    1       -5.756  -8.295  -5.283  0.00  0.00    -0.050 Br
ATOM     30  C   LIG    1       -5.947  -9.074  -0.681  0.00  0.00    +0.110 A 
ATOM     31  N   LIG    1       -5.912  -9.006   0.694  0.00  0.00    -0.590 N 
ATOM     32  H   LIG    1       -6.130  -9.736   1.294  0.00  0.00    +0.420 HD
ENDBRANCH  20  23
ENDBRANCH   1  20
TORSDOF 4
