REMARK  Name = ZINCpk00000y6yVJ.0
REMARK                            x       y       z     vdW  Elec       q    Type
REMARK                         _______ _______ _______ _____ _____    ______ ____
ROOT
ATOM      1  C   LIG    1       -2.008   6.355   0.458  0.00  0.00    +0.220 C 
ATOM      2  C   LIG    1       -1.962   6.467  -1.083  0.00  0.00    +0.020 C 
ATOM      3  C   LIG    1       -1.718   7.960  -1.370  0.00  0.00    +0.200 C 
ATOM      4  N   LIG    1       -1.662   8.650  -0.063  0.00  0.00    -0.430 N 
ATOM      5  C   LIG    1       -1.245   7.620   0.925  0.00  0.00    +0.270 C 
ENDROOT
BRANCH   4   6
ATOM      6  C   LIG    1       -0.759   9.706  -0.095  0.00  0.00    +0.330 A 
ATOM      7  C   LIG    1       -0.817  10.809  -0.946  0.00  0.00    -0.060 A 
ATOM      8  N   LIG    1        0.275  11.602  -0.629  0.00  0.00    -0.330 N 
ATOM      9  C   LIG    1        0.720  12.787  -1.126  0.00  0.00    +0.230 A 
ATOM     10  C   LIG    1        1.842  13.362  -0.637  0.00  0.00    +0.030 A 
ATOM     11  C   LIG    1        2.561  12.738   0.392  0.00  0.00    +0.070 A 
ATOM     12  C   LIG    1        2.122  11.550   0.896  0.00  0.00    +0.070 A 
ATOM     13  C   LIG    1        0.953  10.968   0.374  0.00  0.00    +0.280 A 
ATOM     14  N   LIG    1        0.316   9.838   0.676  0.00  0.00    -0.510 NA
BRANCH   7  15
ATOM     15  C   LIG    1       -1.809  11.072  -1.944  0.00  0.00    +0.290 C 
ATOM     16  N   LIG    1       -2.596  11.281  -2.737  0.00  0.00    -0.400 NA
ENDBRANCH   7  15
ENDBRANCH   4   6
BRANCH   1  19
ATOM     17  N   LIG    1       -0.749   3.044   1.275  0.00  0.00    -0.280 N 
ATOM     18  C   LIG    1       -1.661   3.828   0.654  0.00  0.00    +0.150 A 
ATOM     19  C   LIG    1       -1.304   5.106   0.923  0.00  0.00    -0.040 A 
ATOM     20  N   LIG    1       -0.202   5.042   1.678  0.00  0.00    -0.250 NA
ATOM     21  N   LIG    1        0.101   3.807   1.869  0.00  0.00    -0.080 NA
BRANCH  17  23
ATOM     22  C   LIG    1       -0.013   1.086   0.008  0.00  0.00    +0.060 C 
ATOM     23  C   LIG    1       -0.729   1.579   1.267  0.00  0.00    +0.250 C 
ATOM     24  C   LIG    1       -2.164   1.050   1.278  0.00  0.00    +0.060 C 
ENDBRANCH  17  23
ENDBRANCH   1  19
BRANCH   1  25
ATOM     25  O   LIG    1       -3.358   6.377   0.927  0.00  0.00    -0.530 OA
ATOM     26  H   LIG    1       -3.889   5.625   0.630  0.00  0.00    +0.380 HD
ENDBRANCH   1  25
TORSDOF 5
