REMARK  Name = ZINCtV00000tP41i.0
REMARK                            x       y       z     vdW  Elec       q    Type
REMARK                         _______ _______ _______ _____ _____    ______ ____
ROOT
ATOM      1  C   LIG    1        4.383   1.706  -7.975  0.00  0.00    +0.040 C 
ATOM      2  C   LIG    1        4.568   0.355  -7.281  0.00  0.00    +0.280 C 
ENDROOT
BRANCH   2   3
ATOM      3  C   LIG    1        4.080  -0.746  -8.186  0.00  0.00    -0.090 A 
ATOM      4  C   LIG    1        2.726  -1.019  -8.272  0.00  0.00    +0.010 A 
ATOM      5  C   LIG    1        2.273  -2.023  -9.103  0.00  0.00    +0.030 A 
ATOM      6  C   LIG    1        3.183  -2.770  -9.849  0.00  0.00    -0.050 A 
ATOM      7  C   LIG    1        4.545  -2.494  -9.755  0.00  0.00    +0.030 A 
ATOM      8  C   LIG    1        4.987  -1.484  -8.925  0.00  0.00    +0.030 A 
BRANCH   6   9
ATOM      9  C   LIG    1        2.702  -3.854 -10.741  0.00  0.00    -0.040 A 
ATOM     10  C   LIG    1        3.613  -4.600 -11.487  0.00  0.00    +0.060 A 
ATOM     11  C   LIG    1        3.169  -5.611 -12.317  0.00  0.00    +0.030 A 
ATOM     12  C   LIG    1        1.820  -5.890 -12.414  0.00  0.00    +0.070 A 
ATOM     13  C   LIG    1        0.897  -5.149 -11.672  0.00  0.00    -0.020 A 
ATOM     14  C   LIG    1        1.342  -4.132 -10.829  0.00  0.00    +0.080 A 
BRANCH  13  15
ATOM     15  C   LIG    1       -0.502  -5.439 -11.772  0.00  0.00    +0.250 C 
ATOM     16  N   LIG    1       -1.612  -5.668 -11.852  0.00  0.00    -0.410 NA
ENDBRANCH  13  15
ENDBRANCH   6   9
ENDBRANCH   2   3
BRANCH   2  17
ATOM     17  N   LIG    1        3.800   0.338  -6.034  0.00  0.00    -0.720 N 
ATOM     18  H   LIG    1        2.906  -0.038  -6.019  0.00  0.00    +0.400 HD
ATOM     19  C   LIG    1        4.335   0.846  -4.906  0.00  0.00    +0.560 C 
ATOM     20  O   LIG    1        5.455   1.317  -4.923  0.00  0.00    -0.510 OA
BRANCH  19  21
ATOM     21  C   LIG    1        3.560   0.829  -3.647  0.00  0.00    -0.140 A 
ATOM     22  C   LIG    1        2.274   0.288  -3.623  0.00  0.00    +0.060 A 
ATOM     23  C   LIG    1        1.558   0.270  -2.444  0.00  0.00    +0.010 A 
ATOM     24  C   LIG    1        2.108   0.797  -1.289  0.00  0.00    -0.010 A 
ATOM     25  C   LIG    1        3.382   1.334  -1.304  0.00  0.00    +0.020 A 
ATOM     26  C   LIG    1        4.112   1.354  -2.476  0.00  0.00    +0.020 A 
ATOM     27 CL   LIG    1        5.712   2.029  -2.494  0.00  0.00    -0.030 Cl
BRANCH  24  28
ATOM     28  C   LIG    1        1.317   0.779  -0.006  0.00  0.00    -0.010 C 
ATOM     29  C   LIG    1       -0.019   1.526   0.010  0.00  0.00    +0.040 C 
ATOM     30  C   LIG    1        0.002  -0.004   0.002  0.00  0.00    +0.030 C 
ENDBRANCH  24  28
ENDBRANCH  19  21
ENDBRANCH   2  17
TORSDOF 6
