REMARK  Name = ZINCb70000002Dwm.0
REMARK                            x       y       z     vdW  Elec       q    Type
REMARK                         _______ _______ _______ _____ _____    ______ ____
ROOT
ATOM      1  C   LIG    1        2.427   1.032  -0.016  0.00  0.00    +0.310 C 
ENDROOT
BRANCH   1   2
ATOM      2  N   LIG    1        1.158   1.763   0.001  0.00  0.00    -0.500 N 
ATOM      3  C   LIG    1       -0.013   1.076   0.008  0.00  0.00    +0.270 A 
ATOM      4  C   LIG    1       -1.198   1.729   0.017  0.00  0.00    -0.060 A 
ATOM      5  C   LIG    1       -1.224   3.131   0.031  0.00  0.00    +0.130 A 
ATOM      6  C   LIG    1       -0.047   3.820   0.023  0.00  0.00    -0.090 A 
ATOM      7  C   LIG    1        1.166   3.110   0.007  0.00  0.00    +0.510 A 
ATOM      8  O   LIG    1        2.226   3.714  -0.000  0.00  0.00    -0.550 OA
ENDBRANCH   1   2
BRANCH   1   9
ATOM      9  C   LIG    1        2.856   0.785  -1.464  0.00  0.00    +0.020 C 
BRANCH   9  10
ATOM     10  C   LIG    1        4.181   0.021  -1.480  0.00  0.00    +0.280 C 
BRANCH  10  11
ATOM     11  N   LIG    1        4.592  -0.215  -2.871  0.00  0.00    -0.640 N 
ATOM     12  H   LIG    1        5.466  -0.719  -2.882  0.00  0.00    +0.440 HD
ATOM     13  H   LIG    1        4.707   0.669  -3.343  0.00  0.00    +0.440 HD
ATOM     14  H   LIG    1        3.885  -0.759  -3.342  0.00  0.00    +0.440 HD
ENDBRANCH  10  11
ENDBRANCH   9  10
ENDBRANCH   1   9
TORSDOF 4
