REMARK  Name = ZINCrH00000No54o.0
REMARK                            x       y       z     vdW  Elec       q    Type
REMARK                         _______ _______ _______ _____ _____    ______ ____
ROOT
ATOM      1  C   LIG    1        1.531   4.689   0.013  0.00  0.00    +0.620 C 
ATOM      2  N   LIG    1        0.976   5.917   0.025  0.00  0.00    -0.580 N 
ATOM      3  H   LIG    1        0.011   6.013   0.034  0.00  0.00    +0.390 HD
ATOM      4  O   LIG    1        2.742   4.569   0.001  0.00  0.00    -0.510 OA
ENDROOT
BRANCH   1   8
ATOM      5  C   LIG    1       -2.561   1.642   0.021  0.00  0.00    +0.130 C 
ATOM      6  C   LIG    1       -1.148   2.165   0.019  0.00  0.00    +0.030 A 
ATOM      7  C   LIG    1       -0.794   3.462   0.028  0.00  0.00    -0.020 A 
ATOM      8  C   LIG    1        0.673   3.494   0.014  0.00  0.00    -0.240 A 
ATOM      9  C   LIG    1        1.083   2.188   0.004  0.00  0.00    +0.130 A 
ATOM     10  C   LIG    1        2.512   1.712  -0.013  0.00  0.00    +0.150 C 
ATOM     11  N   LIG    1       -0.017   1.397   0.010  0.00  0.00    -0.400 N 
BRANCH  11  12
ATOM     12  C   LIG    1        0.002  -0.004   0.002  0.00  0.00    +0.100 A 
ATOM     13  C   LIG    1        0.503  -0.687  -1.098  0.00  0.00    +0.020 A 
ATOM     14  C   LIG    1        0.525  -2.068  -1.101  0.00  0.00    +0.020 A 
ATOM     15  C   LIG    1        0.038  -2.771  -0.014  0.00  0.00    +0.020 A 
ATOM     16  C   LIG    1       -0.466  -2.093   1.081  0.00  0.00    +0.020 A 
ATOM     17  C   LIG    1       -0.486  -0.712   1.092  0.00  0.00    +0.020 A 
ENDBRANCH  11  12
ENDBRANCH   1   8
BRANCH   2  18
ATOM     18  N   LIG    1        1.793   7.056   0.024  0.00  0.00    -0.210 NA
ATOM     19  C   LIG    1        1.258   8.238   0.035  0.00  0.00    +0.220 C 
BRANCH  19  20
ATOM     20  C   LIG    1        2.118   9.436   0.034  0.00  0.00    -0.040 A 
ATOM     21  C   LIG    1        3.509   9.302   0.026  0.00  0.00    +0.130 A 
ATOM     22  C   LIG    1        4.307  10.427   0.021  0.00  0.00    +0.030 A 
ATOM     23  C   LIG    1        3.733  11.686   0.033  0.00  0.00    +0.120 A 
ATOM     24  C   LIG    1        2.357  11.827   0.045  0.00  0.00    -0.050 A 
ATOM     25  C   LIG    1        1.546  10.711   0.046  0.00  0.00    +0.130 A 
BRANCH  24  26
ATOM     26  N   LIG    1        1.752  13.178   0.058  0.00  0.00    +0.030 N 
ATOM     27  O   LIG    1        2.467  14.164   0.057  0.00  0.00    -0.160 OA
ATOM     28  O   LIG    1        0.541  13.303   0.070  0.00  0.00    -0.160 OA
ENDBRANCH  24  26
ENDBRANCH  19  20
ENDBRANCH   2  18
TORSDOF 5
