REMARK  Name = ZINC9l0000002pP2.0
REMARK                            x       y       z     vdW  Elec       q    Type
REMARK                         _______ _______ _______ _____ _____    ______ ____
ROOT
ATOM      1  C   LIG    1       -2.479   0.941   0.019  0.00  0.00    +0.050 C 
ENDROOT
BRANCH   1   3
ATOM      2  C   LIG    1       -4.963   0.678   0.029  0.00  0.00    +0.060 C 
ATOM      3  C   LIG    1       -3.814   1.688   0.029  0.00  0.00    +0.280 C 
ATOM      4  F   LIG    1       -3.905   2.497  -1.108  0.00  0.00    -0.210 F 
ATOM      5  F   LIG    1       -3.894   2.485   1.176  0.00  0.00    -0.210 F 
ENDBRANCH   1   3
BRANCH   1   6
ATOM      6  C   LIG    1       -1.330   1.951   0.019  0.00  0.00    -0.070 C 
BRANCH   6   7
ATOM      7  C   LIG    1       -0.015   1.215   0.009  0.00  0.00    +0.490 C 
ATOM      8  O   LIG    1        1.033   1.839   0.002  0.00  0.00    -0.700 OA
ATOM      9  O   LIG    1        0.002  -0.004   0.002  0.00  0.00    -0.700 OA
ENDBRANCH   6   7
ENDBRANCH   1   6
TORSDOF 3
