REMARK  Name = ZINCrH000004oqDO.0
REMARK                            x       y       z     vdW  Elec       q    Type
REMARK                         _______ _______ _______ _____ _____    ______ ____
ROOT
ATOM      1  C   LIG    1       -1.276   0.951  -7.182  0.00  0.00    -0.100 A 
ATOM      2  C   LIG    1        0.074   0.727  -7.437  0.00  0.00    +0.090 A 
ATOM      3  C   LIG    1        0.463   0.117  -8.616  0.00  0.00    +0.020 A 
ATOM      4  C   LIG    1       -0.482  -0.264  -9.552  0.00  0.00    +0.060 A 
ATOM      5  C   LIG    1       -1.827  -0.045  -9.319  0.00  0.00    +0.040 A 
ATOM      6  C   LIG    1       -2.238   0.563  -8.135  0.00  0.00    -0.080 A 
ENDROOT
BRANCH   1   7
ATOM      7  C   LIG    1       -1.698   1.597  -5.921  0.00  0.00    +0.510 C 
ATOM      8  O   LIG    1       -2.864   1.886  -5.747  0.00  0.00    -0.490 OA
BRANCH   7   9
ATOM      9  O   LIG    1       -0.788   1.865  -4.965  0.00  0.00    -0.320 OA
BRANCH   9  11
ATOM     10  C   LIG    1       -1.209   4.020  -3.913  0.00  0.00    +0.080 C 
ATOM     11  C   LIG    1       -1.273   2.500  -3.752  0.00  0.00    +0.190 C 
BRANCH  11  12
ATOM     12  C   LIG    1       -0.413   2.081  -2.587  0.00  0.00    +0.530 C 
ATOM     13  N   LIG    1       -0.737   2.469  -1.338  0.00  0.00    -0.620 N 
ATOM     14  C   LIG    1        0.009   2.133  -0.116  0.00  0.00    +0.250 C 
ATOM     15  C   LIG    1       -0.741   2.770   1.073  0.00  0.00    +0.040 C 
ATOM     16  C   LIG    1       -2.182   2.950   0.513  0.00  0.00    +0.040 C 
ATOM     17  C   LIG    1       -1.898   3.300  -0.969  0.00  0.00    +0.250 C 
ATOM     18  O   LIG    1        0.569   1.395  -2.774  0.00  0.00    -0.510 OA
ENDBRANCH  11  12
ENDBRANCH   9  11
ENDBRANCH   7   9
ENDBRANCH   1   7
BRANCH   6  19
ATOM     19  C   LIG    1       -3.675   0.800  -7.881  0.00  0.00    +0.460 C 
ATOM     20  O   LIG    1       -4.247   1.717  -8.438  0.00  0.00    -0.430 OA
BRANCH  19  21
ATOM     21  C   LIG    1       -4.415  -0.077  -6.952  0.00  0.00    -0.140 A 
ATOM     22  C   LIG    1       -3.744  -1.083  -6.252  0.00  0.00    +0.070 A 
ATOM     23  C   LIG    1       -4.440  -1.895  -5.383  0.00  0.00    +0.020 A 
ATOM     24  C   LIG    1       -5.803  -1.722  -5.210  0.00  0.00    -0.010 A 
ATOM     25  C   LIG    1       -6.476  -0.730  -5.904  0.00  0.00    +0.020 A 
ATOM     26 CL   LIG    1       -6.674  -2.755  -4.118  0.00  0.00    -0.060 Cl
ATOM     27  C   LIG    1       -5.790   0.093  -6.773  0.00  0.00    +0.090 A 
ENDBRANCH  19  21
ENDBRANCH   6  19
TORSDOF 6
