REMARK  Name = ZINCpe000000V8U6.0
REMARK                            x       y       z     vdW  Elec       q    Type
REMARK                         _______ _______ _______ _____ _____    ______ ____
ROOT
ATOM      1  C   LIG    1       -3.047   0.219   1.683  0.00  0.00    -0.460 C 
ATOM      2  C   LIG    1       -4.591   0.237   1.530  0.00  0.00    +0.080 C 
ATOM      3  C   LIG    1       -4.898  -1.268   1.316  0.00  0.00    +0.280 C 
ATOM      4  N   LIG    1       -3.776  -1.773   0.504  0.00  0.00    -0.600 N 
ATOM      5  C   LIG    1       -3.810  -2.857  -0.296  0.00  0.00    +0.670 C 
ATOM      6  O   LIG    1       -2.821  -3.183  -0.921  0.00  0.00    -0.560 OA
ATOM      7  C   LIG    1       -2.612  -0.898   0.712  0.00  0.00    +0.330 C 
ENDROOT
BRANCH   1   8
ATOM      8  S   LIG    1       -2.335   1.812   1.189  0.00  0.00    +2.620 S 
ATOM      9  O   LIG    1       -2.627   2.088  -0.174  0.00  0.00    -0.930 OA
ATOM     10  O   LIG    1       -2.552   2.790   2.197  0.00  0.00    -0.940 OA
BRANCH   8  11
ATOM     11  N   LIG    1       -0.698   1.558   1.213  0.00  0.00    -0.990 NA
ATOM     12  C   LIG    1       -0.013   1.086   0.008  0.00  0.00    +0.320 C 
BRANCH  11  13
ATOM     13  C   LIG    1        0.063   1.806   2.440  0.00  0.00    +0.390 C 
BRANCH  13  14
ATOM     14  C   LIG    1        0.643   3.197   2.399  0.00  0.00    +0.440 C 
ATOM     15  O   LIG    1        0.440   3.908   1.444  0.00  0.00    -0.490 OA
BRANCH  14  17
ATOM     16  C   LIG    1        1.909   4.995   3.317  0.00  0.00    +0.270 C 
ATOM     17  O   LIG    1        1.384   3.645   3.425  0.00  0.00    -0.360 OA
ENDBRANCH  14  17
ENDBRANCH  13  14
ENDBRANCH  11  13
ENDBRANCH   8  11
ENDBRANCH   1   8
BRANCH   5  18
ATOM     18  O   LIG    1       -4.942  -3.579  -0.403  0.00  0.00    -0.360 OA
BRANCH  18  19
ATOM     19  C   LIG    1       -4.906  -4.734  -1.282  0.00  0.00    +0.290 C 
BRANCH  19  20
ATOM     20  C   LIG    1       -6.251  -5.413  -1.274  0.00  0.00    -0.100 A 
ATOM     21  C   LIG    1       -6.514  -6.415  -0.359  0.00  0.00    +0.030 A 
ATOM     22  C   LIG    1       -7.749  -7.035  -0.348  0.00  0.00    +0.010 A 
ATOM     23  C   LIG    1       -8.719  -6.660  -1.259  0.00  0.00    +0.020 A 
ATOM     24  C   LIG    1       -8.454  -5.662  -2.178  0.00  0.00    +0.010 A 
ATOM     25  C   LIG    1       -7.221  -5.038  -2.185  0.00  0.00    +0.040 A 
ENDBRANCH  19  20
ENDBRANCH  18  19
ENDBRANCH   5  18
TORSDOF 8
