REMARK  Name = ZINCqH00000099rs.0
REMARK                            x       y       z     vdW  Elec       q    Type
REMARK                         _______ _______ _______ _____ _____    ______ ____
ROOT
ATOM      1  N   LIG    1       -3.992   0.798  -2.198  0.00  0.00    -0.740 N 
ATOM      2  H   LIG    1       -4.195  -0.060  -1.795  0.00  0.00    +0.400 HD
ATOM      3  C   LIG    1       -3.041   1.588  -1.661  0.00  0.00    +0.710 C 
ATOM      4  N   LIG    1       -2.370   1.184  -0.564  0.00  0.00    -0.610 N 
ATOM      5  C   LIG    1       -2.676  -0.113   0.045  0.00  0.00    +0.280 C 
ATOM      6  O   LIG    1       -2.787   2.664  -2.167  0.00  0.00    -0.590 OA
ENDROOT
BRANCH   1   8
ATOM      7  C   LIG    1       -3.920   0.873  -4.641  0.00  0.00    +0.040 C 
ATOM      8  C   LIG    1       -4.721   1.238  -3.391  0.00  0.00    +0.300 C 
BRANCH   8   9
ATOM      9  C   LIG    1       -6.064   0.556  -3.438  0.00  0.00    -0.100 A 
ATOM     10  C   LIG    1       -6.175  -0.777  -3.085  0.00  0.00    +0.040 A 
ATOM     11  C   LIG    1       -7.405  -1.403  -3.122  0.00  0.00    -0.010 A 
ATOM     12  C   LIG    1       -8.530  -0.696  -3.525  0.00  0.00    +0.160 A 
ATOM     13  C   LIG    1       -8.415   0.640  -3.884  0.00  0.00    +0.030 A 
ATOM     14  C   LIG    1       -7.183   1.262  -3.840  0.00  0.00    +0.060 A 
BRANCH  12  15
ATOM     15  N   LIG    1       -9.780  -1.330  -3.568  0.00  0.00    -0.330 N 
ATOM     16  C   LIG    1      -10.028  -2.621  -3.252  0.00  0.00    +0.230 A 
ATOM     17  C   LIG    1      -11.353  -2.839  -3.422  0.00  0.00    -0.100 A 
ATOM     18  C   LIG    1      -11.932  -1.645  -3.865  0.00  0.00    +0.250 A 
ATOM     19  N   LIG    1      -10.991  -0.741  -3.953  0.00  0.00    -0.290 NA
ENDBRANCH  12  15
ENDBRANCH   8   9
ENDBRANCH   1   8
BRANCH   4  20
ATOM     20  C   LIG    1       -1.336   2.042   0.019  0.00  0.00    +0.330 C 
ATOM     21  C   LIG    1       -1.715   2.390   1.460  0.00  0.00    +0.040 C 
BRANCH  20  22
ATOM     22  C   LIG    1       -0.016   1.315   0.009  0.00  0.00    +0.120 A 
ATOM     23  C   LIG    1        1.162   2.038   0.002  0.00  0.00    -0.020 A 
ATOM     24  C   LIG    1        2.371   1.359  -0.013  0.00  0.00    +0.070 A 
ATOM     25  C   LIG    1        2.350  -0.027  -0.021  0.00  0.00    -0.040 A 
ATOM     26  C   LIG    1        1.133  -0.682  -0.012  0.00  0.00    +0.260 A 
ATOM     27  N   LIG    1        0.002  -0.004   0.002  0.00  0.00    -0.470 NA
ENDBRANCH  20  22
ENDBRANCH   4  20
TORSDOF 5
