REMARK  Name = ZINCqH0000006ppN.0
REMARK                            x       y       z     vdW  Elec       q    Type
REMARK                         _______ _______ _______ _____ _____    ______ ____
ROOT
ATOM      1  C   LIG    1        7.172   2.592  -0.051  0.00  0.00    +0.560 C 
ATOM      2  N   LIG    1        5.852   2.337   0.032  0.00  0.00    -0.610 N 
ATOM      3  C   LIG    1        4.961   2.623  -1.101  0.00  0.00    +0.260 C 
ATOM      4  C   LIG    1        3.808   3.506  -0.611  0.00  0.00    +0.020 C 
ATOM      5  C   LIG    1        3.119   2.826   0.574  0.00  0.00    +0.070 C 
ATOM      6  C   LIG    1        4.120   2.658   1.720  0.00  0.00    +0.020 C 
ATOM      7  C   LIG    1        5.275   1.766   1.257  0.00  0.00    +0.270 C 
ATOM      8  O   LIG    1        7.882   2.447   0.925  0.00  0.00    -0.530 OA
ENDROOT
BRANCH   5   9
ATOM      9  C   LIG    1        1.964   3.675   1.037  0.00  0.00    -0.200 A 
ATOM     10  C   LIG    1        0.653   3.315   1.082  0.00  0.00    +0.230 A 
ATOM     11  N   LIG    1       -0.080   4.327   1.547  0.00  0.00    -0.540 NA
ATOM     12  C   LIG    1        0.686   5.370   1.823  0.00  0.00    +0.240 A 
ATOM     13  N   LIG    1        0.435   6.624   2.318  0.00  0.00    -0.500 N 
ATOM     14  H   LIG    1       -0.474   6.880   2.537  0.00  0.00    +0.420 HD
ATOM     15  C   LIG    1        1.435   7.502   2.499  0.00  0.00    +0.330 A 
ATOM     16  C   LIG    1        2.728   7.186   2.211  0.00  0.00    -0.080 A 
ATOM     17  C   LIG    1        3.049   5.929   1.711  0.00  0.00    +0.170 A 
ATOM     18  C   LIG    1        2.026   5.005   1.512  0.00  0.00    -0.150 A 
ENDBRANCH   5   9
BRANCH   1  23
ATOM     19  C   LIG    1        9.350   4.390  -2.527  0.00  0.00    -0.100 A 
ATOM     20  C   LIG    1        8.855   3.904  -3.724  0.00  0.00    +0.060 A 
ATOM     21  C   LIG    1        7.814   2.992  -3.730  0.00  0.00    +0.000 A 
ATOM     22  C   LIG    1        7.267   2.558  -2.541  0.00  0.00    +0.050 A 
ATOM     23  C   LIG    1        7.758   3.049  -1.330  0.00  0.00    -0.130 A 
ATOM     24  C   LIG    1        8.808   3.968  -1.331  0.00  0.00    +0.090 A 
BRANCH  19  25
ATOM     25  C   LIG    1       10.484   5.383  -2.531  0.00  0.00    +0.220 C 
BRANCH  25  27
ATOM     26  C   LIG    1       12.875   5.537  -2.486  0.00  0.00    +0.200 C 
ATOM     27  O   LIG    1       11.729   4.684  -2.487  0.00  0.00    -0.380 OA
ENDBRANCH  25  27
ENDBRANCH  19  25
ENDBRANCH   1  23
TORSDOF 4
