REMARK  Name = ZINCrH000004p39P.0
REMARK                            x       y       z     vdW  Elec       q    Type
REMARK                         _______ _______ _______ _____ _____    ______ ____
ROOT
ATOM      1  C   LIG    1       -0.667  -0.705   0.939  0.00  0.00    +0.510 C 
ATOM      2  N   LIG    1        0.002  -0.004   0.002  0.00  0.00    -0.610 N 
ATOM      3  C   LIG    1       -0.018   1.465   0.010  0.00  0.00    +0.270 C 
ATOM      4  C   LIG    1        1.426   1.978  -0.001  0.00  0.00    +0.030 C 
ATOM      5  C   LIG    1        2.171   1.366  -1.189  0.00  0.00    -0.020 C 
ATOM      6  C   LIG    1        2.201  -0.158  -1.045  0.00  0.00    +0.020 C 
ATOM      7  C   LIG    1        1.455   1.741  -2.488  0.00  0.00    +0.030 C 
ATOM      8  C   LIG    1        0.766  -0.695  -1.046  0.00  0.00    +0.270 C 
ATOM      9  O   LIG    1       -1.294  -0.123   1.799  0.00  0.00    -0.520 OA
ENDROOT
BRANCH   5  10
ATOM     10  C   LIG    1        3.582   1.895  -1.223  0.00  0.00    -0.070 A 
ATOM     11  C   LIG    1        4.649   1.022  -1.122  0.00  0.00    +0.000 A 
ATOM     12  C   LIG    1        5.944   1.506  -1.158  0.00  0.00    +0.000 A 
ATOM     13  C   LIG    1        6.170   2.864  -1.284  0.00  0.00    +0.000 A 
ATOM     14  C   LIG    1        5.103   3.737  -1.378  0.00  0.00    +0.000 A 
ATOM     15  C   LIG    1        3.808   3.252  -1.348  0.00  0.00    +0.000 A 
ENDBRANCH   5  10
BRANCH   1  16
ATOM     16  C   LIG    1       -0.637  -2.212   0.917  0.00  0.00    +0.060 C 
BRANCH  16  18
ATOM     17  C   LIG    1       -1.543  -4.281   1.985  0.00  0.00    +0.040 C 
ATOM     18  C   LIG    1       -1.471  -2.755   2.079  0.00  0.00    +0.260 C 
BRANCH  18  19
ATOM     19  N   LIG    1       -0.847  -2.373   3.348  0.00  0.00    -0.710 N 
ATOM     20  H   LIG    1        0.105  -2.189   3.385  0.00  0.00    +0.400 HD
ATOM     21  C   LIG    1       -1.595  -2.278   4.465  0.00  0.00    +0.570 C 
ATOM     22  O   LIG    1       -2.788  -2.508   4.419  0.00  0.00    -0.540 OA
BRANCH  21  23
ATOM     23  C   LIG    1       -0.966  -1.892   5.746  0.00  0.00    -0.130 A 
ATOM     24  C   LIG    1        0.405  -1.633   5.803  0.00  0.00    +0.030 A 
ATOM     25  C   LIG    1        0.985  -1.269   7.001  0.00  0.00    +0.000 A 
ATOM     26  C   LIG    1        0.214  -1.172   8.145  0.00  0.00    +0.030 A 
ATOM     27  C   LIG    1       -1.144  -1.433   8.096  0.00  0.00    +0.000 A 
ATOM     28  C   LIG    1       -1.738  -1.792   6.904  0.00  0.00    +0.080 A 
ENDBRANCH  21  23
ENDBRANCH  18  19
ENDBRANCH  16  18
ENDBRANCH   1  16
TORSDOF 5
