REMARK  Name = ZINCrH000004p3rW.0
REMARK                            x       y       z     vdW  Elec       q    Type
REMARK                         _______ _______ _______ _____ _____    ______ ____
ROOT
ATOM      1  C   LIG    1        0.184  -1.243  -3.499  0.00  0.00    +0.520 C 
ATOM      2  N   LIG    1        0.335  -0.536  -2.362  0.00  0.00    -0.730 N 
ATOM      3  H   LIG    1        0.882   0.265  -2.357  0.00  0.00    +0.400 HD
ATOM      4  O   LIG    1       -0.501  -2.244  -3.505  0.00  0.00    -0.540 OA
ENDROOT
BRANCH   1   5
ATOM      5  C   LIG    1        0.868  -0.791  -4.764  0.00  0.00    +0.050 C 
BRANCH   5   7
ATOM      6  C   LIG    1        1.126  -1.237  -7.208  0.00  0.00    +0.030 C 
ATOM      7  C   LIG    1        0.536  -1.762  -5.898  0.00  0.00    +0.250 C 
BRANCH   7   8
ATOM      8  N   LIG    1        1.107  -3.078  -5.598  0.00  0.00    -0.580 N 
ATOM      9  C   LIG    1        0.195  -4.210  -5.488  0.00  0.00    +0.270 C 
ATOM     10  C   LIG    1        0.956  -5.527  -5.646  0.00  0.00    +0.010 C 
ATOM     11  C   LIG    1        2.159  -5.516  -4.695  0.00  0.00    +0.030 C 
ATOM     12  C   LIG    1        3.150  -4.455  -5.181  0.00  0.00    +0.060 C 
ATOM     13  C   LIG    1        2.429  -3.165  -5.448  0.00  0.00    +0.520 C 
ATOM     14  O   LIG    1        3.084  -2.148  -5.527  0.00  0.00    -0.560 OA
ENDBRANCH   7   8
ENDBRANCH   5   7
ENDBRANCH   1   5
BRANCH   2  15
ATOM     15  C   LIG    1       -0.330  -0.975  -1.133  0.00  0.00    +0.270 C 
BRANCH  15  16
ATOM     16  C   LIG    1        0.002  -0.004   0.002  0.00  0.00    +0.070 C 
BRANCH  16  17
ATOM     17  C   LIG    1       -0.579  -0.521   1.293  0.00  0.00    -0.070 A 
ATOM     18  C   LIG    1        0.225  -0.654   2.409  0.00  0.00    +0.010 A 
ATOM     19  C   LIG    1       -0.309  -1.124   3.594  0.00  0.00    +0.000 A 
ATOM     20  C   LIG    1       -1.645  -1.471   3.660  0.00  0.00    +0.000 A 
ATOM     21  C   LIG    1       -2.449  -1.344   2.542  0.00  0.00    +0.000 A 
ATOM     22  C   LIG    1       -1.916  -0.869   1.359  0.00  0.00    +0.010 A 
ENDBRANCH  16  17
BRANCH  16  23
ATOM     23  C   LIG    1       -0.586   1.349  -0.307  0.00  0.00    -0.080 A 
ATOM     24  C   LIG    1       -1.922   1.462  -0.642  0.00  0.00    +0.010 A 
ATOM     25  C   LIG    1       -2.462   2.703  -0.921  0.00  0.00    +0.000 A 
ATOM     26  C   LIG    1       -1.663   3.831  -0.874  0.00  0.00    +0.000 A 
ATOM     27  C   LIG    1       -0.326   3.717  -0.544  0.00  0.00    +0.000 A 
ATOM     28  C   LIG    1        0.213   2.476  -0.261  0.00  0.00    +0.000 A 
ENDBRANCH  16  23
ENDBRANCH  15  16
ENDBRANCH   2  15
TORSDOF 7
