REMARK  Name = ZINCAx000000093V.0
REMARK                            x       y       z     vdW  Elec       q    Type
REMARK                         _______ _______ _______ _____ _____    ______ ____
ROOT
ATOM      1  N   LIG    1       -2.738   1.305   0.027  0.00  0.00    -0.620 N 
ATOM      2  C   LIG    1       -3.181   0.533   1.200  0.00  0.00    +0.280 C 
ATOM      3  C   LIG    1       -4.285  -0.375   0.638  0.00  0.00    +0.100 C 
ATOM      4  O   LIG    1       -4.355  -0.032  -0.772  0.00  0.00    -0.310 OA
ATOM      5  C   LIG    1       -5.613  -0.083   1.329  0.00  0.00    +0.070 C 
ATOM      6  C   LIG    1       -6.689  -1.025   0.780  0.00  0.00    +0.190 C 
ATOM      7  N   LIG    1       -6.278  -2.417   1.000  0.00  0.00    -0.530 NA
ATOM      8  C   LIG    1       -5.035  -2.727   0.282  0.00  0.00    +0.180 C 
ATOM      9  C   LIG    1       -3.904  -1.842   0.815  0.00  0.00    +0.070 C 
ATOM     10  C   LIG    1       -3.457   0.925  -1.039  0.00  0.00    +0.650 C 
ATOM     11  O   LIG    1       -3.307   1.403  -2.145  0.00  0.00    -0.520 OA
ENDROOT
BRANCH   1  12
ATOM     12  C   LIG    1       -1.688   2.327   0.026  0.00  0.00    +0.380 C 
BRANCH  12  15
ATOM     13  N   LIG    1        0.759   2.432  -0.321  0.00  0.00    -0.720 N 
ATOM     14  H   LIG    1        0.708   3.389  -0.171  0.00  0.00    +0.410 HD
ATOM     15  C   LIG    1       -0.358   1.680  -0.265  0.00  0.00    +0.500 C 
ATOM     16  O   LIG    1       -0.294   0.483  -0.453  0.00  0.00    -0.510 OA
BRANCH  13  17
ATOM     17  C   LIG    1        2.051   1.804  -0.610  0.00  0.00    +0.430 C 
BRANCH  17  18
ATOM     18  C   LIG    1        2.982   2.824  -1.213  0.00  0.00    -0.110 A 
ATOM     19  C   LIG    1        2.996   4.118  -0.727  0.00  0.00    +0.020 A 
ATOM     20  C   LIG    1        3.853   5.053  -1.277  0.00  0.00    +0.020 A 
ATOM     21  C   LIG    1        4.690   4.696  -2.318  0.00  0.00    +0.020 A 
ATOM     22  C   LIG    1        4.671   3.404  -2.807  0.00  0.00    +0.020 A 
ATOM     23  C   LIG    1        3.817   2.467  -2.255  0.00  0.00    +0.040 A 
ENDBRANCH  17  18
BRANCH  17  25
ATOM     24  N   LIG    1        3.083   0.882   1.600  0.00  0.00    -0.400 NA
ATOM     25  C   LIG    1        2.633   1.284   0.637  0.00  0.00    +0.190 C 
ENDBRANCH  17  25
ENDBRANCH  13  17
ENDBRANCH  12  15
ENDBRANCH   1  12
BRANCH   7  26
ATOM     26  C   LIG    1       -7.350  -3.348   0.622  0.00  0.00    +0.190 C 
BRANCH  26  27
ATOM     27  C   LIG    1       -7.006  -4.733   1.106  0.00  0.00    +0.350 C 
ATOM     28  O   LIG    1       -6.025  -4.908   1.788  0.00  0.00    -0.420 OA
BRANCH  27  29
ATOM     29  C   LIG    1       -7.887  -5.900   0.739  0.00  0.00    +0.100 C 
BRANCH  29  30
ATOM     30  C   LIG    1       -7.327  -7.162   1.343  0.00  0.00    -0.120 A 
ATOM     31  C   LIG    1       -6.503  -7.979   0.594  0.00  0.00    +0.090 A 
ATOM     32  C   LIG    1       -5.984  -9.134   1.149  0.00  0.00    -0.020 A 
ATOM     33  C   LIG    1       -6.299  -9.479   2.452  0.00  0.00    +0.130 A 
ATOM     34  C   LIG    1       -7.129  -8.663   3.202  0.00  0.00    -0.040 A 
ATOM     35  F   LIG    1       -5.795 -10.610   2.993  0.00  0.00    -0.130 F 
ATOM     36  C   LIG    1       -7.643  -7.504   2.647  0.00  0.00    +0.140 A 
ATOM     37  F   LIG    1       -8.454  -6.707   3.378  0.00  0.00    -0.130 F 
ENDBRANCH  29  30
ENDBRANCH  27  29
ENDBRANCH  26  27
ENDBRANCH   7  26
TORSDOF 9
