REMARK  Name = ZINCqH0000002Hw2.1
REMARK                            x       y       z     vdW  Elec       q    Type
REMARK                         _______ _______ _______ _____ _____    ______ ____
ROOT
ATOM      1  N   LIG    1        0.353   0.895   0.321  0.00  0.00    -1.040 N 
ATOM      2  H   LIG    1        0.439  -0.050   0.523  0.00  0.00    +0.440 HD
ENDROOT
BRANCH   1   3
ATOM      3  C   LIG    1       -0.890   1.512   0.397  0.00  0.00    +0.380 A 
ATOM      4  C   LIG    1       -1.940   0.868   1.044  0.00  0.00    -0.050 A 
ATOM      5  C   LIG    1       -3.173   1.492   1.121  0.00  0.00    +0.110 A 
ATOM      6  C   LIG    1       -3.323   2.740   0.536  0.00  0.00    -0.050 A 
ATOM      7  C   LIG    1       -2.234   3.327  -0.102  0.00  0.00    +0.220 A 
ATOM      8  N   LIG    1       -1.063   2.703  -0.152  0.00  0.00    -0.510 NA
BRANCH   7   9
ATOM      9  C   LIG    1       -2.383   4.662  -0.732  0.00  0.00    -0.110 A 
ATOM     10  C   LIG    1       -1.307   5.259  -1.394  0.00  0.00    +0.110 A 
ATOM     11  C   LIG    1       -1.498   6.505  -1.966  0.00  0.00    -0.040 A 
ATOM     12  C   LIG    1       -2.736   7.114  -1.864  0.00  0.00    +0.270 A 
ATOM     13  N   LIG    1       -3.733   6.525  -1.233  0.00  0.00    -0.480 NA
ATOM     14  C   LIG    1       -3.601   5.338  -0.678  0.00  0.00    +0.280 A 
ENDBRANCH   7   9
ENDBRANCH   1   3
BRANCH   1  15
ATOM     15  S   LIG    1        1.687   1.771  -0.121  0.00  0.00    +2.690 S 
ATOM     16  O   LIG    1        1.325   2.491  -1.291  0.00  0.00    -0.920 OA
ATOM     17  O   LIG    1        2.790   0.876  -0.070  0.00  0.00    -0.950 OA
BRANCH  15  21
ATOM     18  C   LIG    1        2.397   4.859   3.114  0.00  0.00    +0.190 A 
ATOM     19  C   LIG    1        2.876   3.566   3.270  0.00  0.00    -0.030 A 
ATOM     20  C   LIG    1        2.658   2.626   2.282  0.00  0.00    +0.170 A 
ATOM     21  C   LIG    1        1.963   2.972   1.137  0.00  0.00    -0.710 A 
ATOM     22  C   LIG    1        1.490   4.261   0.977  0.00  0.00    +0.190 A 
ATOM     23  C   LIG    1        1.700   5.204   1.965  0.00  0.00    -0.090 A 
BRANCH  18  24
ATOM     24  O   LIG    1        2.611   5.786   4.084  0.00  0.00    -0.310 OA
BRANCH  24  25
ATOM     25  C   LIG    1        2.089   7.097   3.855  0.00  0.00    +0.190 C 
BRANCH  25  27
ATOM     26  C   LIG    1        1.867   9.398   4.803  0.00  0.00    +0.040 C 
ATOM     27  C   LIG    1        2.426   7.995   5.048  0.00  0.00    +0.040 C 
ENDBRANCH  25  27
ENDBRANCH  24  25
ENDBRANCH  18  24
ENDBRANCH  15  21
ENDBRANCH   1  15
TORSDOF 7
