REMARK  Name = ZINCpe000000XlJK.0
REMARK                            x       y       z     vdW  Elec       q    Type
REMARK                         _______ _______ _______ _____ _____    ______ ____
ROOT
ATOM      1  N   LIG    1        3.904   4.859  -1.677  0.00  0.00    -0.720 N 
ATOM      2  H   LIG    1        4.450   5.182  -0.944  0.00  0.00    +0.410 HD
ATOM      3  C   LIG    1        2.773   4.171  -1.423  0.00  0.00    +0.500 C 
ATOM      4  O   LIG    1        2.090   3.768  -2.341  0.00  0.00    -0.520 OA
ENDROOT
BRANCH   1   5
ATOM      5  C   LIG    1        4.308   5.120  -3.061  0.00  0.00    +0.260 C 
BRANCH   5   6
ATOM      6  C   LIG    1        5.616   5.913  -3.070  0.00  0.00    +0.030 C 
BRANCH   6   7
ATOM      7  C   LIG    1        6.038   6.185  -4.515  0.00  0.00    +0.170 C 
BRANCH   7   8
ATOM      8  O   LIG    1        7.260   6.926  -4.524  0.00  0.00    -0.380 OA
BRANCH   8  10
ATOM      9  C   LIG    1        7.169   8.578  -6.285  0.00  0.00    +0.030 C 
ATOM     10  C   LIG    1        7.744   7.235  -5.832  0.00  0.00    +0.200 C 
BRANCH  10  11
ATOM     11  C   LIG    1        9.248   7.316  -5.805  0.00  0.00    -0.090 A 
ATOM     12  C   LIG    1        9.893   7.823  -4.693  0.00  0.00    +0.040 A 
ATOM     13  C   LIG    1       11.274   7.893  -4.666  0.00  0.00    +0.000 A 
ATOM     14  C   LIG    1       12.009   7.465  -5.756  0.00  0.00    +0.000 A 
ATOM     15  C   LIG    1       11.364   6.963  -6.870  0.00  0.00    +0.000 A 
ATOM     16  C   LIG    1        9.983   6.888  -6.895  0.00  0.00    +0.010 A 
ENDBRANCH  10  11
ENDBRANCH   8  10
ENDBRANCH   7   8
ENDBRANCH   6   7
ENDBRANCH   5   6
ENDBRANCH   1   5
BRANCH   3  17
ATOM     17  C   LIG    1        2.358   3.903   0.000  0.00  0.00    +0.350 C 
BRANCH  17  18
ATOM     18  N   LIG    1        1.105   3.143   0.008  0.00  0.00    -0.520 N 
ATOM     19  C   LIG    1        1.142   1.776   0.001  0.00  0.00    +0.360 A 
ATOM     20  C   LIG    1       -0.013   1.076   0.008  0.00  0.00    -0.120 A 
ATOM     21  C   LIG    1       -1.243   1.776   0.018  0.00  0.00    +0.550 A 
ATOM     22  N   LIG    1       -1.236   3.125   0.031  0.00  0.00    -0.550 N 
ATOM     23  C   LIG    1       -2.503   3.861   0.048  0.00  0.00    +0.330 C 
ATOM     24  O   LIG    1       -2.297   1.167   0.019  0.00  0.00    -0.510 OA
ATOM     25  C   LIG    1       -0.070   3.797   0.023  0.00  0.00    +0.700 A 
ATOM     26  O   LIG    1       -0.080   5.013   0.030  0.00  0.00    -0.540 OA
ENDBRANCH  17  18
ENDBRANCH   3  17
TORSDOF 8
