REMARK  Name = ZINCqH0000033pra.1
REMARK                            x       y       z     vdW  Elec       q    Type
REMARK                         _______ _______ _______ _____ _____    ______ ____
ROOT
ATOM      1  C   LIG    1       -2.993   3.604   3.211  0.00  0.00    -0.320 A 
ATOM      2  C   LIG    1       -2.081   2.740   2.603  0.00  0.00    -0.030 A 
ATOM      3  C   LIG    1       -1.379   1.760   3.348  0.00  0.00    -0.070 A 
ATOM      4  O   LIG    1       -0.590   1.098   2.495  0.00  0.00    -0.190 OA
ATOM      5  C   LIG    1       -0.727   1.577   1.246  0.00  0.00    +0.040 A 
ATOM      6  C   LIG    1       -0.013   1.086   0.008  0.00  0.00    +0.130 C 
ATOM      7  C   LIG    1       -0.761   1.597  -1.228  0.00  0.00    +0.040 C 
ATOM      8  C   LIG    1       -0.996   3.104  -1.094  0.00  0.00    +0.020 C 
ATOM      9  C   LIG    1       -2.031   3.359   0.009  0.00  0.00    +0.090 C 
ATOM     10  C   LIG    1       -1.583   1.631   4.718  0.00  0.00    +0.080 A 
ATOM     11  C   LIG    1       -2.491   2.494   5.308  0.00  0.00    -0.090 A 
ATOM     12  C   LIG    1       -1.625   2.584   1.235  0.00  0.00    -0.220 A 
ATOM     13  C   LIG    1       -3.178   3.456   4.579  0.00  0.00    +0.290 A 
ATOM     14  O   LIG    1       -4.056   4.272   5.222  0.00  0.00    -0.710 OA
ENDROOT
BRANCH   1  15
ATOM     15  C   LIG    1       -3.740   4.648   2.421  0.00  0.00    +0.320 C 
BRANCH  15  19
ATOM     16  C   LIG    1       -7.891   3.905   1.803  0.00  0.00    +0.040 C 
ATOM     17  C   LIG    1       -7.060   4.523   0.675  0.00  0.00    +0.070 C 
ATOM     18  C   LIG    1       -5.783   5.128   1.262  0.00  0.00    +0.250 C 
ATOM     19  N   LIG    1       -5.002   4.079   1.928  0.00  0.00    -0.380 N 
ATOM     20  C   LIG    1       -5.764   3.530   3.056  0.00  0.00    +0.290 C 
ATOM     21  H   LIG    1       -4.801   3.341   1.269  0.00  0.00    +0.410 HD
ATOM     22  C   LIG    1       -7.040   2.864   2.538  0.00  0.00    +0.060 C 
BRANCH  16  23
ATOM     23  C   LIG    1       -9.112   3.239   1.223  0.00  0.00    +0.470 C 
ATOM     24  O   LIG    1       -9.300   3.256   0.030  0.00  0.00    -0.500 OA
BRANCH  23  25
ATOM     25  O   LIG    1       -9.990   2.626   2.033  0.00  0.00    -0.350 OA
BRANCH  25  27
ATOM     26  C   LIG    1      -12.024   1.364   2.478  0.00  0.00    +0.060 C 
ATOM     27  C   LIG    1      -11.143   2.006   1.405  0.00  0.00    +0.200 C 
ENDBRANCH  25  27
ENDBRANCH  23  25
ENDBRANCH  16  23
ENDBRANCH  15  19
ENDBRANCH   1  15
TORSDOF 5
