REMARK  Name = ZINCvU0000000Fqe.0
REMARK                            x       y       z     vdW  Elec       q    Type
REMARK                         _______ _______ _______ _____ _____    ______ ____
ROOT
ATOM      1  C   LIG    1       -6.644   3.712  -1.009  0.00  0.00    +0.060 C 
ENDROOT
BRANCH   1   2
ATOM      2  C   LIG    1       -7.277   2.751  -1.981  0.00  0.00    -0.090 A 
ATOM      3  C   LIG    1       -7.613   1.474  -1.571  0.00  0.00    +0.030 A 
ATOM      4  C   LIG    1       -8.199   0.594  -2.461  0.00  0.00    +0.000 A 
ATOM      5  C   LIG    1       -8.440   0.987  -3.764  0.00  0.00    +0.010 A 
ATOM      6  C   LIG    1       -8.099   2.262  -4.176  0.00  0.00    -0.010 A 
ATOM      7  C   LIG    1       -7.518   3.144  -3.284  0.00  0.00    +0.060 A 
ENDBRANCH   1   2
BRANCH   1  10
ATOM      8  N   LIG    1       -8.609   4.801   0.027  0.00  0.00    -0.660 N 
ATOM      9  H   LIG    1       -8.711   5.321  -0.785  0.00  0.00    +0.420 HD
ATOM     10  C   LIG    1       -7.577   3.942   0.152  0.00  0.00    +0.540 C 
ATOM     11  O   LIG    1       -7.401   3.354   1.198  0.00  0.00    -0.490 OA
BRANCH   8  16
ATOM     12  C   LIG    1      -10.027   4.990   3.418  0.00  0.00    +0.150 A 
ATOM     13  C   LIG    1      -11.364   5.222   3.128  0.00  0.00    -0.090 A 
ATOM     14  C   LIG    1      -11.782   5.314   1.814  0.00  0.00    +0.070 A 
ATOM     15  C   LIG    1      -10.870   5.180   0.785  0.00  0.00    -0.050 A 
ATOM     16  C   LIG    1       -9.531   4.942   1.069  0.00  0.00    +0.180 A 
ATOM     17  C   LIG    1       -9.109   4.849   2.388  0.00  0.00    +0.000 A 
BRANCH  12  19
ATOM     18  C   LIG    1      -10.615   5.055   5.720  0.00  0.00    +0.250 C 
ATOM     19  O   LIG    1       -9.616   4.900   4.710  0.00  0.00    -0.310 OA
ENDBRANCH  12  19
ENDBRANCH   8  16
ENDBRANCH   1  10
BRANCH   1  20
ATOM     20  S   LIG    1       -5.086   3.018  -0.402  0.00  0.00    +0.070 S 
BRANCH  20  21
ATOM     21  C   LIG    1       -4.157   2.995  -1.899  0.00  0.00    +0.200 A 
ATOM     22  C   LIG    1       -2.823   2.512  -1.915  0.00  0.00    -0.140 A 
ATOM     23  C   LIG    1       -2.143   2.520  -3.128  0.00  0.00    +0.100 A 
ATOM     24  S   LIG    1       -0.526   1.881  -2.900  0.00  0.00    +0.200 S 
ATOM     25  C   LIG    1       -0.791   1.616  -1.177  0.00  0.00    -0.190 A 
ATOM     26  C   LIG    1       -0.015   1.081   0.023  0.00  0.00    +0.130 C 
ATOM     27  C   LIG    1       -0.786   1.593   1.255  0.00  0.00    +0.050 C 
ATOM     28  C   LIG    1       -2.212   1.745   0.682  0.00  0.00    +0.110 C 
ATOM     29  N   LIG    1       -2.768   2.978  -4.223  0.00  0.00    -0.490 NA
ATOM     30  C   LIG    1       -4.004   3.415  -4.160  0.00  0.00    +0.520 A 
ATOM     31  C   LIG    1       -2.011   1.985  -0.814  0.00  0.00    -0.090 A 
ATOM     32  N   LIG    1       -4.692   3.428  -3.032  0.00  0.00    -0.520 NA
ENDBRANCH  20  21
ENDBRANCH   1  20
TORSDOF 6
