REMARK  Name = ZINCrg00000SjStY.0
REMARK                            x       y       z     vdW  Elec       q    Type
REMARK                         _______ _______ _______ _____ _____    ______ ____
ROOT
ATOM      1  N   LIG    1       -1.174   2.149   0.019  0.00  0.00    -1.130 NA
ATOM      2  S   LIG    1       -1.194   3.643   0.028  0.00  0.00    +2.280 S 
ATOM      3  C   LIG    1       -0.479   4.202   1.606  0.00  0.00    -0.260 C 
ATOM      4  C   LIG    1       -0.846   5.678   1.800  0.00  0.00    +0.110 C 
ATOM      5  C   LIG    1       -2.365   5.831   1.851  0.00  0.00    +0.100 C 
ATOM      6  C   LIG    1       -2.717   7.223   2.387  0.00  0.00    +0.240 C 
ATOM      7  N   LIG    1       -4.177   7.337   2.515  0.00  0.00    -0.450 N 
ATOM      8  C   LIG    1       -4.703   6.305   3.420  0.00  0.00    +0.180 C 
ATOM      9  C   LIG    1       -4.329   4.923   2.880  0.00  0.00    +0.260 C 
ATOM     10  C   LIG    1       -2.973   5.657   0.461  0.00  0.00    +0.070 C 
ATOM     11  O   LIG    1       -2.909   4.842   2.732  0.00  0.00    -0.360 OA
ATOM     12  O   LIG    1       -0.479   4.087  -1.117  0.00  0.00    -0.920 OA
ATOM     13  C   LIG    1       -2.935   4.177   0.060  0.00  0.00    -0.160 C 
ENDROOT
BRANCH   7  14
ATOM     14  C   LIG    1       -4.539   8.603   2.941  0.00  0.00    +0.420 A 
ATOM     15  N   LIG    1       -3.725   9.600   3.209  0.00  0.00    -0.350 NA
ATOM     16  N   LIG    1       -4.389  10.635   3.580  0.00  0.00    -0.020 NA
ATOM     17  N   LIG    1       -5.653  10.383   3.579  0.00  0.00    -0.070 NA
ATOM     18  N   LIG    1       -5.801   9.050   3.157  0.00  0.00    -0.340 N 
BRANCH  18  19
ATOM     19  C   LIG    1       -6.997   8.335   2.996  0.00  0.00    +0.120 A 
ATOM     20  C   LIG    1       -7.119   7.404   1.974  0.00  0.00    +0.030 A 
ATOM     21  C   LIG    1       -8.296   6.698   1.821  0.00  0.00    +0.040 A 
ATOM     22  C   LIG    1       -9.357   6.926   2.678  0.00  0.00    +0.040 A 
ATOM     23  C   LIG    1       -9.241   7.857   3.693  0.00  0.00    +0.040 A 
ATOM     24  C   LIG    1       -8.064   8.563   3.854  0.00  0.00    +0.040 A 
ENDBRANCH  18  19
ENDBRANCH   7  14
BRANCH   1  26
ATOM     25  C   LIG    1        0.002  -0.004   0.002  0.00  0.00    +0.120 C 
ATOM     26  C   LIG    1       -0.018   1.503   0.010  0.00  0.00    +0.540 C 
ATOM     27  O   LIG    1        1.026   2.125   0.004  0.00  0.00    -0.580 OA
ENDBRANCH   1  26
TORSDOF 3
