REMARK  Name = ZINCnE000001Mo6v.0
REMARK                            x       y       z     vdW  Elec       q    Type
REMARK                         _______ _______ _______ _____ _____    ______ ____
ROOT
ATOM      1  N   LIG    1       -0.738   3.039   1.360  0.00  0.00    -0.610 N 
ATOM      2  C   LIG    1       -1.863   3.696   1.015  0.00  0.00    +0.580 C 
ATOM      3  O   LIG    1       -2.929   3.111   1.002  0.00  0.00    -0.540 OA
ATOM      4  C   LIG    1        0.518   3.776   1.529  0.00  0.00    +0.290 C 
ENDROOT
BRANCH   2   5
ATOM      5  C   LIG    1       -1.801   5.123   0.653  0.00  0.00    -0.150 A 
ATOM      6  C   LIG    1       -0.624   5.788   0.450  0.00  0.00    -0.090 A 
ATOM      7  S   LIG    1       -0.914   7.419   0.043  0.00  0.00    +0.220 S 
ATOM      8  C   LIG    1       -2.653   7.200   0.160  0.00  0.00    -0.230 A 
ATOM      9  C   LIG    1       -2.933   5.910   0.495  0.00  0.00    +0.070 A 
BRANCH   8  10
ATOM     10  C   LIG    1       -3.650   8.246  -0.067  0.00  0.00    +0.550 C 
ATOM     11  O   LIG    1       -3.292   9.378  -0.365  0.00  0.00    -0.680 OA
ATOM     12  O   LIG    1       -4.843   7.989   0.041  0.00  0.00    -0.670 OA
ENDBRANCH   8  10
ENDBRANCH   2   5
BRANCH   1  14
ATOM     13  C   LIG    1        0.191   0.914   0.583  0.00  0.00    +0.030 C 
ATOM     14  C   LIG    1       -0.769   1.589   1.565  0.00  0.00    +0.240 C 
BRANCH  14  15
ATOM     15  C   LIG    1       -0.343   1.267   2.998  0.00  0.00    +0.080 C 
BRANCH  15  16
ATOM     16  C   LIG    1       -1.357   1.829   3.962  0.00  0.00    -0.150 A 
ATOM     17  C   LIG    1       -1.205   3.112   4.457  0.00  0.00    +0.140 A 
ATOM     18  C   LIG    1       -2.140   3.629   5.339  0.00  0.00    -0.020 A 
ATOM     19  C   LIG    1       -3.218   2.859   5.733  0.00  0.00    +0.080 A 
ATOM     20  C   LIG    1       -3.368   1.576   5.242  0.00  0.00    -0.020 A 
ATOM     21  F   LIG    1       -0.148   3.863   4.077  0.00  0.00    -0.130 F 
ATOM     22  C   LIG    1       -2.437   1.059   4.357  0.00  0.00    +0.130 A 
ATOM     23  F   LIG    1       -2.584  -0.196   3.879  0.00  0.00    -0.130 F 
ENDBRANCH  15  16
ENDBRANCH  14  15
ENDBRANCH   1  14
TORSDOF 5
