REMARK  Name = ZINCvU00000009kg.0
REMARK                            x       y       z     vdW  Elec       q    Type
REMARK                         _______ _______ _______ _____ _____    ______ ____
ROOT
ATOM      1  C   LIG    1       -0.825   4.083  -0.062  0.00  0.00    +0.140 C 
ATOM      2  C   LIG    1       -0.305   2.675   0.071  0.00  0.00    +0.200 C 
ATOM      3  C   LIG    1        1.011   2.433  -0.108  0.00  0.00    -0.280 C 
ATOM      4  C   LIG    1        1.491   1.003   0.034  0.00  0.00    +0.340 C 
ATOM      5  N   LIG    1        0.476  -0.013   0.358  0.00  0.00    -0.710 N 
ATOM      6  H   LIG    1        0.723  -0.945   0.462  0.00  0.00    +0.430 HD
ATOM      7  C   LIG    1       -0.804   0.382   0.502  0.00  0.00    +0.710 C 
ATOM      8  O   LIG    1       -1.651  -0.450   0.764  0.00  0.00    -0.560 OA
ATOM      9  N   LIG    1       -1.173   1.663   0.370  0.00  0.00    -0.650 N 
ATOM     10  H   LIG    1       -2.110   1.884   0.490  0.00  0.00    +0.430 HD
ENDROOT
BRANCH   4  11
ATOM     11  C   LIG    1        2.542   0.972   1.114  0.00  0.00    -0.120 A 
ATOM     12  C   LIG    1        2.165   0.927   2.443  0.00  0.00    +0.020 A 
ATOM     13  C   LIG    1        3.129   0.893   3.434  0.00  0.00    +0.010 A 
ATOM     14  C   LIG    1        4.469   0.914   3.095  0.00  0.00    -0.050 A 
ATOM     15  C   LIG    1        4.846   0.965   1.766  0.00  0.00    +0.010 A 
ATOM     16  C   LIG    1        3.882   0.993   0.775  0.00  0.00    +0.020 A 
BRANCH  14  17
ATOM     17  C   LIG    1        5.520   0.882   4.175  0.00  0.00    -0.030 C 
ATOM     18  C   LIG    1        6.401  -0.355   3.993  0.00  0.00    +0.040 C 
ATOM     19  C   LIG    1        4.841   0.828   5.545  0.00  0.00    +0.040 C 
ATOM     20  C   LIG    1        6.383   2.142   4.084  0.00  0.00    +0.040 C 
ENDBRANCH  14  17
ENDBRANCH   4  11
BRANCH   3  21
ATOM     21  C   LIG    1        1.912   3.481  -0.418  0.00  0.00    +0.610 C 
ATOM     22  N   LIG    1        2.301   4.342   0.543  0.00  0.00    -0.660 N 
ATOM     23  H   LIG    1        1.940   4.263   1.440  0.00  0.00    +0.410 HD
ATOM     24  O   LIG    1        2.335   3.605  -1.553  0.00  0.00    -0.500 OA
BRANCH  22  25
ATOM     25  C   LIG    1        3.225   5.349   0.248  0.00  0.00    +0.200 A 
ATOM     26  C   LIG    1        3.396   5.774  -1.063  0.00  0.00    +0.030 A 
ATOM     27  C   LIG    1        4.310   6.769  -1.351  0.00  0.00    +0.080 A 
ATOM     28  C   LIG    1        5.053   7.343  -0.336  0.00  0.00    +0.000 A 
ATOM     29  C   LIG    1        4.885   6.922   0.971  0.00  0.00    +0.090 A 
ATOM     30  C   LIG    1        3.969   5.931   1.266  0.00  0.00    -0.220 A 
BRANCH  30  31
ATOM     31  C   LIG    1        3.782   5.478   2.691  0.00  0.00    +0.500 C 
ATOM     32  F   LIG    1        4.087   4.116   2.791  0.00  0.00    -0.170 F 
ATOM     33  F   LIG    1        2.454   5.688   3.077  0.00  0.00    -0.180 F 
ATOM     34  F   LIG    1        4.632   6.209   3.528  0.00  0.00    -0.170 F 
ENDBRANCH  30  31
ENDBRANCH  22  25
ENDBRANCH   3  21
TORSDOF 5
