REMARK  Name = ZINCrH000004o05j.0
REMARK                            x       y       z     vdW  Elec       q    Type
REMARK                         _______ _______ _______ _____ _____    ______ ____
ROOT
ATOM      1  N   LIG    1       -3.877  -2.833   0.842  0.00  0.00    -0.500 NA
ATOM      2  C   LIG    1       -2.462  -3.132   0.591  0.00  0.00    +0.220 C 
ATOM      3  C   LIG    1       -1.601  -1.990   1.049  0.00  0.00    -0.040 C 
ATOM      4  C   LIG    1       -2.075  -0.783   1.287  0.00  0.00    -0.030 C 
ATOM      5  C   LIG    1       -3.530  -0.439   1.132  0.00  0.00    +0.070 C 
ATOM      6  C   LIG    1       -4.226  -1.514   0.290  0.00  0.00    +0.180 C 
ENDROOT
BRANCH   4   7
ATOM      7  C   LIG    1       -1.142   0.269   1.727  0.00  0.00    -0.180 A 
ATOM      8  C   LIG    1       -0.097   0.827   1.005  0.00  0.00    +0.240 A 
ATOM      9  N   LIG    1        0.514   1.746   1.743  0.00  0.00    -0.550 NA
ATOM     10  C   LIG    1       -0.035   1.872   2.941  0.00  0.00    +0.260 A 
ATOM     11  N   LIG    1        0.240   2.671   4.023  0.00  0.00    -0.500 N 
ATOM     12  H   LIG    1        0.976   3.301   3.979  0.00  0.00    +0.420 HD
ATOM     13  C   LIG    1       -0.499   2.589   5.141  0.00  0.00    +0.330 A 
ATOM     14  C   LIG    1       -1.542   1.720   5.250  0.00  0.00    -0.080 A 
ATOM     15  C   LIG    1       -1.871   0.884   4.188  0.00  0.00    +0.180 A 
ATOM     16  C   LIG    1       -1.114   0.952   3.025  0.00  0.00    -0.150 A 
ENDBRANCH   4   7
BRANCH   1  18
ATOM     17  C   LIG    1       -6.209  -3.480   0.463  0.00  0.00    +0.060 C 
ATOM     18  C   LIG    1       -4.743  -3.882   0.285  0.00  0.00    +0.170 C 
BRANCH  18  19
ATOM     19  C   LIG    1       -4.444  -4.054  -1.181  0.00  0.00    +0.490 C 
ATOM     20  N   LIG    1       -4.860  -5.161  -1.828  0.00  0.00    -0.580 N 
ATOM     21  C   LIG    1       -5.703  -6.140  -1.137  0.00  0.00    +0.290 C 
ATOM     22  O   LIG    1       -3.828  -3.198  -1.780  0.00  0.00    -0.520 OA
BRANCH  20  23
ATOM     23  C   LIG    1       -4.488  -5.375  -3.160  0.00  0.00    +0.140 A 
ATOM     24  C   LIG    1       -5.449  -5.365  -4.162  0.00  0.00    +0.000 A 
ATOM     25  C   LIG    1       -5.078  -5.572  -5.476  0.00  0.00    +0.020 A 
ATOM     26  C   LIG    1       -3.751  -5.799  -5.793  0.00  0.00    +0.010 A 
ATOM     27  C   LIG    1       -2.792  -5.814  -4.797  0.00  0.00    +0.020 A 
ATOM     28  C   LIG    1       -3.156  -5.603  -3.482  0.00  0.00    +0.010 A 
ENDBRANCH  20  23
ENDBRANCH  18  19
ENDBRANCH   1  18
TORSDOF 4
