REMARK  Name = ZINCrD000000AyFf.0
REMARK                            x       y       z     vdW  Elec       q    Type
REMARK                         _______ _______ _______ _____ _____    ______ ____
ROOT
ATOM      1  O   LIG    1        1.026   1.964   0.003  0.00  0.00    -0.520 OA
ATOM      2  C   LIG    1       -0.016   1.344   0.009  0.00  0.00    +0.530 C 
ATOM      3  N   LIG    1        0.002  -0.004   0.002  0.00  0.00    -0.620 N 
ATOM      4  C   LIG    1       -1.181  -0.877   0.015  0.00  0.00    +0.260 C 
ATOM      5  C   LIG    1       -0.674  -2.335   0.025  0.00  0.00    +0.090 C 
ATOM      6  C   LIG    1        0.762  -2.198   0.596  0.00  0.00    -0.450 C 
ATOM      7  C   LIG    1        1.212  -0.847  -0.014  0.00  0.00    +0.310 C 
ENDROOT
BRANCH   6   8
ATOM      8  S   LIG    1        1.821  -3.555   0.024  0.00  0.00    +2.510 S 
ATOM      9  O   LIG    1        3.094  -3.492   0.652  0.00  0.00    -0.930 OA
ATOM     10  O   LIG    1        1.706  -3.718  -1.383  0.00  0.00    -0.920 OA
BRANCH   8  11
ATOM     11  C   LIG    1        1.077  -5.005   0.693  0.00  0.00    -0.660 A 
ATOM     12  C   LIG    1        1.461  -5.468   1.937  0.00  0.00    +0.120 A 
ATOM     13  C   LIG    1        0.874  -6.604   2.463  0.00  0.00    -0.010 A 
ATOM     14  C   LIG    1       -0.090  -7.282   1.741  0.00  0.00    +0.070 A 
ATOM     15  C   LIG    1       -0.470  -6.822   0.494  0.00  0.00    -0.010 A 
ATOM     16  C   LIG    1        0.114  -5.684  -0.030  0.00  0.00    +0.120 A 
ENDBRANCH   8  11
ENDBRANCH   6   8
BRANCH   2  17
ATOM     17  C   LIG    1       -1.331   2.079   0.020  0.00  0.00    +0.120 C 
BRANCH  17  18
ATOM     18  C   LIG    1       -1.076   3.564   0.026  0.00  0.00    -0.040 A 
ATOM     19  C   LIG    1       -0.959   4.240   1.227  0.00  0.00    +0.020 A 
ATOM     20  C   LIG    1       -0.721   5.602   1.233  0.00  0.00    +0.070 A 
ATOM     21  C   LIG    1       -0.609   6.289   0.039  0.00  0.00    -0.180 A 
ATOM     22  C   LIG    1       -0.731   5.614  -1.161  0.00  0.00    +0.070 A 
ATOM     23  C   LIG    1       -0.965   4.252  -1.167  0.00  0.00    +0.030 A 
BRANCH  21  24
ATOM     24  C   LIG    1       -0.353   7.774   0.046  0.00  0.00    +0.510 C 
ATOM     25  F   LIG    1        0.371   8.129  -1.097  0.00  0.00    -0.180 F 
ATOM     26  F   LIG    1        0.380   8.116   1.187  0.00  0.00    -0.180 F 
ATOM     27  F   LIG    1       -1.574   8.457   0.054  0.00  0.00    -0.180 F 
ENDBRANCH  21  24
ENDBRANCH  17  18
ENDBRANCH   2  17
TORSDOF 5
