REMARK  Name = ZINCrD000000At2q.0
REMARK                            x       y       z     vdW  Elec       q    Type
REMARK                         _______ _______ _______ _____ _____    ______ ____
ROOT
ATOM      1  C   LIG    1       -1.226   1.754   0.017  0.00  0.00    -0.060 A 
ATOM      2  C   LIG    1       -0.013   1.076   0.008  0.00  0.00    -0.020 A 
ATOM      3  C   LIG    1        1.173   1.781   0.000  0.00  0.00    +0.060 A 
ATOM      4  C   LIG    1        1.165   3.167   0.008  0.00  0.00    -0.010 A 
ATOM      5  C   LIG    1       -0.027   3.857   0.023  0.00  0.00    +0.070 A 
ATOM      6  C   LIG    1       -1.237   3.158   0.031  0.00  0.00    -0.130 A 
ENDROOT
BRANCH   6   7
ATOM      7  C   LIG    1       -2.516   3.890   0.047  0.00  0.00    +0.550 C 
ATOM      8  N   LIG    1       -2.521   5.238   0.054  0.00  0.00    -0.720 N 
ATOM      9  H   LIG    1       -1.683   5.726   0.049  0.00  0.00    +0.400 HD
ATOM     10  O   LIG    1       -3.567   3.278   0.054  0.00  0.00    -0.510 OA
BRANCH   8  11
ATOM     11  C   LIG    1       -3.793   5.965   0.070  0.00  0.00    +0.300 C 
BRANCH  11  12
ATOM     12  C   LIG    1       -3.519   7.471   0.076  0.00  0.00    +0.140 C 
ATOM     13  C   LIG    1       -4.844   8.258   0.180  0.00  0.00    +0.010 C 
ATOM     14  C   LIG    1       -4.621   9.491  -0.724  0.00  0.00    +0.000 C 
ATOM     15  C   LIG    1       -3.187   9.303  -1.267  0.00  0.00    +0.190 C 
ATOM     16  O   LIG    1       -2.941   7.881  -1.183  0.00  0.00    -0.370 OA
ENDBRANCH  11  12
ENDBRANCH   8  11
ENDBRANCH   6   7
BRANCH   1  17
ATOM     17  S   LIG    1       -2.742   0.856   0.019  0.00  0.00    +0.090 S 
BRANCH  17  18
ATOM     18  C   LIG    1       -2.193  -0.873   0.006  0.00  0.00    +0.010 C 
BRANCH  18  20
ATOM     19  O   LIG    1       -4.512  -1.310   0.015  0.00  0.00    -0.520 OA
ATOM     20  C   LIG    1       -3.395  -1.782   0.007  0.00  0.00    +0.530 C 
ATOM     21  N   LIG    1       -3.229  -3.119  -0.002  0.00  0.00    -0.730 N 
ATOM     22  H   LIG    1       -2.335  -3.497  -0.008  0.00  0.00    +0.400 HD
BRANCH  21  23
ATOM     23  C   LIG    1       -4.397  -4.003  -0.002  0.00  0.00    +0.260 C 
BRANCH  23  24
ATOM     24  C   LIG    1       -3.934  -5.461  -0.012  0.00  0.00    -0.020 C 
ATOM     25  C   LIG    1       -3.205  -5.755  -1.325  0.00  0.00    +0.010 C 
ATOM     26  C   LIG    1       -2.741  -7.213  -1.335  0.00  0.00    +0.000 C 
ATOM     27  C   LIG    1       -3.956  -8.135  -1.209  0.00  0.00    +0.000 C 
ATOM     28  C   LIG    1       -4.685  -7.841   0.103  0.00  0.00    +0.000 C 
ATOM     29  C   LIG    1       -5.149  -6.383   0.114  0.00  0.00    +0.030 C 
ENDBRANCH  23  24
ENDBRANCH  21  23
ENDBRANCH  18  20
ENDBRANCH  17  18
ENDBRANCH   1  17
TORSDOF 8
