REMARK  Name = ZINCpe00000MJLce.0
REMARK                            x       y       z     vdW  Elec       q    Type
REMARK                         _______ _______ _______ _____ _____    ______ ____
ROOT
ATOM      1  C   LIG    1        2.612   3.794  -0.368  0.00  0.00    +0.160 C 
ATOM      2  C   LIG    1        3.455   2.666   0.282  0.00  0.00    +0.070 C 
ATOM      3  C   LIG    1        2.536   1.432   0.163  0.00  0.00    +0.240 C 
ATOM      4  N   LIG    1        1.160   1.926   0.011  0.00  0.00    -0.610 N 
ATOM      5  C   LIG    1        0.062   1.159  -0.146  0.00  0.00    +0.520 C 
ATOM      6  O   LIG    1        0.175  -0.042  -0.268  0.00  0.00    -0.490 OA
ATOM      7  C   LIG    1        1.178   3.399   0.064  0.00  0.00    +0.240 C 
ENDROOT
BRANCH   1   9
ATOM      8  C   LIG    1        2.466   5.030  -2.417  0.00  0.00    +0.210 C 
ATOM      9  O   LIG    1        2.741   3.775  -1.792  0.00  0.00    -0.370 OA
ENDBRANCH   1   9
BRANCH   5  10
ATOM     10  C   LIG    1       -1.304   1.795  -0.176  0.00  0.00    +0.350 C 
BRANCH  10  11
ATOM     11  N   LIG    1       -2.321   0.758  -0.362  0.00  0.00    -0.370 N 
ATOM     12  C   LIG    1       -3.385   0.536   0.439  0.00  0.00    +0.230 A 
ATOM     13  C   LIG    1       -4.078  -0.506  -0.075  0.00  0.00    -0.200 A 
ATOM     14  C   LIG    1       -3.416  -0.936  -1.230  0.00  0.00    +0.230 A 
ATOM     15  N   LIG    1       -2.365  -0.176  -1.405  0.00  0.00    -0.260 NA
BRANCH  13  16
ATOM     16  C   LIG    1       -5.341  -1.098   0.495  0.00  0.00    +0.030 C 
ATOM     17  C   LIG    1       -5.854  -2.399  -0.126  0.00  0.00    +0.010 C 
ATOM     18  C   LIG    1       -6.590  -1.083  -0.388  0.00  0.00    +0.000 C 
ENDBRANCH  13  16
ENDBRANCH  10  11
ENDBRANCH   5  10
BRANCH   3  19
ATOM     19  C   LIG    1        2.644   0.575   1.426  0.00  0.00    +0.310 C 
BRANCH  19  20
ATOM     20  N   LIG    1        3.987  -0.003   1.510  0.00  0.00    -0.370 N 
ATOM     21  C   LIG    1        4.844   0.129   2.545  0.00  0.00    +0.250 A 
ATOM     22  C   LIG    1        5.972  -0.553   2.240  0.00  0.00    -0.170 A 
ATOM     23  C   LIG    1        5.802  -1.116   0.965  0.00  0.00    +0.330 A 
ATOM     24  N   LIG    1        4.610  -0.785   0.529  0.00  0.00    -0.340 NA
BRANCH  23  25
ATOM     25  N   LIG    1        6.742  -1.895   0.278  0.00  0.00    -0.850 N 
ATOM     26  H   LIG    1        7.601  -2.087   0.684  0.00  0.00    +0.410 HD
ATOM     27  H   LIG    1        6.533  -2.242  -0.603  0.00  0.00    +0.400 HD
ENDBRANCH  23  25
ENDBRANCH  19  20
ENDBRANCH   3  19
TORSDOF 7
