REMARK  Name = ZINCpe00000gM1ev.0
REMARK                            x       y       z     vdW  Elec       q    Type
REMARK                         _______ _______ _______ _____ _____    ______ ____
ROOT
ATOM      1  C   LIG    1        1.181   2.140   0.002  0.00  0.00    +0.170 C 
ATOM      2  N   LIG    1        0.574   3.482   0.015  0.00  0.00    -0.720 N 
ATOM      3  H   LIG    1        1.044   4.331   0.015  0.00  0.00    +0.440 HD
ATOM      4  C   LIG    1       -0.759   3.301   0.026  0.00  0.00    +0.700 C 
ATOM      5  N   LIG    1       -1.099   2.007   0.017  0.00  0.00    -0.580 N 
ATOM      6  O   LIG    1       -1.564   4.212   0.039  0.00  0.00    -0.530 OA
ATOM      7  C   LIG    1       -0.014   1.208   0.009  0.00  0.00    +0.540 C 
ATOM      8  O   LIG    1        0.002  -0.004   0.002  0.00  0.00    -0.450 OA
ENDROOT
BRANCH   1   9
ATOM      9  C   LIG    1        2.025   1.928   1.233  0.00  0.00    -0.110 A 
ATOM     10  C   LIG    1        3.059   1.011   1.212  0.00  0.00    +0.080 A 
ATOM     11  C   LIG    1        3.836   0.819   2.338  0.00  0.00    -0.010 A 
ATOM     12  C   LIG    1        3.573   1.539   3.491  0.00  0.00    +0.110 A 
ATOM     13  C   LIG    1        2.534   2.454   3.513  0.00  0.00    -0.010 A 
ATOM     14  F   LIG    1        4.329   1.350   4.594  0.00  0.00    -0.130 F 
ATOM     15  C   LIG    1        1.761   2.648   2.383  0.00  0.00    +0.060 A 
ENDBRANCH   1   9
BRANCH   1  17
ATOM     16  C   LIG    1        1.190   2.327  -2.489  0.00  0.00    +0.020 C 
ATOM     17  C   LIG    1        2.017   1.935  -1.263  0.00  0.00    +0.060 C 
ENDBRANCH   1  17
BRANCH   5  18
ATOM     18  C   LIG    1       -2.481   1.520   0.020  0.00  0.00    +0.350 C 
BRANCH  18  19
ATOM     19  C   LIG    1       -2.956   1.342   1.463  0.00  0.00    +0.060 C 
BRANCH  19  20
ATOM     20  C   LIG    1       -4.377   0.840   1.466  0.00  0.00    +0.530 C 
ATOM     21  N   LIG    1       -5.008   0.609   2.634  0.00  0.00    -0.690 N 
ATOM     22  H   LIG    1       -4.548   0.766   3.474  0.00  0.00    +0.410 HD
ATOM     23  C   LIG    1       -6.279   0.161   2.637  0.00  0.00    +0.690 C 
ATOM     24  N   LIG    1       -6.910  -0.070   3.805  0.00  0.00    -0.740 N 
ATOM     25  H   LIG    1       -6.449   0.087   4.644  0.00  0.00    +0.400 HD
ATOM     26  C   LIG    1       -8.291  -0.558   3.808  0.00  0.00    +0.300 C 
ATOM     27  O   LIG    1       -6.856  -0.036   1.585  0.00  0.00    -0.530 OA
ATOM     28  O   LIG    1       -4.953   0.644   0.417  0.00  0.00    -0.460 OA
ENDBRANCH  19  20
ENDBRANCH  18  19
ENDBRANCH   5  18
TORSDOF 5
