REMARK  Name = ZINCpe00000VVGaD.0
REMARK                            x       y       z     vdW  Elec       q    Type
REMARK                         _______ _______ _______ _____ _____    ______ ____
ROOT
ATOM      1  N   LIG    1       -4.431  -0.721   0.444  0.00  0.00    -0.530 NA
ATOM      2  C   LIG    1       -4.480   0.729   0.673  0.00  0.00    +0.190 C 
ATOM      3  C   LIG    1       -3.548   1.432  -0.320  0.00  0.00    +0.310 C 
ATOM      4  N   LIG    1       -2.211   0.830  -0.212  0.00  0.00    -0.630 N 
ATOM      5  C   LIG    1       -2.097  -0.634  -0.301  0.00  0.00    +0.280 C 
ATOM      6  C   LIG    1       -1.117   1.599  -0.042  0.00  0.00    +0.710 C 
ATOM      7  N   LIG    1        0.109   1.040  -0.058  0.00  0.00    -0.730 N 
ATOM      8  H   LIG    1        0.202   0.077  -0.122  0.00  0.00    +0.410 HD
ATOM      9  O   LIG    1       -1.237   2.797   0.126  0.00  0.00    -0.590 OA
ATOM     10  C   LIG    1       -3.087  -1.256   0.698  0.00  0.00    +0.160 C 
ENDROOT
BRANCH   7  11
ATOM     11  C   LIG    1        1.302   1.888   0.016  0.00  0.00    +0.260 C 
ATOM     12  C   LIG    1        1.624   2.188   1.481  0.00  0.00    +0.050 C 
BRANCH  11  13
ATOM     13  C   LIG    1        2.466   1.173  -0.619  0.00  0.00    +0.530 C 
ATOM     14  N   LIG    1        3.574   1.861  -0.961  0.00  0.00    -0.620 N 
ATOM     15  C   LIG    1        3.736   3.320  -0.880  0.00  0.00    +0.240 C 
ATOM     16  C   LIG    1        5.151   3.654  -1.397  0.00  0.00    +0.040 C 
ATOM     17  C   LIG    1        5.496   2.424  -2.277  0.00  0.00    +0.040 C 
ATOM     18  C   LIG    1        4.821   1.276  -1.485  0.00  0.00    +0.250 C 
ATOM     19  O   LIG    1        2.408  -0.021  -0.822  0.00  0.00    -0.540 OA
ENDBRANCH  11  13
ENDBRANCH   7  11
BRANCH   1  20
ATOM     20  C   LIG    1       -5.436  -1.417   1.258  0.00  0.00    +0.310 C 
BRANCH  20  25
ATOM     21  C   LIG    1       -3.876  -6.194   2.061  0.00  0.00    +0.160 C 
ATOM     22  C   LIG    1       -4.541  -4.957   1.515  0.00  0.00    +0.020 A 
ATOM     23  N   LIG    1       -5.344  -4.890   0.493  0.00  0.00    -0.360 NA
ATOM     24  O   LIG    1       -5.720  -3.758   0.296  0.00  0.00    +0.110 OA
ATOM     25  C   LIG    1       -5.199  -2.903   1.187  0.00  0.00    -0.020 A 
ATOM     26  C   LIG    1       -4.412  -3.639   2.009  0.00  0.00    -0.060 A 
ENDBRANCH  20  25
ENDBRANCH   1  20
TORSDOF 4
