REMARK  Name = ZINCpe00000R8UJG.0
REMARK                            x       y       z     vdW  Elec       q    Type
REMARK                         _______ _______ _______ _____ _____    ______ ____
ROOT
ATOM      1  C   LIG    1       -1.007   2.042   0.049  0.00  0.00    +0.610 C 
ATOM      2  N   LIG    1        0.144   1.401  -0.235  0.00  0.00    -0.600 N 
ATOM      3  C   LIG    1        0.209  -0.069  -0.238  0.00  0.00    +0.310 C 
ATOM      4  C   LIG    1        0.831  -0.525  -1.562  0.00  0.00    +0.190 C 
ATOM      5  N   LIG    1        2.119   0.153  -1.754  0.00  0.00    -0.530 NA
ATOM      6  C   LIG    1        1.943   1.608  -1.866  0.00  0.00    +0.260 C 
ATOM      7  C   LIG    1        2.827  -0.383  -2.924  0.00  0.00    +0.200 C 
ATOM      8  C   LIG    1        1.367   2.152  -0.555  0.00  0.00    +0.330 C 
ATOM      9  O   LIG    1       -2.037   1.410   0.185  0.00  0.00    -0.510 OA
ENDROOT
BRANCH   1  12
ATOM     10  C   LIG    1       -1.749   5.609   0.450  0.00  0.00    +0.280 A 
ATOM     11  C   LIG    1       -2.163   4.321   0.351  0.00  0.00    -0.060 A 
ATOM     12  C   LIG    1       -1.018   3.512   0.194  0.00  0.00    +0.060 A 
ATOM     13  N   LIG    1        0.042   4.297   0.205  0.00  0.00    -0.260 NA
ATOM     14  N   LIG    1       -0.394   5.619   0.360  0.00  0.00    -0.390 N 
ATOM     15  C   LIG    1        0.463   6.805   0.419  0.00  0.00    +0.350 C 
BRANCH  10  17
ATOM     16  C   LIG    1       -1.914   7.975   0.591  0.00  0.00    +0.250 C 
ATOM     17  O   LIG    1       -2.548   6.694   0.611  0.00  0.00    -0.290 OA
ENDBRANCH  10  17
ENDBRANCH   1  12
BRANCH   6  18
ATOM     18  C   LIG    1        3.277   2.256  -2.137  0.00  0.00    +0.190 A 
ATOM     19  N   LIG    1        3.526   3.190  -3.023  0.00  0.00    -0.470 NA
ATOM     20  C   LIG    1        4.839   3.457  -2.908  0.00  0.00    +0.200 A 
ATOM     21  N   LIG    1        5.313   2.686  -1.976  0.00  0.00    -0.380 NA
ATOM     22  O   LIG    1        4.430   1.992  -1.516  0.00  0.00    +0.100 OA
BRANCH  20  23
ATOM     23  C   LIG    1        5.617   4.466  -3.713  0.00  0.00    +0.060 C 
ATOM     24  C   LIG    1        7.140   4.467  -3.561  0.00  0.00    +0.050 C 
ATOM     25  C   LIG    1        6.309   5.597  -2.949  0.00  0.00    +0.050 C 
ENDBRANCH  20  23
ENDBRANCH   6  18
TORSDOF 4
