REMARK  Name = ZINCrD000000Dg2k.0
REMARK                            x       y       z     vdW  Elec       q    Type
REMARK                         _______ _______ _______ _____ _____    ______ ____
ROOT
ATOM      1  N   LIG    1        2.389   5.089  -0.908  0.00  0.00    -0.490 NA
ATOM      2  C   LIG    1        3.493   6.018  -0.624  0.00  0.00    +0.250 C 
ATOM      3  C   LIG    1        3.248   6.723   0.715  0.00  0.00    +0.230 C 
ATOM      4  N   LIG    1        2.938   5.700   1.722  0.00  0.00    -0.450 N 
ATOM      5  C   LIG    1        2.959   5.823   3.073  0.00  0.00    +0.160 A 
ATOM      6  C   LIG    1        2.612   4.633   3.610  0.00  0.00    -0.060 A 
ATOM      7  C   LIG    1        2.366   3.742   2.544  0.00  0.00    -0.030 A 
ATOM      8  C   LIG    1        2.570   4.418   1.403  0.00  0.00    -0.030 A 
ATOM      9  C   LIG    1        2.436   3.919  -0.014  0.00  0.00    +0.310 C 
ENDROOT
BRANCH   9  10
ATOM     10  C   LIG    1        1.166   3.120  -0.155  0.00  0.00    -0.080 A 
ATOM     11  C   LIG    1        1.067   2.146  -1.131  0.00  0.00    +0.040 A 
ATOM     12  C   LIG    1       -0.098   1.412  -1.259  0.00  0.00    +0.000 A 
ATOM     13  C   LIG    1       -1.165   1.656  -0.415  0.00  0.00    +0.010 A 
ATOM     14  C   LIG    1       -1.064   2.627   0.564  0.00  0.00    +0.000 A 
ATOM     15  C   LIG    1        0.101   3.360   0.693  0.00  0.00    +0.010 A 
ENDBRANCH   9  10
BRANCH   1  16
ATOM     16  C   LIG    1        1.091   5.771  -0.816  0.00  0.00    +0.280 C 
BRANCH  16  20
ATOM     17  O   LIG    1        3.114   8.320  -4.134  0.00  0.00    -0.480 OA
ATOM     18  C   LIG    1        2.165   8.182  -3.381  0.00  0.00    +0.530 A 
ATOM     19  N   LIG    1        2.099   7.137  -2.534  0.00  0.00    -0.570 NA
ATOM     20  C   LIG    1        1.088   6.971  -1.727  0.00  0.00    +0.450 A 
ATOM     21  N   LIG    1        0.046   7.819  -1.661  0.00  0.00    -0.620 N 
ATOM     22  H   LIG    1       -0.676   7.645  -1.037  0.00  0.00    +0.420 HD
ATOM     23  C   LIG    1       -0.004   8.933  -2.474  0.00  0.00    +0.180 A 
ATOM     24  C   LIG    1       -1.064   9.827  -2.432  0.00  0.00    -0.020 A 
ATOM     25  C   LIG    1       -1.065  10.925  -3.267  0.00  0.00    +0.080 A 
ATOM     26  C   LIG    1       -0.017  11.146  -4.149  0.00  0.00    -0.010 A 
ATOM     27  C   LIG    1        1.045  10.269  -4.206  0.00  0.00    +0.110 A 
ATOM     28  C   LIG    1        1.060   9.156  -3.369  0.00  0.00    -0.210 A 
ENDBRANCH  16  20
ENDBRANCH   1  16
TORSDOF 3
