REMARK  Name = ZINCvU0000000ArP.0
REMARK                            x       y       z     vdW  Elec       q    Type
REMARK                         _______ _______ _______ _____ _____    ______ ____
ROOT
ATOM      1  C   LIG    1       -1.490   3.407   2.499  0.00  0.00    +0.170 A 
ATOM      2  N   LIG    1       -2.750   3.226   2.781  0.00  0.00    -0.270 NA
ATOM      3  N   LIG    1       -2.997   3.622   3.978  0.00  0.00    -0.290 NA
ATOM      4  C   LIG    1       -1.899   4.083   4.532  0.00  0.00    +0.140 A 
ATOM      5  N   LIG    1       -0.900   3.956   3.607  0.00  0.00    -0.410 N 
ENDROOT
BRANCH   5   6
ATOM      6  C   LIG    1        0.447   4.314   3.759  0.00  0.00    +0.100 A 
ATOM      7  C   LIG    1        1.433   3.337   3.743  0.00  0.00    +0.030 A 
ATOM      8  C   LIG    1        2.759   3.694   3.888  0.00  0.00    +0.040 A 
ATOM      9  C   LIG    1        3.105   5.022   4.061  0.00  0.00    +0.040 A 
ATOM     10  C   LIG    1        2.124   5.997   4.083  0.00  0.00    +0.040 A 
ATOM     11  C   LIG    1        0.797   5.647   3.933  0.00  0.00    +0.030 A 
ENDBRANCH   5   6
BRANCH   1  12
ATOM     12  C   LIG    1       -0.808   3.070   1.198  0.00  0.00    +0.270 C 
BRANCH  12  13
ATOM     13  N   LIG    1       -1.480   3.773   0.097  0.00  0.00    -0.520 NA
ATOM     14  C   LIG    1       -1.248   5.221   0.178  0.00  0.00    +0.190 C 
ATOM     15  C   LIG    1       -2.917   3.470   0.077  0.00  0.00    +0.220 C 
ENDBRANCH  12  13
BRANCH  12  17
ATOM     16  C   LIG    1       -0.084   1.202  -0.295  0.00  0.00    +0.040 C 
ATOM     17  C   LIG    1       -0.882   1.560   0.960  0.00  0.00    +0.030 C 
ENDBRANCH  12  17
ENDBRANCH   1  12
BRANCH   4  18
ATOM     18  S   LIG    1       -1.742   4.736   6.161  0.00  0.00    +0.100 S 
BRANCH  18  19
ATOM     19  C   LIG    1       -3.450   4.563   6.735  0.00  0.00    +0.110 C 
BRANCH  19  20
ATOM     20  C   LIG    1       -3.559   5.074   8.149  0.00  0.00    +0.530 C 
ATOM     21  N   LIG    1       -4.746   5.044   8.786  0.00  0.00    -0.650 N 
ATOM     22  H   LIG    1       -5.530   4.694   8.335  0.00  0.00    +0.420 HD
ATOM     23  O   LIG    1       -2.579   5.511   8.713  0.00  0.00    -0.450 OA
BRANCH  21  24
ATOM     24  C   LIG    1       -4.847   5.517  10.095  0.00  0.00    +0.390 A 
ATOM     25  N   LIG    1       -3.773   5.993  10.704  0.00  0.00    -0.450 NA
ATOM     26  C   LIG    1       -3.825   6.449  11.941  0.00  0.00    +0.340 A 
ATOM     27  C   LIG    1       -5.011   6.447  12.649  0.00  0.00    -0.120 A 
ATOM     28  C   LIG    1       -6.162   5.955  12.046  0.00  0.00    +0.010 A 
ATOM     29  C   LIG    1       -7.474   5.937  12.787  0.00  0.00    +0.130 C 
ATOM     30 CL   LIG    1       -5.064   7.052  14.275  0.00  0.00    -0.040 Cl
ATOM     31  C   LIG    1       -6.077   5.488  10.745  0.00  0.00    -0.120 A 
ATOM     32 CL   LIG    1       -7.484   4.870   9.939  0.00  0.00    -0.040 Cl
ENDBRANCH  21  24
ENDBRANCH  19  20
ENDBRANCH  18  19
ENDBRANCH   4  18
TORSDOF 8
