REMARK  Name = ZINCtV00000sxWP7.0
REMARK                            x       y       z     vdW  Elec       q    Type
REMARK                         _______ _______ _______ _____ _____    ______ ____
ROOT
ATOM      1  N   LIG    1       -3.491  -1.195  -4.248  0.00  0.00    -0.680 N 
ATOM      2  H   LIG    1       -3.733  -0.495  -4.875  0.00  0.00    +0.420 HD
ENDROOT
BRANCH   1   3
ATOM      3  C   LIG    1       -2.280  -1.120  -3.547  0.00  0.00    +0.150 A 
ATOM      4  C   LIG    1       -1.405  -0.075  -3.788  0.00  0.00    +0.030 A 
ATOM      5  C   LIG    1       -0.203  -0.006  -3.089  0.00  0.00    -0.070 A 
ATOM      6  C   LIG    1        0.122  -0.994  -2.148  0.00  0.00    +0.120 A 
ATOM      7  N   LIG    1        1.357  -0.685  -1.601  0.00  0.00    -0.500 N 
ATOM      8  C   LIG    1        1.855   0.475  -2.165  0.00  0.00    +0.150 A 
ATOM      9  C   LIG    1        3.034   1.185  -1.962  0.00  0.00    -0.030 A 
ATOM     10  C   LIG    1        3.279   2.337  -2.678  0.00  0.00    +0.050 A 
ATOM     11  C   LIG    1        2.357   2.801  -3.605  0.00  0.00    -0.020 A 
ATOM     12  C   LIG    1        1.183   2.112  -3.820  0.00  0.00    +0.060 A 
ATOM     13  C   LIG    1       -0.771  -2.035  -1.913  0.00  0.00    +0.030 A 
ATOM     14  C   LIG    1        0.923   0.946  -3.103  0.00  0.00    -0.110 A 
ATOM     15  C   LIG    1       -1.959  -2.097  -2.608  0.00  0.00    +0.030 A 
BRANCH   7  16
ATOM     16  C   LIG    1        2.041  -1.478  -0.576  0.00  0.00    +0.290 C 
ATOM     17  C   LIG    1        1.634  -0.977   0.812  0.00  0.00    +0.020 C 
ENDBRANCH   7  16
ENDBRANCH   1   3
BRANCH   1  18
ATOM     18  C   LIG    1       -4.321  -2.239  -4.051  0.00  0.00    +0.560 C 
ATOM     19  S   LIG    1       -5.015  -2.501  -2.508  0.00  0.00    -0.520 S 
BRANCH  18  20
ATOM     20  N   LIG    1       -4.604  -3.076  -5.068  0.00  0.00    -0.600 N 
ATOM     21  H   LIG    1       -4.154  -2.972  -5.921  0.00  0.00    +0.410 HD
BRANCH  20  27
ATOM     22  C   LIG    1       -5.167  -5.424  -5.029  0.00  0.00    -0.070 A 
ATOM     23  C   LIG    1       -6.098  -6.428  -4.850  0.00  0.00    +0.010 A 
ATOM     24  C   LIG    1       -7.410  -6.111  -4.549  0.00  0.00    +0.030 A 
ATOM     25  C   LIG    1       -7.793  -4.788  -4.420  0.00  0.00    +0.020 A 
ATOM     26  C   LIG    1       -6.864  -3.779  -4.592  0.00  0.00    -0.030 A 
ATOM     27  C   LIG    1       -5.546  -4.095  -4.894  0.00  0.00    +0.120 A 
BRANCH  22  29
ATOM     28  C   LIG    1       -2.911  -5.819  -4.077  0.00  0.00    +0.030 C 
ATOM     29  C   LIG    1       -3.739  -5.771  -5.363  0.00  0.00    +0.060 C 
ENDBRANCH  22  29
BRANCH  26  30
ATOM     30  C   LIG    1       -7.282  -2.338  -4.451  0.00  0.00    +0.070 C 
ATOM     31  C   LIG    1       -7.634  -1.772  -5.828  0.00  0.00    +0.020 C 
ENDBRANCH  26  30
ENDBRANCH  20  27
ENDBRANCH  18  20
ENDBRANCH   1  18
TORSDOF 7
