REMARK  Name = ZINCrH00000No4Zh.0
REMARK                            x       y       z     vdW  Elec       q    Type
REMARK                         _______ _______ _______ _____ _____    ______ ____
ROOT
ATOM      1  C   LIG    1        2.100   0.686  -0.014  0.00  0.00    +0.150 A 
ATOM      2  C   LIG    1        1.246   1.778  -0.000  0.00  0.00    +0.120 A 
ATOM      3  N   LIG    1       -0.016   1.317   0.009  0.00  0.00    -0.420 NA
ATOM      4  C   LIG    1        0.002  -0.004   0.002  0.00  0.00    +0.160 A 
ATOM      5  C   LIG    1       -1.018  -0.976   0.006  0.00  0.00    +0.420 A 
ATOM      6  N   LIG    1       -0.704  -2.249  -0.004  0.00  0.00    -0.460 NA
ATOM      7  C   LIG    1        0.569  -2.655  -0.018  0.00  0.00    +0.080 A 
ATOM      8  C   LIG    1        1.586  -1.770  -0.023  0.00  0.00    +0.150 A 
ATOM      9  C   LIG    1        0.875  -4.131  -0.029  0.00  0.00    +0.150 C 
ATOM     10  N   LIG    1        1.317  -0.425  -0.013  0.00  0.00    -0.360 N 
ENDROOT
BRANCH   2  11
ATOM     11  C   LIG    1        1.652   3.199   0.004  0.00  0.00    +0.060 A 
ATOM     12  C   LIG    1        0.920   4.255  -0.443  0.00  0.00    +0.220 A 
ATOM     13  N   LIG    1        1.645   5.367  -0.262  0.00  0.00    -0.460 NA
ATOM     14  C   LIG    1        2.795   5.059   0.276  0.00  0.00    +0.250 A 
ATOM     15 CL   LIG    1        4.052   6.183   0.687  0.00  0.00    +0.040 Cl
ATOM     16  N   LIG    1        2.843   3.714   0.467  0.00  0.00    -0.440 N 
ATOM     17  C   LIG    1        3.953   2.956   1.050  0.00  0.00    +0.340 C 
ENDBRANCH   2  11
BRANCH   1  18
ATOM     18  N   LIG    1        3.493   0.722  -0.028  0.00  0.00    -0.580 N 
ATOM     19  H   LIG    1        3.833   1.261  -0.810  0.00  0.00    +0.370 HD
BRANCH  18  20
ATOM     20  C   LIG    1        4.053  -0.636  -0.041  0.00  0.00    +0.230 C 
BRANCH  20  24
ATOM     21  C   LIG    1        8.321  -0.415  -0.082  0.00  0.00    +0.140 A 
ATOM     22  C   LIG    1        7.639  -0.458   1.126  0.00  0.00    -0.020 A 
ATOM     23  C   LIG    1        6.259  -0.529   1.136  0.00  0.00    +0.080 A 
ATOM     24  C   LIG    1        5.558  -0.558  -0.055  0.00  0.00    -0.140 A 
ATOM     25  C   LIG    1        6.236  -0.521  -1.260  0.00  0.00    +0.050 A 
ATOM     26  C   LIG    1        7.615  -0.444  -1.276  0.00  0.00    -0.080 A 
BRANCH  21  28
ATOM     27  C   LIG    1       10.313  -0.305  -1.374  0.00  0.00    +0.250 C 
ATOM     28  O   LIG    1        9.678  -0.346  -0.095  0.00  0.00    -0.320 OA
ENDBRANCH  21  28
ENDBRANCH  20  24
ENDBRANCH  18  20
ENDBRANCH   1  18
TORSDOF 5
