REMARK  Name = ZINCrg00000NQuZ7.0
REMARK                            x       y       z     vdW  Elec       q    Type
REMARK                         _______ _______ _______ _____ _____    ______ ____
ROOT
ATOM      1  C   LIG    1       -1.117  -0.708  -0.401  0.00  0.00    -0.090 A 
ATOM      2  C   LIG    1       -1.099  -2.090  -0.409  0.00  0.00    +0.030 A 
ATOM      3  C   LIG    1        0.040  -2.768  -0.014  0.00  0.00    +0.020 A 
ATOM      4  C   LIG    1        1.159  -2.064   0.389  0.00  0.00    +0.020 A 
ATOM      5  C   LIG    1        1.142  -0.682   0.392  0.00  0.00    +0.030 A 
ATOM      6  C   LIG    1        0.002  -0.004   0.002  0.00  0.00    -0.100 A 
ENDROOT
BRANCH   1   7
ATOM      7  C   LIG    1       -2.358   0.031  -0.831  0.00  0.00    +0.320 C 
BRANCH   7   9
ATOM      8  C   LIG    1       -3.187   1.182  -2.812  0.00  0.00    +0.510 C 
ATOM      9  N   LIG    1       -2.197   0.492  -2.212  0.00  0.00    -0.730 N 
ATOM     10  H   LIG    1       -1.377   0.302  -2.695  0.00  0.00    +0.400 HD
ATOM     11  O   LIG    1       -4.212   1.420  -2.209  0.00  0.00    -0.530 OA
BRANCH   8  12
ATOM     12  C   LIG    1       -3.022   1.657  -4.233  0.00  0.00    +0.040 C 
BRANCH  12  13
ATOM     13  C   LIG    1       -4.281   2.407  -4.670  0.00  0.00    +0.030 C 
BRANCH  13  14
ATOM     14  C   LIG    1       -4.113   2.889  -6.112  0.00  0.00    +0.000 C 
BRANCH  14  16
ATOM     15  C   LIG    1       -5.204   4.122  -7.992  0.00  0.00    +0.000 C 
ATOM     16  C   LIG    1       -5.372   3.640  -6.549  0.00  0.00    -0.010 C 
ENDBRANCH  14  16
ENDBRANCH  13  14
ENDBRANCH  12  13
ENDBRANCH   8  12
ENDBRANCH   7   9
ENDBRANCH   1   7
BRANCH   6  17
ATOM     17  C   LIG    1       -0.018   1.503   0.010  0.00  0.00    +0.320 C 
BRANCH  17  18
ATOM     18  N   LIG    1       -0.704   1.975   1.216  0.00  0.00    -0.720 N 
ATOM     19  H   LIG    1       -1.058   1.337   1.854  0.00  0.00    +0.400 HD
ATOM     20  C   LIG    1       -0.843   3.297   1.437  0.00  0.00    +0.490 C 
ATOM     21  O   LIG    1       -0.401   4.096   0.639  0.00  0.00    -0.520 OA
BRANCH  20  22
ATOM     22  C   LIG    1       -1.548   3.783   2.677  0.00  0.00    +0.370 C 
BRANCH  22  23
ATOM     23  N   LIG    1       -1.568   5.248   2.685  0.00  0.00    -0.610 N 
ATOM     24  C   LIG    1       -0.555   6.139   3.276  0.00  0.00    +0.320 C 
ATOM     25  C   LIG    1       -1.089   7.528   2.987  0.00  0.00    +0.530 C 
ATOM     26  N   LIG    1       -2.250   7.342   2.329  0.00  0.00    -0.680 N 
ATOM     27  H   LIG    1       -2.821   8.061   2.016  0.00  0.00    +0.430 HD
ATOM     28  O   LIG    1       -0.580   8.586   3.290  0.00  0.00    -0.470 OA
ATOM     29  C   LIG    1       -2.519   6.042   2.160  0.00  0.00    +0.710 C 
ATOM     30  O   LIG    1       -3.510   5.625   1.594  0.00  0.00    -0.530 OA
ENDBRANCH  22  23
ENDBRANCH  20  22
ENDBRANCH  17  18
ENDBRANCH   6  17
TORSDOF 10
