REMARK  Name = ZINCtV00001bB35P.0
REMARK                            x       y       z     vdW  Elec       q    Type
REMARK                         _______ _______ _______ _____ _____    ______ ____
ROOT
ATOM      1  N   LIG    1        2.451  -8.495   4.417  0.00  0.00    -0.500 N 
ATOM      2  C   LIG    1        1.655  -9.505   3.906  0.00  0.00    +0.140 A 
ATOM      3  C   LIG    1        1.353  -9.198   2.571  0.00  0.00    -0.100 A 
ATOM      4  C   LIG    1        2.018  -7.916   2.276  0.00  0.00    -0.110 A 
ATOM      5  C   LIG    1        2.088  -7.112   1.141  0.00  0.00    +0.100 A 
ATOM      6  C   LIG    1        2.809  -5.938   1.177  0.00  0.00    -0.120 A 
ATOM      7  C   LIG    1        3.468  -5.558   2.337  0.00  0.00    +0.060 A 
ATOM      8  C   LIG    1        3.402  -6.342   3.469  0.00  0.00    -0.010 A 
ATOM      9  C   LIG    1        0.559 -10.062   1.820  0.00  0.00    +0.070 A 
ATOM     10  C   LIG    1        0.072 -11.217   2.393  0.00  0.00    -0.020 A 
ATOM     11  C   LIG    1        0.369 -11.522   3.712  0.00  0.00    +0.050 A 
ATOM     12  C   LIG    1        1.154 -10.677   4.466  0.00  0.00    -0.020 A 
ATOM     13  C   LIG    1        2.679  -7.531   3.451  0.00  0.00    +0.150 A 
ENDROOT
BRANCH   1  15
ATOM     14  C   LIG    1        4.337  -9.148   5.830  0.00  0.00    +0.030 C 
ATOM     15  C   LIG    1        2.975  -8.452   5.784  0.00  0.00    +0.290 C 
ENDBRANCH   1  15
BRANCH   6  16
ATOM     16  C   LIG    1        2.887  -5.066  -0.050  0.00  0.00    +0.280 C 
BRANCH  16  17
ATOM     17  N   LIG    1        1.783  -4.103  -0.035  0.00  0.00    -0.200 NA
ATOM     18  N   LIG    1        2.022  -2.886  -0.031  0.00  0.00    -0.140 NA
BRANCH  18  19
ATOM     19  C   LIG    1        0.995  -1.991  -0.017  0.00  0.00    +0.180 A 
ATOM     20  N   LIG    1        1.125  -0.693  -0.012  0.00  0.00    -0.400 NA
ATOM     21  C   LIG    1        0.002  -0.004   0.002  0.00  0.00    +0.110 A 
ATOM     22  C   LIG    1       -1.130  -0.742   0.014  0.00  0.00    -0.060 A 
ATOM     23  S   LIG    1       -0.717  -2.402  -0.003  0.00  0.00    +0.180 S 
BRANCH  21  24
ATOM     24  C   LIG    1       -0.018   1.479   0.010  0.00  0.00    -0.030 A 
ATOM     25  C   LIG    1       -1.233   2.162   0.020  0.00  0.00    +0.020 A 
ATOM     26  C   LIG    1       -1.246   3.542   0.034  0.00  0.00    +0.010 A 
ATOM     27  C   LIG    1       -0.056   4.248   0.026  0.00  0.00    +0.010 A 
ATOM     28  C   LIG    1        1.153   3.575   0.010  0.00  0.00    +0.010 A 
ATOM     29  C   LIG    1        1.178   2.195   0.003  0.00  0.00    +0.040 A 
ENDBRANCH  21  24
ENDBRANCH  18  19
ENDBRANCH  16  17
ENDBRANCH   6  16
TORSDOF 5
