REMARK  Name = ZINCqH0000037gJn.0
REMARK                            x       y       z     vdW  Elec       q    Type
REMARK                         _______ _______ _______ _____ _____    ______ ____
ROOT
ATOM      1  C   LIG    1       -1.199   3.148   0.066  0.00  0.00    -0.150 A 
ATOM      2  C   LIG    1       -1.228   1.765   0.095  0.00  0.00    +0.100 A 
ATOM      3  C   LIG    1       -0.023   1.077   0.128  0.00  0.00    -0.060 A 
ATOM      4  C   LIG    1        1.161   1.788   0.119  0.00  0.00    +0.300 A 
ATOM      5  N   LIG    1        1.157   3.107   0.087  0.00  0.00    -0.530 NA
ATOM      6  C   LIG    1        0.029   3.798   0.061  0.00  0.00    +0.330 A 
ENDROOT
BRANCH   1   7
ATOM      7  C   LIG    1       -2.481   3.939   0.036  0.00  0.00    +0.240 C 
BRANCH   7   8
ATOM      8  N   LIG    1       -2.760   4.367  -1.341  0.00  0.00    -0.680 NA
ATOM      9  H   LIG    1       -2.792   3.576  -1.966  0.00  0.00    +0.340 HD
BRANCH   8  11
ATOM     10  C   LIG    1       -3.712   6.609  -1.083  0.00  0.00    +0.050 C 
ATOM     11  C   LIG    1       -4.005   5.143  -1.409  0.00  0.00    +0.210 C 
BRANCH  11  12
ATOM     12  C   LIG    1       -4.583   5.044  -2.798  0.00  0.00    -0.190 A 
ATOM     13  C   LIG    1       -3.898   5.070  -3.955  0.00  0.00    +0.180 A 
ATOM     14  O   LIG    1       -4.772   4.955  -4.968  0.00  0.00    -0.180 OA
ATOM     15  C   LIG    1       -6.018   4.855  -4.476  0.00  0.00    +0.160 A 
ATOM     16  C   LIG    1       -5.949   4.899  -3.133  0.00  0.00    -0.060 A 
ENDBRANCH  11  12
ENDBRANCH   8  11
ENDBRANCH   7   8
ENDBRANCH   1   7
BRANCH   6  17
ATOM     17  O   LIG    1        0.072   5.153   0.029  0.00  0.00    -0.230 OA
BRANCH  17  18
ATOM     18  C   LIG    1        1.287   5.756   0.125  0.00  0.00    +0.080 A 
ATOM     19  C   LIG    1        1.677   6.344   1.319  0.00  0.00    +0.070 A 
ATOM     20  C   LIG    1        2.914   6.951   1.417  0.00  0.00    +0.010 A 
ATOM     21  C   LIG    1        3.758   6.983   0.322  0.00  0.00    +0.130 A 
ATOM     22  C   LIG    1        3.369   6.402  -0.871  0.00  0.00    -0.650 A 
ATOM     23  C   LIG    1        2.136   5.789  -0.972  0.00  0.00    +0.130 A 
BRANCH  22  24
ATOM     24  S   LIG    1        4.448   6.444  -2.264  0.00  0.00    +2.500 S 
ATOM     25  O   LIG    1        4.070   5.311  -3.034  0.00  0.00    -0.930 OA
ATOM     26  O   LIG    1        5.747   6.544  -1.698  0.00  0.00    -0.930 OA
ATOM     27  C   LIG    1        4.010   7.976  -3.129  0.00  0.00    -0.260 C 
ENDBRANCH  22  24
ENDBRANCH  17  18
ENDBRANCH   6  17
TORSDOF 7
