REMARK  Name = ZINCpe00000HeaKW.0
REMARK                            x       y       z     vdW  Elec       q    Type
REMARK                         _______ _______ _______ _____ _____    ______ ____
ROOT
ATOM      1  N   LIG    1       -0.712   1.565   1.211  0.00  0.00    -1.000 NA
ATOM      2  C   LIG    1       -0.013   1.086   0.008  0.00  0.00    +0.270 C 
ATOM      3  C   LIG    1       -0.764   1.599  -1.226  0.00  0.00    +0.230 C 
ATOM      4  O   LIG    1       -2.146   1.250  -1.113  0.00  0.00    -0.360 OA
ATOM      5  C   LIG    1       -2.811   1.844   0.004  0.00  0.00    +0.270 C 
ATOM      6  C   LIG    1       -2.164   1.344   1.301  0.00  0.00    +0.300 C 
ENDROOT
BRANCH   5   7
ATOM      7  C   LIG    1       -4.268   1.459  -0.014  0.00  0.00    +0.230 A 
ATOM      8  N   LIG    1       -4.734   0.259  -0.240  0.00  0.00    -0.280 NA
ATOM      9  N   LIG    1       -6.133   0.345  -0.161  0.00  0.00    -0.460 N 
ATOM     10  H   LIG    1       -6.768  -0.379  -0.280  0.00  0.00    +0.450 HD
ATOM     11  C   LIG    1       -6.419   1.631   0.107  0.00  0.00    +0.290 A 
ATOM     12  N   LIG    1       -5.291   2.288   0.192  0.00  0.00    -0.530 NA
BRANCH  11  13
ATOM     13  C   LIG    1       -7.798   2.214   0.279  0.00  0.00    +0.340 C 
BRANCH  13  14
ATOM     14  O   LIG    1       -8.774   1.184   0.113  0.00  0.00    -0.580 OA
ATOM     15  H   LIG    1       -9.687   1.488   0.211  0.00  0.00    +0.400 HD
ENDBRANCH  13  14
ENDBRANCH  11  13
ENDBRANCH   5   7
BRANCH   1  17
ATOM     16  O   LIG    1       -0.670   2.087   3.587  0.00  0.00    -0.940 OA
ATOM     17  S   LIG    1        0.112   2.332   2.426  0.00  0.00    +2.610 S 
ATOM     18  O   LIG    1        1.438   1.835   2.319  0.00  0.00    -0.940 OA
BRANCH  17  19
ATOM     19  C   LIG    1        0.052   4.088   1.976  0.00  0.00    -0.350 C 
BRANCH  19  20
ATOM     20  C   LIG    1        0.787   4.911   3.035  0.00  0.00    +0.110 C 
BRANCH  20  21
ATOM     21  C   LIG    1        0.738   6.370   2.662  0.00  0.00    -0.070 A 
ATOM     22  C   LIG    1        1.738   6.918   1.881  0.00  0.00    +0.020 A 
ATOM     23  C   LIG    1        1.690   8.255   1.533  0.00  0.00    +0.040 A 
ATOM     24  C   LIG    1        0.648   9.048   1.975  0.00  0.00    +0.030 A 
ATOM     25  C   LIG    1       -0.351   8.501   2.761  0.00  0.00    -0.030 A 
ATOM     26 CL   LIG    1       -1.662   9.495   3.316  0.00  0.00    -0.070 Cl
ATOM     27  C   LIG    1       -0.306   7.162   3.104  0.00  0.00    +0.030 A 
ENDBRANCH  20  21
ENDBRANCH  19  20
ENDBRANCH  17  19
ENDBRANCH   1  17
TORSDOF 7
