REMARK  Name = ZINCpe00000HeaKW.1
REMARK                            x       y       z     vdW  Elec       q    Type
REMARK                         _______ _______ _______ _____ _____    ______ ____
ROOT
ATOM      1  N   LIG    1       -4.851  -0.438   3.069  0.00  0.00    -1.000 NA
ATOM      2  C   LIG    1       -4.370  -1.625   3.792  0.00  0.00    +0.270 C 
ATOM      3  C   LIG    1       -5.551  -2.263   4.524  0.00  0.00    +0.230 C 
ATOM      4  O   LIG    1       -6.215  -1.268   5.307  0.00  0.00    -0.360 OA
ATOM      5  C   LIG    1       -6.779  -0.201   4.541  0.00  0.00    +0.260 C 
ATOM      6  C   LIG    1       -5.655   0.546   3.812  0.00  0.00    +0.310 C 
ENDROOT
BRANCH   5   7
ATOM      7  C   LIG    1       -7.502   0.751   5.458  0.00  0.00    +0.290 A 
ATOM      8  N   LIG    1       -6.953   1.486   6.391  0.00  0.00    -0.500 NA
ATOM      9  C   LIG    1       -7.888   2.207   7.008  0.00  0.00    +0.230 A 
ATOM     10  N   LIG    1       -9.051   1.940   6.474  0.00  0.00    -0.280 NA
ATOM     11  N   LIG    1       -8.824   0.997   5.457  0.00  0.00    -0.470 N 
ATOM     12  H   LIG    1       -9.488   0.601   4.872  0.00  0.00    +0.450 HD
BRANCH   9  13
ATOM     13  C   LIG    1       -7.646   3.173   8.139  0.00  0.00    +0.330 C 
BRANCH  13  14
ATOM     14  O   LIG    1       -7.388   4.474   7.606  0.00  0.00    -0.570 OA
ATOM     15  H   LIG    1       -7.222   5.149   8.279  0.00  0.00    +0.390 HD
ENDBRANCH  13  14
ENDBRANCH   9  13
ENDBRANCH   5   7
BRANCH   1  17
ATOM     16  O   LIG    1       -5.567   0.593   0.984  0.00  0.00    -0.950 OA
ATOM     17  S   LIG    1       -4.503  -0.217   1.465  0.00  0.00    +2.610 S 
ATOM     18  O   LIG    1       -4.301  -1.533   0.966  0.00  0.00    -0.940 OA
BRANCH  17  19
ATOM     19  C   LIG    1       -2.945   0.711   1.462  0.00  0.00    -0.340 C 
BRANCH  19  20
ATOM     20  C   LIG    1       -2.514   0.980   0.019  0.00  0.00    +0.110 C 
BRANCH  20  21
ATOM     21  C   LIG    1       -1.219   1.751   0.017  0.00  0.00    -0.070 A 
ATOM     22  C   LIG    1       -1.238   3.133   0.030  0.00  0.00    +0.020 A 
ATOM     23  C   LIG    1       -0.050   3.841   0.022  0.00  0.00    +0.040 A 
ATOM     24  C   LIG    1        1.156   3.167   0.007  0.00  0.00    +0.030 A 
ATOM     25  C   LIG    1        1.176   1.784   0.000  0.00  0.00    -0.030 A 
ATOM     26 CL   LIG    1        2.691   0.937  -0.017  0.00  0.00    -0.070 Cl
ATOM     27  C   LIG    1       -0.013   1.076   0.008  0.00  0.00    +0.030 A 
ENDBRANCH  20  21
ENDBRANCH  19  20
ENDBRANCH  17  19
ENDBRANCH   1  17
TORSDOF 7
