REMARK  Name = ZINCrH000004sfOC.0
REMARK                            x       y       z     vdW  Elec       q    Type
REMARK                         _______ _______ _______ _____ _____    ______ ____
ROOT
ATOM      1  N   LIG    1       -0.075  -0.003   0.143  0.00  0.00    -0.720 N 
ATOM      2  H   LIG    1       -0.692  -0.476  -0.436  0.00  0.00    +0.410 HD
ATOM      3  C   LIG    1        0.887  -0.681   0.800  0.00  0.00    +0.710 C 
ATOM      4  N   LIG    1        0.992  -2.016   0.651  0.00  0.00    -0.680 N 
ATOM      5  H   LIG    1        0.329  -2.500   0.134  0.00  0.00    +0.410 HD
ATOM      6  O   LIG    1        1.661  -0.087   1.527  0.00  0.00    -0.560 OA
ENDROOT
BRANCH   4   7
ATOM      7  C   LIG    1        2.058  -2.706   1.244  0.00  0.00    +0.200 A 
ATOM      8  C   LIG    1        1.875  -4.001   1.707  0.00  0.00    -0.020 A 
ATOM      9  C   LIG    1        2.925  -4.682   2.292  0.00  0.00    +0.030 A 
ATOM     10  C   LIG    1        4.165  -4.071   2.417  0.00  0.00    +0.030 A 
ATOM     11  C   LIG    1        4.350  -2.773   1.953  0.00  0.00    +0.150 A 
ATOM     12  F   LIG    1        5.556  -2.178   2.074  0.00  0.00    -0.120 F 
ATOM     13  C   LIG    1        3.300  -2.095   1.364  0.00  0.00    +0.000 A 
BRANCH  10  14
ATOM     14  N   LIG    1        5.230  -4.762   3.010  0.00  0.00    -0.500 N 
ATOM     15  C   LIG    1        5.597  -5.945   2.217  0.00  0.00    +0.160 C 
ATOM     16  C   LIG    1        6.800  -6.634   2.867  0.00  0.00    +0.220 C 
ATOM     17  O   LIG    1        6.479  -6.967   4.220  0.00  0.00    -0.380 OA
ATOM     18  C   LIG    1        6.117  -5.839   5.021  0.00  0.00    +0.220 C 
ATOM     19  C   LIG    1        4.907  -5.141   4.393  0.00  0.00    +0.160 C 
ENDBRANCH  10  14
ENDBRANCH   4   7
BRANCH   1  20
ATOM     20  C   LIG    1       -0.189   1.449   0.305  0.00  0.00    +0.390 C 
BRANCH  20  25
ATOM     21  C   LIG    1       -1.955   4.202  -4.032  0.00  0.00    +0.150 C 
ATOM     22  C   LIG    1       -1.664   3.282  -2.875  0.00  0.00    -0.220 A 
ATOM     23  C   LIG    1       -2.369   2.198  -2.536  0.00  0.00    +0.210 A 
ATOM     24  N   LIG    1       -1.910   1.556  -1.480  0.00  0.00    -0.460 NA
ATOM     25  C   LIG    1       -0.858   2.038  -0.909  0.00  0.00    +0.020 A 
ATOM     26  S   LIG    1       -0.338   3.447  -1.726  0.00  0.00    +0.160 S 
ENDBRANCH  20  25
BRANCH  20  27
ATOM     27  C   LIG    1       -1.024   1.759   1.549  0.00  0.00    -0.060 C 
ATOM     28  C   LIG    1       -0.435   2.736   2.569  0.00  0.00    +0.030 C 
ATOM     29  C   LIG    1       -0.508   1.242   2.893  0.00  0.00    +0.040 C 
ENDBRANCH  20  27
ENDBRANCH   1  20
TORSDOF 5
