REMARK  Name = ZINCpe000000TXpS.0
REMARK                            x       y       z     vdW  Elec       q    Type
REMARK                         _______ _______ _______ _____ _____    ______ ____
ROOT
ATOM      1  C   LIG    1       -0.014   1.212   0.009  0.00  0.00    +0.570 C 
ATOM      2  N   LIG    1        1.143   1.901   0.001  0.00  0.00    -0.730 N 
ATOM      3  H   LIG    1        1.130   2.871   0.007  0.00  0.00    +0.400 HD
ATOM      4  O   LIG    1        0.002  -0.004   0.002  0.00  0.00    -0.510 OA
ENDROOT
BRANCH   1  11
ATOM      5  C   LIG    1       -2.515   1.226   0.015  0.00  0.00    +0.380 A 
ATOM      6  N   LIG    1       -3.666   1.876   0.029  0.00  0.00    -0.550 NA
ATOM      7  C   LIG    1       -3.721   3.194   0.036  0.00  0.00    +0.200 A 
ATOM      8  C   LIG    1       -2.569   3.959   0.035  0.00  0.00    -0.070 A 
ATOM      9  C   LIG    1       -1.335   3.331   0.026  0.00  0.00    +0.140 A 
ATOM     10  C   LIG    1       -5.064   3.879   0.045  0.00  0.00    +0.140 C 
ATOM     11  C   LIG    1       -1.302   1.932   0.019  0.00  0.00    -0.220 A 
BRANCH   5  12
ATOM     12  O   LIG    1       -2.506  -0.128   0.002  0.00  0.00    -0.270 OA
BRANCH  12  14
ATOM     13  C   LIG    1       -3.564  -2.300  -0.016  0.00  0.00    +0.070 C 
ATOM     14  C   LIG    1       -3.775  -0.785  -0.001  0.00  0.00    +0.200 C 
ENDBRANCH  12  14
ENDBRANCH   5  12
ENDBRANCH   1  11
BRANCH   2  15
ATOM     15  C   LIG    1        2.422   1.186  -0.015  0.00  0.00    +0.270 C 
BRANCH  15  16
ATOM     16  C   LIG    1        3.571   2.196  -0.020  0.00  0.00    +0.000 C 
ATOM     17  C   LIG    1        3.612   2.961   1.321  0.00  0.00    +0.040 C 
ATOM     18  C   LIG    1        5.124   3.140   1.611  0.00  0.00    +0.030 C 
ATOM     19  C   LIG    1        5.732   1.804   1.113  0.00  0.00    +0.060 C 
ATOM     20  C   LIG    1        4.912   1.467  -0.141  0.00  0.00    +0.120 C 
ATOM     21  N   LIG    1        5.623   1.855  -1.360  0.00  0.00    -0.710 N 
ATOM     22  H   LIG    1        5.913   2.748  -1.606  0.00  0.00    +0.440 HD
ATOM     23  C   LIG    1        5.794   0.724  -2.073  0.00  0.00    +0.700 C 
ATOM     24  N   LIG    1        5.278  -0.349  -1.460  0.00  0.00    -0.680 N 
ATOM     25  H   LIG    1        5.305  -1.249  -1.820  0.00  0.00    +0.440 HD
ATOM     26  O   LIG    1        6.354   0.682  -3.151  0.00  0.00    -0.540 OA
ATOM     27  C   LIG    1        4.715  -0.021  -0.277  0.00  0.00    +0.530 C 
ATOM     28  O   LIG    1        4.168  -0.765   0.508  0.00  0.00    -0.450 OA
ENDBRANCH  15  16
ENDBRANCH   2  15
TORSDOF 5
