REMARK  Name = ZINCvU00000004Zh.0
REMARK                            x       y       z     vdW  Elec       q    Type
REMARK                         _______ _______ _______ _____ _____    ______ ____
ROOT
ATOM      1  C   LIG    1        4.497   5.090  -1.401  0.00  0.00    +0.180 A 
ATOM      2  N   LIG    1        5.037   5.414  -0.247  0.00  0.00    -0.290 NA
ATOM      3  N   LIG    1        6.101   6.109  -0.438  0.00  0.00    -0.260 NA
ATOM      4  C   LIG    1        6.301   6.279  -1.724  0.00  0.00    +0.210 A 
ATOM      5  N   LIG    1        5.279   5.632  -2.380  0.00  0.00    -0.450 N 
ENDROOT
BRANCH   4   6
ATOM      6  C   LIG    1        7.413   7.025  -2.350  0.00  0.00    -0.010 A 
ATOM      7  C   LIG    1        8.576   7.287  -1.625  0.00  0.00    +0.090 A 
ATOM      8  C   LIG    1        9.613   7.979  -2.215  0.00  0.00    +0.040 A 
ATOM      9  C   LIG    1        9.496   8.424  -3.521  0.00  0.00    -0.020 A 
ATOM     10  C   LIG    1        8.342   8.173  -4.244  0.00  0.00    +0.040 A 
ATOM     11 CL   LIG    1       10.803   9.300  -4.256  0.00  0.00    -0.060 Cl
ATOM     12  C   LIG    1        7.301   7.477  -3.666  0.00  0.00    +0.030 A 
ENDBRANCH   4   6
BRANCH   1  13
ATOM     13  S   LIG    1        3.032   4.140  -1.639  0.00  0.00    +0.040 S 
BRANCH  13  14
ATOM     14  C   LIG    1        2.594   3.801   0.084  0.00  0.00    +0.160 C 
BRANCH  14  20
ATOM     15  C   LIG    1        1.413   1.587   0.118  0.00  0.00    +0.180 A 
ATOM     16  C   LIG    1        0.255   0.819   0.160  0.00  0.00    -0.080 A 
ATOM     17  C   LIG    1       -0.977   1.433   0.206  0.00  0.00    +0.120 A 
ATOM     18  C   LIG    1       -1.056   2.831   0.224  0.00  0.00    -0.210 A 
ATOM     19  C   LIG    1        0.117   3.595   0.181  0.00  0.00    +0.150 A 
ATOM     20  C   LIG    1        1.333   2.976   0.129  0.00  0.00    -0.130 A 
BRANCH  18  21
ATOM     21  C   LIG    1       -2.365   3.494   0.279  0.00  0.00    +0.400 C 
ATOM     22  O   LIG    1       -2.432   4.705   0.288  0.00  0.00    -0.460 OA
ATOM     23  C   LIG    1       -3.626   2.670   0.325  0.00  0.00    +0.080 C 
ENDBRANCH  18  21
BRANCH  15  25
ATOM     24  C   LIG    1        2.635  -0.449   0.059  0.00  0.00    +0.250 C 
ATOM     25  O   LIG    1        2.625   0.980   0.067  0.00  0.00    -0.300 OA
ENDBRANCH  15  25
ENDBRANCH  14  20
ENDBRANCH  13  14
ENDBRANCH   1  13
BRANCH   5  26
ATOM     26  C   LIG    1        5.073   5.543  -3.828  0.00  0.00    +0.330 C 
BRANCH  26  27
ATOM     27  C   LIG    1        4.171   6.690  -4.287  0.00  0.00    +0.130 C 
ATOM     28  C   LIG    1        4.049   6.679  -5.823  0.00  0.00    +0.020 C 
ATOM     29  C   LIG    1        2.530   6.535  -6.082  0.00  0.00    +0.010 C 
ATOM     30  C   LIG    1        1.924   7.018  -4.740  0.00  0.00    +0.200 C 
ATOM     31  O   LIG    1        2.848   6.514  -3.752  0.00  0.00    -0.350 OA
ENDBRANCH  26  27
ENDBRANCH   5  26
TORSDOF 8
