REMARK  Name = ZINCrH000004vDPW.0
REMARK                            x       y       z     vdW  Elec       q    Type
REMARK                         _______ _______ _______ _____ _____    ______ ____
ROOT
ATOM      1  O   LIG    1       -1.987   5.673   7.106  0.00  0.00    -0.520 OA
ATOM      2  C   LIG    1       -1.037   4.915   7.123  0.00  0.00    +0.560 C 
ATOM      3  N   LIG    1       -0.541   4.482   8.299  0.00  0.00    -0.600 N 
ATOM      4  C   LIG    1        0.659   3.622   8.287  0.00  0.00    +0.260 C 
ATOM      5  C   LIG    1        0.548   2.458   9.287  0.00  0.00    +0.060 C 
ATOM      6  C   LIG    1       -0.848   1.886   9.265  0.00  0.00    +0.070 C 
ATOM      7  C   LIG    1       -1.698   2.586  10.321  0.00  0.00    +0.120 C 
ATOM      8  C   LIG    1       -2.305   3.848   9.871  0.00  0.00    +0.010 C 
ATOM      9  C   LIG    1       -1.202   4.884   9.520  0.00  0.00    +0.320 C 
ENDROOT
BRANCH   2  10
ATOM     10  C   LIG    1       -0.425   4.467   5.850  0.00  0.00    -0.050 A 
ATOM     11  C   LIG    1        0.963   4.493   5.672  0.00  0.00    -0.040 A 
ATOM     12  C   LIG    1        1.494   4.067   4.472  0.00  0.00    +0.310 A 
ATOM     13  N   LIG    1        0.715   3.639   3.498  0.00  0.00    -0.530 NA
ATOM     14  C   LIG    1       -0.601   3.597   3.622  0.00  0.00    +0.330 A 
ATOM     15  C   LIG    1       -1.218   4.013   4.794  0.00  0.00    +0.010 A 
BRANCH  14  16
ATOM     16  O   LIG    1       -1.358   3.148   2.589  0.00  0.00    -0.300 OA
BRANCH  16  17
ATOM     17  C   LIG    1       -0.666   2.740   1.407  0.00  0.00    +0.180 C 
ATOM     18  C   LIG    1       -0.327   1.250   1.503  0.00  0.00    +0.010 C 
ATOM     19  C   LIG    1        0.413   0.813   0.238  0.00  0.00    +0.020 C 
ATOM     20  C   LIG    1       -0.475   1.057  -0.984  0.00  0.00    +0.010 C 
ATOM     21  C   LIG    1       -0.814   2.546  -1.079  0.00  0.00    +0.020 C 
ATOM     22  C   LIG    1       -1.554   2.983   0.186  0.00  0.00    +0.020 C 
ENDBRANCH  16  17
ENDBRANCH  14  16
ENDBRANCH   2  10
BRANCH   7  23
ATOM     23  C   LIG    1       -2.818   1.636  10.750  0.00  0.00    +0.420 C 
ATOM     24  F   LIG    1       -3.606   1.313   9.640  0.00  0.00    -0.180 F 
ATOM     25  F   LIG    1       -3.611   2.259  11.720  0.00  0.00    -0.180 F 
ATOM     26  F   LIG    1       -2.261   0.468  11.282  0.00  0.00    -0.170 F 
ENDBRANCH   7  23
BRANCH   7  27
ATOM     27  O   LIG    1       -0.875   2.858  11.458  0.00  0.00    -0.530 OA
ATOM     28  H   LIG    1       -1.338   3.304  12.180  0.00  0.00    +0.390 HD
ENDBRANCH   7  27
TORSDOF 5
