REMARK  Name = ZINCAx0000000hEq.0
REMARK                            x       y       z     vdW  Elec       q    Type
REMARK                         _______ _______ _______ _____ _____    ______ ____
ROOT
ATOM      1  N   LIG    1       -0.708   7.727   0.866  0.00  0.00    -0.540 NA
ATOM      2  C   LIG    1       -1.452   7.158  -0.267  0.00  0.00    +0.190 C 
ATOM      3  C   LIG    1       -1.465   5.632  -0.150  0.00  0.00    +0.230 C 
ATOM      4  N   LIG    1       -0.083   5.133  -0.128  0.00  0.00    -0.460 N 
ATOM      5  C   LIG    1        0.661   5.702   1.005  0.00  0.00    +0.220 C 
ATOM      6  C   LIG    1        0.674   7.228   0.888  0.00  0.00    +0.190 C 
ENDROOT
BRANCH   4   7
ATOM      7  C   LIG    1       -0.055   3.750  -0.095  0.00  0.00    +0.530 A 
ATOM      8  N   LIG    1       -1.198   3.081  -0.087  0.00  0.00    -0.570 NA
ATOM      9  C   LIG    1       -1.211   1.756  -0.061  0.00  0.00    +0.380 A 
ATOM     10  C   LIG    1       -0.012   1.070  -0.029  0.00  0.00    -0.110 A 
ATOM     11  C   LIG    1        1.175   1.802  -0.038  0.00  0.00    +0.380 A 
ATOM     12  N   LIG    1        1.114   3.127  -0.071  0.00  0.00    -0.570 NA
BRANCH  11  13
ATOM     13  O   LIG    1        2.372   1.169  -0.015  0.00  0.00    -0.240 OA
BRANCH  13  14
ATOM     14  C   LIG    1        3.496   1.925  -0.126  0.00  0.00    +0.080 A 
ATOM     15  C   LIG    1        4.189   1.967  -1.327  0.00  0.00    +0.060 A 
ATOM     16  C   LIG    1        5.328   2.740  -1.440  0.00  0.00    +0.010 A 
ATOM     17  C   LIG    1        5.785   3.465  -0.352  0.00  0.00    +0.110 A 
ATOM     18  C   LIG    1        5.097   3.420   0.849  0.00  0.00    +0.000 A 
ATOM     19  F   LIG    1        6.902   4.216  -0.463  0.00  0.00    -0.130 F 
ATOM     20  C   LIG    1        3.955   2.652   0.963  0.00  0.00    +0.060 A 
ENDBRANCH  13  14
ENDBRANCH  11  13
ENDBRANCH   4   7
BRANCH   1  21
ATOM     21  C   LIG    1       -0.738   9.195   0.831  0.00  0.00    +0.180 C 
BRANCH  21  22
ATOM     22  C   LIG    1        0.242   9.750   1.867  0.00  0.00    +0.010 C 
BRANCH  22  23
ATOM     23  C   LIG    1        0.211  11.279   1.830  0.00  0.00    +0.260 C 
BRANCH  23  26
ATOM     24  O   LIG    1        0.642  13.903   2.279  0.00  0.00    -0.540 OA
ATOM     25  C   LIG    1        1.292  13.142   2.969  0.00  0.00    +0.570 C 
ATOM     26  N   LIG    1        1.150  11.810   2.822  0.00  0.00    -0.730 N 
ATOM     27  H   LIG    1        1.669  11.203   3.372  0.00  0.00    +0.400 HD
BRANCH  25  28
ATOM     28  C   LIG    1        2.237  13.677   3.967  0.00  0.00    -0.200 A 
ATOM     29  C   LIG    1        2.982  12.803   4.766  0.00  0.00    +0.090 A 
ATOM     30  C   LIG    1        3.865  13.305   5.693  0.00  0.00    -0.080 A 
ATOM     31  C   LIG    1        4.012  14.682   5.844  0.00  0.00    +0.250 A 
ATOM     32  C   LIG    1        3.268  15.554   5.054  0.00  0.00    -0.080 A 
ATOM     33  C   LIG    1        2.386  15.058   4.121  0.00  0.00    +0.130 A 
BRANCH  31  34
ATOM     34  N   LIG    1        4.901  15.186   6.787  0.00  0.00    -0.730 N 
ATOM     35  H   LIG    1        5.004  16.145   6.893  0.00  0.00    +0.410 HD
BRANCH  34  36
ATOM     36  C   LIG    1        5.684  14.269   7.619  0.00  0.00    +0.270 C 
BRANCH  36  37
ATOM     37  C   LIG    1        6.577  15.075   8.564  0.00  0.00    +0.170 C 
BRANCH  37  38
ATOM     38  O   LIG    1        5.762  15.812   9.477  0.00  0.00    -0.570 OA
ATOM     39  H   LIG    1        6.263  16.347  10.108  0.00  0.00    +0.380 HD
ENDBRANCH  37  38
ENDBRANCH  36  37
ENDBRANCH  34  36
ENDBRANCH  31  34
ENDBRANCH  25  28
ENDBRANCH  23  26
ENDBRANCH  22  23
ENDBRANCH  21  22
ENDBRANCH   1  21
TORSDOF 12
