REMARK  Name = ZINCrH000004ncQY.0
REMARK                            x       y       z     vdW  Elec       q    Type
REMARK                         _______ _______ _______ _____ _____    ______ ____
ROOT
ATOM      1  C   LIG    1        1.377  -4.832  -2.636  0.00  0.00    +0.520 C 
ATOM      2  N   LIG    1        1.287  -4.164  -1.469  0.00  0.00    -0.720 N 
ATOM      3  H   LIG    1        1.222  -4.653  -0.633  0.00  0.00    +0.400 HD
ATOM      4  O   LIG    1        1.458  -4.220  -3.680  0.00  0.00    -0.530 OA
ENDROOT
BRANCH   1  11
ATOM      5  C   LIG    1       -1.858  -7.108  -0.681  0.00  0.00    +0.130 A 
ATOM      6  C   LIG    1       -2.312  -8.149  -1.478  0.00  0.00    -0.070 A 
ATOM      7  C   LIG    1       -1.577  -8.543  -2.583  0.00  0.00    +0.060 A 
ATOM      8  C   LIG    1       -0.388  -7.904  -2.893  0.00  0.00    -0.120 A 
ATOM      9  C   LIG    1        0.588  -8.144  -4.025  0.00  0.00    +0.080 C 
ATOM     10  C   LIG    1        1.452  -6.867  -4.091  0.00  0.00    +0.070 C 
ATOM     11  C   LIG    1        1.375  -6.339  -2.643  0.00  0.00    +0.050 C 
ATOM     12  C   LIG    1        0.066  -6.866  -2.096  0.00  0.00    -0.060 A 
ATOM     13  C   LIG    1       -0.668  -6.468  -0.993  0.00  0.00    -0.010 A 
BRANCH   5  15
ATOM     14  C   LIG    1       -3.794  -7.420   0.663  0.00  0.00    +0.250 C 
ATOM     15  O   LIG    1       -2.579  -6.716   0.403  0.00  0.00    -0.310 OA
ENDBRANCH   5  15
ENDBRANCH   1  11
BRANCH   2  16
ATOM     16  C   LIG    1        1.288  -2.699  -1.461  0.00  0.00    +0.240 C 
BRANCH  16  17
ATOM     17  C   LIG    1        1.177  -2.196  -0.021  0.00  0.00    +0.260 C 
BRANCH  17  18
ATOM     18  C   LIG    1        1.178  -0.689  -0.013  0.00  0.00    -0.110 A 
ATOM     19  C   LIG    1        0.002  -0.004   0.002  0.00  0.00    +0.020 A 
ATOM     20  C   LIG    1       -0.017   1.390   0.010  0.00  0.00    +0.020 A 
ATOM     21  C   LIG    1        1.140   2.106   0.003  0.00  0.00    +0.030 A 
ATOM     22  C   LIG    1        2.374   1.434  -0.013  0.00  0.00    -0.050 A 
ATOM     23  C   LIG    1        3.589   2.139  -0.021  0.00  0.00    +0.030 A 
ATOM     24  C   LIG    1        4.766   1.455  -0.037  0.00  0.00    +0.010 A 
ATOM     25  C   LIG    1        4.785   0.061  -0.045  0.00  0.00    +0.020 A 
ATOM     26  C   LIG    1        3.627  -0.655  -0.037  0.00  0.00    +0.010 A 
ATOM     27  C   LIG    1        2.393   0.017  -0.021  0.00  0.00    -0.040 A 
ENDBRANCH  17  18
BRANCH  17  28
ATOM     28  O   LIG    1       -0.039  -2.674   0.558  0.00  0.00    -0.550 OA
ATOM     29  H   LIG    1       -0.836  -2.386   0.093  0.00  0.00    +0.380 HD
ENDBRANCH  17  28
ENDBRANCH  16  17
ENDBRANCH   2  16
TORSDOF 6
