REMARK  Name = ZINCqH0000008e48.0
REMARK                            x       y       z     vdW  Elec       q    Type
REMARK                         _______ _______ _______ _____ _____    ______ ____
ROOT
ATOM      1  N   LIG    1       -1.280   1.911  -0.814  0.00  0.00    -0.720 N 
ATOM      2  H   LIG    1       -1.319   2.876  -0.904  0.00  0.00    +0.400 HD
ATOM      3  C   LIG    1       -1.837   1.123  -1.755  0.00  0.00    +0.520 C 
ATOM      4  O   LIG    1       -1.788  -0.083  -1.642  0.00  0.00    -0.530 OA
ENDROOT
BRANCH   3   5
ATOM      5  C   LIG    1       -2.518   1.741  -2.949  0.00  0.00    -0.020 C 
ATOM      6  C   LIG    1       -3.060   0.635  -3.857  0.00  0.00    +0.060 C 
ATOM      7  C   LIG    1       -3.781   1.262  -5.053  0.00  0.00    +0.030 C 
ATOM      8  C   LIG    1       -2.788   2.106  -5.858  0.00  0.00    +0.260 C 
ATOM      9  N   LIG    1       -2.155   3.079  -4.957  0.00  0.00    -0.610 N 
ATOM     10  C   LIG    1       -2.164   4.394  -5.251  0.00  0.00    +0.600 C 
ATOM     11  O   LIG    1       -1.740   5.201  -4.444  0.00  0.00    -0.520 OA
ATOM     12  C   LIG    1       -1.511   2.591  -3.730  0.00  0.00    +0.310 C 
BRANCH  10  13
ATOM     13  C   LIG    1       -2.685   4.853  -6.542  0.00  0.00    -0.270 A 
ATOM     14  C   LIG    1       -3.306   6.050  -6.766  0.00  0.00    +0.100 A 
ATOM     15  C   LIG    1       -3.692   6.225  -8.074  0.00  0.00    +0.000 A 
ATOM     16  C   LIG    1       -3.408   5.205  -8.891  0.00  0.00    -0.070 A 
ATOM     17  S   LIG    1       -2.619   3.949  -8.048  0.00  0.00    +0.220 S 
ENDBRANCH  10  13
ENDBRANCH   3   5
BRANCH   1  19
ATOM     18  C   LIG    1        0.830   0.969  -0.013  0.00  0.00    +0.030 C 
ATOM     19  C   LIG    1       -0.618   1.310   0.346  0.00  0.00    +0.230 C 
BRANCH  19  20
ATOM     20  C   LIG    1       -0.633   2.301   1.512  0.00  0.00    +0.030 C 
BRANCH  20  21
ATOM     21  C   LIG    1       -2.078   2.547   1.953  0.00  0.00    +0.060 C 
BRANCH  21  22
ATOM     22  C   LIG    1       -2.093   3.523   3.102  0.00  0.00    -0.080 A 
ATOM     23  C   LIG    1       -2.024   3.060   4.403  0.00  0.00    +0.000 A 
ATOM     24  C   LIG    1       -2.033   3.956   5.456  0.00  0.00    +0.000 A 
ATOM     25  C   LIG    1       -2.121   5.313   5.208  0.00  0.00    +0.000 A 
ATOM     26  C   LIG    1       -2.195   5.775   3.908  0.00  0.00    +0.000 A 
ATOM     27  C   LIG    1       -2.181   4.880   2.854  0.00  0.00    +0.000 A 
ENDBRANCH  21  22
ENDBRANCH  20  21
ENDBRANCH  19  20
ENDBRANCH   1  19
TORSDOF 6
