REMARK  Name = ZINCkj000005jeIa.0
REMARK                            x       y       z     vdW  Elec       q    Type
REMARK                         _______ _______ _______ _____ _____    ______ ____
ROOT
ATOM      1  N   LIG    1       -1.813   2.292   0.280  0.00  0.00    -1.000 NA
ATOM      2  C   LIG    1       -0.351   2.397   0.261  0.00  0.00    +0.230 C 
ATOM      3  C   LIG    1        0.142   2.367   1.716  0.00  0.00    +0.030 C 
ATOM      4  C   LIG    1       -1.109   2.665   2.570  0.00  0.00    +0.020 C 
ATOM      5  C   LIG    1       -1.125   1.676   3.756  0.00  0.00    +0.040 C 
ATOM      6  C   LIG    1       -1.715   0.372   3.187  0.00  0.00    +0.020 C 
ATOM      7  C   LIG    1       -2.663   0.799   2.055  0.00  0.00    +0.020 C 
ATOM      8  C   LIG    1       -2.283   2.229   1.663  0.00  0.00    +0.240 C 
ENDROOT
BRANCH   1   9
ATOM      9  S   LIG    1       -2.784   2.251  -1.061  0.00  0.00    +2.790 S 
ATOM     10  O   LIG    1       -4.046   1.761  -0.627  0.00  0.00    -0.940 OA
ATOM     11  O   LIG    1       -2.023   1.633  -2.089  0.00  0.00    -0.980 OA
BRANCH   9  18
ATOM     12  C   LIG    1       -4.902   3.770   0.044  0.00  0.00    +0.050 C 
ATOM     13  C   LIG    1       -4.073   4.637  -0.906  0.00  0.00    +0.230 C 
ATOM     14  C   LIG    1       -4.979   5.213  -1.993  0.00  0.00    +0.020 C 
ATOM     15  C   LIG    1       -4.127   5.961  -3.021  0.00  0.00    +0.020 C 
ATOM     16  C   LIG    1       -3.143   4.989  -3.675  0.00  0.00    +0.020 C 
ATOM     17  C   LIG    1       -2.212   4.413  -2.603  0.00  0.00    +0.280 C 
ATOM     18  N   LIG    1       -3.030   3.818  -1.537  0.00  0.00    -1.000 NA
ENDBRANCH   9  18
ENDBRANCH   1   9
BRANCH   2  19
ATOM     19  C   LIG    1        0.243   1.217  -0.511  0.00  0.00    +0.250 C 
BRANCH  19  20
ATOM     20  N   LIG    1        1.707   1.332  -0.531  0.00  0.00    -0.630 N 
ATOM     21  H   LIG    1        2.065   1.240   0.408  0.00  0.00    +0.430 HD
ATOM     22  H   LIG    1        1.968   2.232  -0.904  0.00  0.00    +0.440 HD
ATOM     23  H   LIG    1        2.094   0.602  -1.111  0.00  0.00    +0.440 HD
ENDBRANCH  19  20
ENDBRANCH   2  19
TORSDOF 4
