REMARK  Name = ZINCpe000000UtL0.0
REMARK                            x       y       z     vdW  Elec       q    Type
REMARK                         _______ _______ _______ _____ _____    ______ ____
ROOT
ATOM      1  N   LIG    1        3.244  -5.993   2.703  0.00  0.00    -0.540 NA
ATOM      2  C   LIG    1        1.937  -6.595   2.407  0.00  0.00    +0.180 C 
ATOM      3  C   LIG    1        1.466  -6.132   1.026  0.00  0.00    +0.190 C 
ATOM      4  N   LIG    1        1.384  -4.665   1.006  0.00  0.00    -0.540 NA
ATOM      5  C   LIG    1        2.692  -4.063   1.302  0.00  0.00    +0.180 C 
ATOM      6  C   LIG    1        3.162  -4.526   2.683  0.00  0.00    +0.180 C 
ENDROOT
BRANCH   1   7
ATOM      7  C   LIG    1        3.766  -6.474   3.989  0.00  0.00    +0.190 C 
BRANCH   7   8
ATOM      8  C   LIG    1        5.221  -6.029   4.148  0.00  0.00    +0.060 C 
BRANCH   8   9
ATOM      9  C   LIG    1        5.764  -6.530   5.488  0.00  0.00    -0.370 C 
BRANCH   9  10
ATOM     10  S   LIG    1        7.490  -6.003   5.676  0.00  0.00    +2.610 S 
ATOM     11  O   LIG    1        7.566  -4.593   5.833  0.00  0.00    -0.950 OA
ATOM     12  O   LIG    1        8.323  -6.682   4.746  0.00  0.00    -0.950 OA
BRANCH  10  14
ATOM     13  C   LIG    1        8.538  -7.941   7.244  0.00  0.00    +0.290 C 
ATOM     14  N   LIG    1        7.947  -6.604   7.149  0.00  0.00    -1.010 NA
ATOM     15  C   LIG    1        7.762  -5.798   8.359  0.00  0.00    +0.300 C 
ENDBRANCH  10  14
ENDBRANCH   9  10
ENDBRANCH   8   9
ENDBRANCH   7   8
ENDBRANCH   1   7
BRANCH   4  16
ATOM     16  C   LIG    1        0.862  -4.184  -0.280  0.00  0.00    +0.240 C 
BRANCH  16  17
ATOM     17  C   LIG    1        0.561  -2.711  -0.181  0.00  0.00    -0.070 A 
ATOM     18  C   LIG    1       -0.691  -2.288   0.222  0.00  0.00    +0.050 A 
ATOM     19  C   LIG    1       -0.972  -0.938   0.314  0.00  0.00    +0.040 A 
ATOM     20  C   LIG    1        0.002  -0.004   0.002  0.00  0.00    +0.030 A 
ATOM     21  O   LIG    1       -0.016   1.361   0.009  0.00  0.00    -0.310 OA
ATOM     22  C   LIG    1        1.366   1.764  -0.002  0.00  0.00    +0.430 C 
ATOM     23  O   LIG    1        2.037   0.668  -0.651  0.00  0.00    -0.310 OA
ATOM     24  C   LIG    1        1.265  -0.430  -0.404  0.00  0.00    +0.030 A 
ATOM     25  C   LIG    1        1.539  -1.784  -0.494  0.00  0.00    +0.030 A 
ENDBRANCH  16  17
ENDBRANCH   4  16
TORSDOF 7
