REMARK  Name = ZINCqH0000007zUx.0
REMARK                            x       y       z     vdW  Elec       q    Type
REMARK                         _______ _______ _______ _____ _____    ______ ____
ROOT
ATOM      1  C   LIG    1       -2.489   0.965   0.019  0.00  0.00    +0.280 C 
ENDROOT
BRANCH   1   7
ATOM      2  C   LIG    1        3.546   3.269  -0.015  0.00  0.00    +0.140 A 
ATOM      3  C   LIG    1        2.356   3.939  -0.000  0.00  0.00    -0.020 A 
ATOM      4  C   LIG    1        1.153   3.215   0.008  0.00  0.00    -0.000 A 
ATOM      5  C   LIG    1       -0.091   3.870   0.023  0.00  0.00    +0.020 A 
ATOM      6  C   LIG    1       -1.238   3.136   0.030  0.00  0.00    +0.050 A 
ATOM      7  C   LIG    1       -1.199   1.744   0.017  0.00  0.00    -0.110 A 
ATOM      8  C   LIG    1       -0.013   1.076   0.008  0.00  0.00    +0.070 A 
ATOM      9  C   LIG    1        1.192   1.798   0.000  0.00  0.00    -0.090 A 
ATOM     10  C   LIG    1        2.436   1.142  -0.016  0.00  0.00    +0.070 A 
ATOM     11  C   LIG    1        3.583   1.871  -0.023  0.00  0.00    -0.060 A 
BRANCH   2  13
ATOM     12  C   LIG    1        5.923   3.215  -0.039  0.00  0.00    +0.240 C 
ATOM     13  O   LIG    1        4.710   3.971  -0.024  0.00  0.00    -0.320 OA
ENDBRANCH   2  13
ENDBRANCH   1   7
BRANCH   1  14
ATOM     14  O   LIG    1       -2.897   0.708   1.389  0.00  0.00    -0.340 OA
BRANCH  14  15
ATOM     15  C   LIG    1       -4.035   0.019   1.567  0.00  0.00    +0.470 C 
ATOM     16  O   LIG    1       -4.670  -0.356   0.610  0.00  0.00    -0.470 OA
BRANCH  15  17
ATOM     17  C   LIG    1       -4.521  -0.285   2.961  0.00  0.00    +0.190 C 
ATOM     18  C   LIG    1       -3.543  -1.244   3.652  0.00  0.00    +0.270 C 
ATOM     19  O   LIG    1       -4.041  -1.522   4.965  0.00  0.00    -0.300 OA
ATOM     20  C   LIG    1       -5.363  -1.827   5.066  0.00  0.00    +0.050 A 
ATOM     21  C   LIG    1       -5.834  -2.446   6.214  0.00  0.00    +0.030 A 
ATOM     22  C   LIG    1       -7.175  -2.759   6.333  0.00  0.00    +0.030 A 
ATOM     23  C   LIG    1       -8.051  -2.455   5.308  0.00  0.00    +0.030 A 
ATOM     24  C   LIG    1       -7.588  -1.840   4.160  0.00  0.00    +0.030 A 
ATOM     25  C   LIG    1       -6.244  -1.524   4.034  0.00  0.00    +0.050 A 
ATOM     26  O   LIG    1       -5.803  -0.921   2.897  0.00  0.00    -0.280 OA
ENDBRANCH  15  17
ENDBRANCH  14  15
ENDBRANCH   1  14
TORSDOF 5
