REMARK  Name = ZINCqH00000030n7.1
REMARK                            x       y       z     vdW  Elec       q    Type
REMARK                         _______ _______ _______ _____ _____    ______ ____
ROOT
ATOM      1  C   LIG    1       -2.408  -1.916  -0.762  0.00  0.00    -0.190 A 
ATOM      2  C   LIG    1       -2.140  -0.592  -1.118  0.00  0.00    +0.150 A 
ATOM      3  C   LIG    1       -0.877  -0.074  -0.937  0.00  0.00    -0.080 A 
ATOM      4  C   LIG    1        0.131  -0.868  -0.403  0.00  0.00    +0.250 A 
ATOM      5  C   LIG    1       -0.130  -2.188  -0.053  0.00  0.00    -0.720 A 
ATOM      6  C   LIG    1       -1.392  -2.711  -0.225  0.00  0.00    +0.230 A 
ENDROOT
BRANCH   1   8
ATOM      7  N   LIG    1       -4.845  -1.697  -0.760  0.00  0.00    -0.610 N 
ATOM      8  C   LIG    1       -3.761  -2.475  -0.954  0.00  0.00    +0.560 C 
ATOM      9  O   LIG    1       -3.898  -3.636  -1.286  0.00  0.00    -0.520 OA
BRANCH   7  11
ATOM     10  C   LIG    1       -6.596  -2.759   0.577  0.00  0.00    +0.020 C 
ATOM     11  C   LIG    1       -6.186  -2.283  -0.818  0.00  0.00    +0.280 C 
ENDBRANCH   7  11
BRANCH   7  12
ATOM     12  C   LIG    1       -4.681  -0.266  -0.492  0.00  0.00    +0.250 C 
ATOM     13  C   LIG    1       -4.887   0.522  -1.787  0.00  0.00    +0.020 C 
ENDBRANCH   7  12
ENDBRANCH   1   8
BRANCH   5  14
ATOM     14  S   LIG    1        1.154  -3.191   0.618  0.00  0.00    +2.700 S 
ATOM     15  O   LIG    1        0.588  -4.476   0.835  0.00  0.00    -0.940 OA
ATOM     16  O   LIG    1        1.763  -2.426   1.650  0.00  0.00    -0.930 OA
BRANCH  14  17
ATOM     17  N   LIG    1        2.299  -3.377  -0.564  0.00  0.00    -1.050 N 
ATOM     18  H   LIG    1        3.200  -3.045  -0.423  0.00  0.00    +0.430 HD
BRANCH  17  19
ATOM     19  C   LIG    1        1.968  -4.012  -1.763  0.00  0.00    +0.160 A 
ATOM     20  C   LIG    1        1.256  -5.204  -1.746  0.00  0.00    +0.030 A 
ATOM     21  C   LIG    1        0.925  -5.827  -2.933  0.00  0.00    +0.080 A 
ATOM     22  C   LIG    1        1.312  -5.270  -4.139  0.00  0.00    -0.100 A 
ATOM     23  C   LIG    1        2.026  -4.085  -4.160  0.00  0.00    +0.070 A 
ATOM     24 BR   LIG    1        0.864  -6.129  -5.763  0.00  0.00    -0.050 Br
ATOM     25  C   LIG    1        2.355  -3.455  -2.975  0.00  0.00    +0.020 A 
ENDBRANCH  17  19
ENDBRANCH  14  17
ENDBRANCH   5  14
BRANCH   4  26
ATOM     26  O   LIG    1        1.375  -0.355  -0.227  0.00  0.00    -0.310 OA
ATOM     27  C   LIG    1        1.547   1.037  -0.501  0.00  0.00    +0.270 C 
ENDBRANCH   4  26
TORSDOF 7
