REMARK  Name = ZINCpe00000RajVI.0
REMARK                            x       y       z     vdW  Elec       q    Type
REMARK                         _______ _______ _______ _____ _____    ______ ____
ROOT
ATOM      1  C   LIG    1       -0.662   3.080   1.286  0.00  0.00    +0.230 C 
ATOM      2  C   LIG    1       -0.723   1.552   1.244  0.00  0.00    +0.010 C 
ATOM      3  C   LIG    1       -0.052   1.048  -0.036  0.00  0.00    +0.020 C 
ATOM      4  C   LIG    1       -0.805   1.597  -1.252  0.00  0.00    +0.290 C 
ATOM      5  N   LIG    1       -0.877   3.060  -1.144  0.00  0.00    -0.570 N 
ATOM      6  C   LIG    1       -1.422   3.652   0.085  0.00  0.00    +0.300 C 
ENDROOT
BRANCH   5   7
ATOM      7  C   LIG    1       -0.437   3.869  -2.184  0.00  0.00    +0.350 A 
ATOM      8  N   LIG    1        0.180   3.345  -3.221  0.00  0.00    -0.500 NA
ATOM      9  C   LIG    1        0.605   4.115  -4.222  0.00  0.00    +0.190 A 
ATOM     10  C   LIG    1        0.420   5.453  -4.216  0.00  0.00    +0.170 A 
ATOM     11  N   LIG    1       -0.212   6.067  -3.176  0.00  0.00    -0.590 N 
ATOM     12  H   LIG    1       -0.341   7.029  -3.179  0.00  0.00    +0.420 HD
ATOM     13  C   LIG    1       -0.661   5.319  -2.144  0.00  0.00    +0.490 A 
ATOM     14  O   LIG    1       -1.235   5.836  -1.201  0.00  0.00    -0.530 OA
ENDBRANCH   5   7
BRANCH   1  17
ATOM     15  O   LIG    1        0.646   3.386   3.628  0.00  0.00    -0.550 OA
ATOM     16  C   LIG    1       -0.547   3.631   3.657  0.00  0.00    +0.610 C 
ATOM     17  N   LIG    1       -1.277   3.560   2.527  0.00  0.00    -0.710 N 
ATOM     18  H   LIG    1       -2.210   3.826   2.534  0.00  0.00    +0.400 HD
BRANCH  16  19
ATOM     19  C   LIG    1       -1.167   3.993   4.880  0.00  0.00    -0.150 A 
ATOM     20  C   LIG    1       -2.519   4.202   5.095  0.00  0.00    +0.300 A 
ATOM     21  N   LIG    1       -2.692   4.518   6.368  0.00  0.00    -0.490 NA
ATOM     22  C   LIG    1       -1.516   4.535   6.993  0.00  0.00    +0.250 A 
ATOM     23  C   LIG    1       -1.166   4.813   8.327  0.00  0.00    +0.070 A 
ATOM     24  C   LIG    1        0.143   4.755   8.701  0.00  0.00    +0.070 A 
ATOM     25  C   LIG    1        1.120   4.420   7.753  0.00  0.00    +0.020 A 
ATOM     26  C   LIG    1        0.764   4.155   6.475  0.00  0.00    +0.250 A 
ATOM     27  N   LIG    1       -0.540   4.211   6.094  0.00  0.00    -0.320 N 
ENDBRANCH  16  19
ENDBRANCH   1  17
TORSDOF 3
