REMARK  Name = ZINCpk00000xIj5T.0
REMARK                            x       y       z     vdW  Elec       q    Type
REMARK                         _______ _______ _______ _____ _____    ______ ____
ROOT
ATOM      1  O   LIG    1       -0.875   5.343   1.715  0.00  0.00    -0.540 OA
ATOM      2  C   LIG    1       -0.817   4.161   1.980  0.00  0.00    +0.550 C 
ATOM      3  N   LIG    1       -1.212   3.247   1.073  0.00  0.00    -0.610 N 
ATOM      4  C   LIG    1       -1.144   1.811   1.383  0.00  0.00    +0.270 C 
ATOM      5  C   LIG    1       -0.320   1.114   0.292  0.00  0.00    +0.280 C 
ATOM      6  N   LIG    1       -0.824   1.534  -1.023  0.00  0.00    -0.610 N 
ATOM      7  C   LIG    1       -0.889   2.970  -1.330  0.00  0.00    +0.270 C 
ATOM      8  C   LIG    1       -1.219   0.620  -1.930  0.00  0.00    +0.520 C 
ATOM      9  O   LIG    1       -1.160  -0.562  -1.665  0.00  0.00    -0.520 OA
ATOM     10  C   LIG    1       -1.716   3.667  -0.242  0.00  0.00    +0.290 C 
ENDROOT
BRANCH   8  11
ATOM     11  C   LIG    1       -1.733   1.066  -3.275  0.00  0.00    +0.220 C 
ATOM     12  C   LIG    1       -0.548   1.393  -4.208  0.00  0.00    +0.070 C 
ATOM     13  C   LIG    1       -0.388   0.090  -5.035  0.00  0.00    +0.050 C 
ATOM     14  C   LIG    1       -1.861  -0.365  -5.188  0.00  0.00    +0.260 C 
ATOM     15  N   LIG    1       -2.497  -0.021  -3.904  0.00  0.00    -0.600 N 
ATOM     16  C   LIG    1       -3.597  -0.607  -3.390  0.00  0.00    +0.610 C 
ATOM     17  O   LIG    1       -3.978  -0.312  -2.273  0.00  0.00    -0.520 OA
BRANCH  16  18
ATOM     18  C   LIG    1       -4.335  -1.599  -4.179  0.00  0.00    -0.270 A 
ATOM     19  C   LIG    1       -5.386  -2.346  -3.728  0.00  0.00    +0.100 A 
ATOM     20  C   LIG    1       -5.895  -3.198  -4.680  0.00  0.00    +0.000 A 
ATOM     21  C   LIG    1       -5.277  -3.158  -5.866  0.00  0.00    -0.070 A 
ATOM     22  S   LIG    1       -4.004  -2.022  -5.853  0.00  0.00    +0.210 S 
ENDBRANCH  16  18
ENDBRANCH   8  11
BRANCH   2  23
ATOM     23  C   LIG    1       -0.303   3.715   3.325  0.00  0.00    -0.070 C 
ATOM     24  C   LIG    1       -1.167   4.022   4.549  0.00  0.00    +0.060 C 
ATOM     25  C   LIG    1        0.129   4.801   4.312  0.00  0.00    +0.070 C 
ENDBRANCH   2  23
TORSDOF 3
