REMARK  Name = ZINCpe00000xXmA2.0
REMARK                            x       y       z     vdW  Elec       q    Type
REMARK                         _______ _______ _______ _____ _____    ______ ____
ROOT
ATOM      1  O   LIG    1        1.765  -1.749   3.545  0.00  0.00    -0.300 OA
ENDROOT
BRANCH   1   4
ATOM      2  C   LIG    1        3.424  -4.169   5.696  0.00  0.00    +0.140 A 
ATOM      3  C   LIG    1        3.025  -3.518   4.547  0.00  0.00    -0.050 A 
ATOM      4  C   LIG    1        2.176  -2.419   4.652  0.00  0.00    +0.170 A 
ATOM      5  C   LIG    1        1.755  -2.028   5.920  0.00  0.00    -0.120 A 
ATOM      6  C   LIG    1        2.195  -2.736   7.020  0.00  0.00    +0.300 A 
ATOM      7  N   LIG    1        3.004  -3.769   6.881  0.00  0.00    -0.490 NA
BRANCH   2   8
ATOM      8  C   LIG    1        4.347  -5.357   5.596  0.00  0.00    +0.350 C 
BRANCH   8  11
ATOM      9  C   LIG    1        8.160  -5.361   5.935  0.00  0.00    +0.110 C 
ATOM     10  C   LIG    1        6.736  -5.814   5.739  0.00  0.00    +0.510 C 
ATOM     11  N   LIG    1        5.731  -4.917   5.787  0.00  0.00    -0.720 N 
ATOM     12  H   LIG    1        5.925  -3.980   5.948  0.00  0.00    +0.400 HD
ATOM     13  O   LIG    1        6.495  -6.985   5.537  0.00  0.00    -0.540 OA
ENDBRANCH   8  11
ENDBRANCH   2   8
ENDBRANCH   1   4
BRANCH   1  14
ATOM     14  C   LIG    1        0.890  -0.638   3.747  0.00  0.00    +0.180 C 
ATOM     15  C   LIG    1        1.696   0.673   3.896  0.00  0.00    +0.010 C 
ATOM     16  C   LIG    1        0.885   1.733   3.128  0.00  0.00    +0.170 C 
ATOM     17  N   LIG    1       -0.323   1.060   2.604  0.00  0.00    -0.510 NA
ATOM     18  C   LIG    1        0.034  -0.377   2.482  0.00  0.00    +0.200 C 
BRANCH  17  19
ATOM     19  C   LIG    1       -0.715   1.618   1.303  0.00  0.00    +0.180 C 
BRANCH  19  20
ATOM     20  C   LIG    1       -1.157   3.071   1.483  0.00  0.00    +0.020 C 
ATOM     21  C   LIG    1       -2.422   3.117   2.341  0.00  0.00    +0.040 C 
BRANCH  20  22
ATOM     22  C   LIG    1       -1.447   3.689   0.114  0.00  0.00    -0.340 C 
BRANCH  22  23
ATOM     23  S   LIG    1       -1.827   5.452   0.315  0.00  0.00    +2.420 S 
ATOM     24  O   LIG    1       -0.663   6.115   0.787  0.00  0.00    -0.940 OA
ATOM     25  O   LIG    1       -3.040   5.573   1.046  0.00  0.00    -0.930 OA
ATOM     26  C   LIG    1       -2.131   5.967  -1.398  0.00  0.00    -0.270 C 
ENDBRANCH  22  23
ENDBRANCH  20  22
ENDBRANCH  19  20
ENDBRANCH  17  19
ENDBRANCH   1  14
TORSDOF 8
