REMARK  Name = ZINCqH0000000q9F.0
REMARK                            x       y       z     vdW  Elec       q    Type
REMARK                         _______ _______ _______ _____ _____    ______ ____
ROOT
ATOM      1  C   LIG    1       -0.844  -4.245  -0.138  0.00  0.00    +0.420 C 
ATOM      2  O   LIG    1        0.013  -5.028   0.214  0.00  0.00    -0.430 OA
ENDROOT
BRANCH   1   6
ATOM      3  C   LIG    1       -4.502  -5.681  -1.735  0.00  0.00    -0.050 A 
ATOM      4  C   LIG    1       -3.526  -6.577  -1.335  0.00  0.00    +0.010 A 
ATOM      5  C   LIG    1       -2.335  -6.119  -0.815  0.00  0.00    +0.090 A 
ATOM      6  C   LIG    1       -2.113  -4.743  -0.693  0.00  0.00    -0.160 A 
ATOM      7  C   LIG    1       -3.105  -3.844  -1.095  0.00  0.00    +0.070 A 
ATOM      8  C   LIG    1       -4.290  -4.318  -1.618  0.00  0.00    +0.010 A 
BRANCH   3   9
ATOM      9  C   LIG    1       -5.802  -6.191  -2.302  0.00  0.00    +0.070 C 
BRANCH   9  10
ATOM     10  C   LIG    1       -6.809  -6.390  -1.168  0.00  0.00    +0.260 C 
BRANCH  10  13
ATOM     11  C   LIG    1      -10.414  -7.645  -1.467  0.00  0.00    +0.090 C 
ATOM     12  C   LIG    1       -9.114  -7.135  -0.900  0.00  0.00    +0.510 C 
ATOM     13  N   LIG    1       -8.073  -6.885  -1.719  0.00  0.00    -0.740 N 
ATOM     14  H   LIG    1       -8.161  -7.034  -2.674  0.00  0.00    +0.400 HD
ATOM     15  O   LIG    1       -9.004  -6.949   0.293  0.00  0.00    -0.540 OA
ENDBRANCH  10  13
ENDBRANCH   9  10
ENDBRANCH   3   9
ENDBRANCH   1   6
BRANCH   1  16
ATOM     16  C   LIG    1       -0.609  -2.762  -0.008  0.00  0.00    +0.000 C 
ATOM     17  C   LIG    1       -1.210  -2.264   1.308  0.00  0.00    +0.100 C 
BRANCH  16  18
ATOM     18  S   LIG    1        1.171  -2.430  -0.023  0.00  0.00    +0.020 S 
BRANCH  18  19
ATOM     19  C   LIG    1        1.153  -0.668  -0.013  0.00  0.00    +0.210 A 
ATOM     20  C   LIG    1        2.355   0.059  -0.020  0.00  0.00    -0.260 A 
ATOM     21  S   LIG    1        4.034  -0.461  -0.039  0.00  0.00    +0.170 S 
ATOM     22  C   LIG    1        4.596   1.203  -0.035  0.00  0.00    +0.040 A 
ATOM     23  C   LIG    1        3.573   2.043  -0.021  0.00  0.00    +0.030 A 
ATOM     24  C   LIG    1        2.299   1.454  -0.012  0.00  0.00    +0.190 A 
ATOM     25  N   LIG    1        1.078   2.037   0.003  0.00  0.00    -0.500 NA
ATOM     26  C   LIG    1       -0.016   1.317   0.009  0.00  0.00    +0.530 A 
ATOM     27  N   LIG    1        0.002  -0.004   0.002  0.00  0.00    -0.520 NA
ENDBRANCH  18  19
ENDBRANCH  16  18
ENDBRANCH   1  16
TORSDOF 7
