REMARK  Name = ZINC650000002rY0.0
REMARK                            x       y       z     vdW  Elec       q    Type
REMARK                         _______ _______ _______ _____ _____    ______ ____
ROOT
ATOM      1  C   LIG    1       -2.066   1.661   1.328  0.00  0.00    +0.000 C 
ATOM      2  C   LIG    1       -1.330   1.951   0.019  0.00  0.00    +0.080 C 
ENDROOT
BRANCH   2   3
ATOM      3  C   LIG    1       -0.015   1.215   0.009  0.00  0.00    +0.500 C 
ATOM      4  O   LIG    1        1.033   1.839   0.002  0.00  0.00    -0.680 OA
ATOM      5  O   LIG    1        0.002  -0.004   0.002  0.00  0.00    -0.700 OA
ENDBRANCH   2   3
BRANCH   2   6
ATOM      6  O   LIG    1       -1.091   3.355  -0.092  0.00  0.00    -0.550 OA
ATOM      7  H   LIG    1       -1.895   3.892  -0.092  0.00  0.00    +0.350 HD
ENDBRANCH   2   6
TORSDOF 2
