REMARK  Name = ZINCpk00000y6v9M.1
REMARK                            x       y       z     vdW  Elec       q    Type
REMARK                         _______ _______ _______ _____ _____    ______ ____
ROOT
ATOM      1  C   LIG    1       -0.663   1.380   1.288  0.00  0.00    +0.170 C 
ATOM      2  C   LIG    1       -1.665   2.410   0.696  0.00  0.00    +0.020 C 
ATOM      3  C   LIG    1       -1.938   1.811  -0.707  0.00  0.00    +0.270 C 
ATOM      4  N   LIG    1       -0.642   1.254  -1.138  0.00  0.00    -0.620 N 
ATOM      5  C   LIG    1       -0.261   1.050  -2.414  0.00  0.00    +0.530 C 
ATOM      6  O   LIG    1        0.833   0.584  -2.653  0.00  0.00    -0.530 OA
ATOM      7  C   LIG    1        0.165   0.959   0.055  0.00  0.00    +0.280 C 
ENDROOT
BRANCH   1   8
ATOM      8  O   LIG    1        0.172   1.992   2.273  0.00  0.00    -0.290 OA
BRANCH   8  11
ATOM      9  C   LIG    1        0.056   2.377   5.889  0.00  0.00    +0.170 A 
ATOM     10  C   LIG    1        0.536   2.427   4.596  0.00  0.00    -0.060 A 
ATOM     11  C   LIG    1       -0.265   1.959   3.558  0.00  0.00    +0.170 A 
ATOM     12  C   LIG    1       -1.527   1.462   3.870  0.00  0.00    -0.120 A 
ATOM     13  C   LIG    1       -1.932   1.440   5.189  0.00  0.00    +0.300 A 
ATOM     14  N   LIG    1       -1.145   1.893   6.146  0.00  0.00    -0.490 NA
BRANCH   9  15
ATOM     15  C   LIG    1        0.914   2.880   7.021  0.00  0.00    +0.250 C 
BRANCH  15  17
ATOM     16  C   LIG    1        1.205   4.727   8.559  0.00  0.00    +0.190 C 
ATOM     17  N   LIG    1        0.565   4.276   7.316  0.00  0.00    -0.540 NA
ATOM     18  C   LIG    1        0.918   5.155   6.194  0.00  0.00    +0.190 C 
ENDBRANCH  15  17
ENDBRANCH   9  15
ENDBRANCH   8  11
ENDBRANCH   1   8
BRANCH   5  19
ATOM     19  C   LIG    1       -1.194   1.400  -3.545  0.00  0.00    +0.090 C 
BRANCH  19  20
ATOM     20  C   LIG    1       -0.523   1.072  -4.880  0.00  0.00    +0.170 C 
BRANCH  20  21
ATOM     21  C   LIG    1       -1.457   1.422  -6.011  0.00  0.00    +0.210 A 
ATOM     22  N   LIG    1       -2.679   0.987  -6.151  0.00  0.00    -0.490 NA
ATOM     23  C   LIG    1       -3.207   1.504  -7.269  0.00  0.00    +0.140 A 
ATOM     24  C   LIG    1       -2.277   2.290  -7.844  0.00  0.00    +0.120 A 
ATOM     25  N   LIG    1       -1.169   2.243  -7.043  0.00  0.00    -0.570 N 
ATOM     26  H   LIG    1       -0.331   2.710  -7.191  0.00  0.00    +0.420 HD
ENDBRANCH  20  21
ENDBRANCH  19  20
ENDBRANCH   5  19
TORSDOF 7
