REMARK  Name = ZINCpe00000gNc2k.0
REMARK                            x       y       z     vdW  Elec       q    Type
REMARK                         _______ _______ _______ _____ _____    ______ ____
ROOT
ATOM      1  O   LIG    1       -3.990   7.368  -0.627  0.00  0.00    -0.490 OA
ATOM      2  C   LIG    1       -3.723   6.635  -1.556  0.00  0.00    +0.510 C 
ATOM      3  N   LIG    1       -3.258   5.392  -1.320  0.00  0.00    -0.730 N 
ATOM      4  H   LIG    1       -3.044   4.806  -2.063  0.00  0.00    +0.400 HD
ENDROOT
BRANCH   3   5
ATOM      5  C   LIG    1       -3.075   4.927   0.057  0.00  0.00    +0.420 C 
BRANCH   5   6
ATOM      6  C   LIG    1       -2.548   3.515   0.044  0.00  0.00    +0.110 A 
ATOM      7  N   LIG    1       -3.266   2.422   0.045  0.00  0.00    -0.220 NA
ATOM      8  N   LIG    1       -2.502   1.386   0.033  0.00  0.00    -0.280 NA
ATOM      9  C   LIG    1       -1.237   1.772   0.018  0.00  0.00    +0.200 A 
ATOM     10  C   LIG    1       -0.013   1.076   0.008  0.00  0.00    +0.080 A 
ATOM     11  C   LIG    1        1.151   1.780   0.001  0.00  0.00    +0.070 A 
ATOM     12  C   LIG    1        1.117   3.185   0.009  0.00  0.00    +0.030 A 
ATOM     13  C   LIG    1       -0.064   3.838   0.023  0.00  0.00    +0.230 A 
ATOM     14  N   LIG    1       -1.239   3.145   0.030  0.00  0.00    -0.380 N 
ENDBRANCH   5   6
ENDBRANCH   3   5
BRANCH   2  15
ATOM     15  C   LIG    1       -3.912   7.113  -2.972  0.00  0.00    +0.170 C 
BRANCH  15  16
ATOM     16  C   LIG    1       -4.438   8.525  -2.960  0.00  0.00    +0.120 A 
ATOM     17  N   LIG    1       -4.655   9.128  -1.829  0.00  0.00    -0.160 NA
ATOM     18  N   LIG    1       -5.141  10.433  -1.752  0.00  0.00    -0.540 N 
ATOM     19  H   LIG    1       -5.284  10.833  -0.879  0.00  0.00    +0.440 HD
ATOM     20  C   LIG    1       -5.417  11.155  -2.858  0.00  0.00    +0.530 A 
ATOM     21  C   LIG    1       -5.198  10.542  -4.174  0.00  0.00    -0.130 A 
ATOM     22  C   LIG    1       -5.461  11.226  -5.359  0.00  0.00    +0.090 A 
ATOM     23  C   LIG    1       -5.221  10.608  -6.568  0.00  0.00    +0.030 A 
ATOM     24  C   LIG    1       -4.737   9.307  -6.615  0.00  0.00    +0.050 A 
ATOM     25  C   LIG    1       -4.475   8.611  -5.457  0.00  0.00    +0.040 A 
ATOM     26  O   LIG    1       -5.840  12.293  -2.767  0.00  0.00    -0.520 OA
ATOM     27  C   LIG    1       -4.700   9.220  -4.221  0.00  0.00    -0.050 A 
ENDBRANCH  15  16
ENDBRANCH   2  15
TORSDOF 4
