REMARK  Name = ZINCc70000002Cjv.0
REMARK                            x       y       z     vdW  Elec       q    Type
REMARK                         _______ _______ _______ _____ _____    ______ ____
ROOT
ATOM      1  C   LIG    1       -0.839   3.122  -1.173  0.00  0.00    +0.120 C 
ATOM      2  C   LIG    1       -0.755   1.594  -1.231  0.00  0.00    +0.080 C 
ATOM      3  C   LIG    1       -0.013   1.086   0.008  0.00  0.00    +0.060 C 
ATOM      4  C   LIG    1       -0.731   1.580   1.266  0.00  0.00    +0.250 C 
ATOM      5  N   LIG    1       -0.755   3.048   1.274  0.00  0.00    -0.500 N 
ATOM      6  H   LIG    1       -1.182   3.371   2.130  0.00  0.00    +0.430 HD
ATOM      7  H   LIG    1        0.189   3.399   1.219  0.00  0.00    +0.430 HD
ATOM      8  C   LIG    1       -1.527   3.541   0.127  0.00  0.00    +0.270 C 
ENDROOT
BRANCH   1  14
ATOM      9  N   LIG    1       -2.562   6.003  -4.689  0.00  0.00    -0.840 NA
ATOM     10  H   LIG    1       -3.212   5.971  -5.408  0.00  0.00    +0.340 HD
ATOM     11  C   LIG    1       -2.385   4.960  -3.922  0.00  0.00    +0.450 A 
ATOM     12  N   LIG    1       -3.039   3.759  -4.013  0.00  0.00    -0.530 NA
ATOM     13  N   LIG    1       -2.525   2.948  -2.990  0.00  0.00    -0.270 NA
ATOM     14  C   LIG    1       -1.634   3.627  -2.349  0.00  0.00    +0.040 A 
ATOM     15  O   LIG    1       -1.527   4.860  -2.886  0.00  0.00    -0.300 OA
ENDBRANCH   1  14
TORSDOF 1
