REMARK  Name = ZINCpk00000khGpA.0
REMARK                            x       y       z     vdW  Elec       q    Type
REMARK                         _______ _______ _______ _____ _____    ______ ____
ROOT
ATOM      1  C   LIG    1        0.307  -2.218  -1.090  0.00  0.00    +0.030 A 
ATOM      2  C   LIG    1       -0.412  -1.086  -1.268  0.00  0.00    +0.150 A 
ATOM      3  N   LIG    1       -0.267  -0.364  -0.133  0.00  0.00    -0.290 N 
ATOM      4  N   LIG    1        0.486  -1.028   0.673  0.00  0.00    -0.080 NA
ATOM      5  N   LIG    1        0.845  -2.139   0.132  0.00  0.00    -0.260 NA
ENDROOT
BRANCH   1   6
ATOM      6  C   LIG    1        0.468  -3.349  -2.074  0.00  0.00    -0.010 C 
ATOM      7  C   LIG    1        0.113  -4.758  -1.594  0.00  0.00    +0.050 C 
ATOM      8  C   LIG    1        1.577  -4.367  -1.804  0.00  0.00    +0.060 C 
BRANCH   6  12
ATOM      9  C   LIG    1       -0.376  -2.380  -6.149  0.00  0.00    +0.130 A 
ATOM     10  C   LIG    1        0.712  -1.804  -5.509  0.00  0.00    -0.020 A 
ATOM     11  C   LIG    1        0.982  -2.119  -4.191  0.00  0.00    +0.070 A 
ATOM     12  C   LIG    1        0.170  -3.007  -3.511  0.00  0.00    -0.090 A 
ATOM     13  C   LIG    1       -0.910  -3.588  -4.149  0.00  0.00    +0.060 A 
ATOM     14  C   LIG    1       -1.188  -3.272  -5.465  0.00  0.00    -0.080 A 
BRANCH   9  16
ATOM     15  C   LIG    1       -1.779  -2.703  -8.041  0.00  0.00    +0.250 C 
ATOM     16  O   LIG    1       -0.644  -2.072  -7.446  0.00  0.00    -0.320 OA
ENDBRANCH   9  16
ENDBRANCH   6  12
ENDBRANCH   1   6
BRANCH   3  17
ATOM     17  C   LIG    1       -0.867   0.945   0.135  0.00  0.00    +0.340 C 
BRANCH  17  18
ATOM     18  C   LIG    1       -1.660   0.884   1.442  0.00  0.00    +0.210 C 
ATOM     19  C   LIG    1       -2.788  -0.140   1.283  0.00  0.00    +0.090 C 
ATOM     20  C   LIG    1       -3.961   0.363   2.173  0.00  0.00    -0.290 C 
ATOM     21  S   LIG    1       -3.797   2.175   1.902  0.00  0.00    +2.570 S 
ATOM     22  O   LIG    1       -4.293   2.561   0.628  0.00  0.00    -0.940 OA
ATOM     23  O   LIG    1       -4.106   2.906   3.081  0.00  0.00    -0.950 OA
ATOM     24  N   LIG    1       -2.131   2.233   1.767  0.00  0.00    -0.980 NA
ATOM     25  C   LIG    1       -1.292   3.420   1.943  0.00  0.00    +0.340 C 
ENDBRANCH  17  18
ENDBRANCH   3  17
TORSDOF 5
