REMARK  Name = ZINCpk00000e8Tid.0
REMARK                            x       y       z     vdW  Elec       q    Type
REMARK                         _______ _______ _______ _____ _____    ______ ____
ROOT
ATOM      1  C   LIG    1       -3.344   1.595  -1.309  0.00  0.00    +0.580 C 
ATOM      2  N   LIG    1       -2.179   1.908  -0.709  0.00  0.00    -0.620 N 
ATOM      3  C   LIG    1       -1.978   2.501   0.634  0.00  0.00    +0.320 C 
ATOM      4  C   LIG    1       -0.747   1.766   1.205  0.00  0.00    +0.050 C 
ATOM      5  C   LIG    1        0.025   1.262  -0.033  0.00  0.00    +0.090 C 
ATOM      6  C   LIG    1       -0.805   1.738  -1.244  0.00  0.00    +0.290 C 
ATOM      7  O   LIG    1       -4.389   1.694  -0.696  0.00  0.00    -0.520 OA
ENDROOT
BRANCH   1  11
ATOM      8  C   LIG    1       -3.366   0.264  -5.345  0.00  0.00    +0.040 A 
ATOM      9  C   LIG    1       -4.441  -0.037  -4.504  0.00  0.00    +0.040 A 
ATOM     10  C   LIG    1       -4.434   0.393  -3.197  0.00  0.00    +0.080 A 
ATOM     11  C   LIG    1       -3.352   1.133  -2.712  0.00  0.00    -0.130 A 
ATOM     12  C   LIG    1       -2.281   1.440  -3.554  0.00  0.00    +0.040 A 
ATOM     13  C   LIG    1       -2.285   1.004  -4.859  0.00  0.00    +0.030 A 
BRANCH   8  15
ATOM     14  C   LIG    1       -3.380  -0.552  -7.820  0.00  0.00    +0.080 C 
ATOM     15  C   LIG    1       -3.374  -0.184  -6.705  0.00  0.00    -0.170 C 
ENDBRANCH   8  15
ENDBRANCH   1  11
BRANCH   5  16
ATOM     16  C   LIG    1        1.404   1.869  -0.072  0.00  0.00    -0.030 A 
ATOM     17  C   LIG    1        1.753   3.099   0.351  0.00  0.00    +0.160 A 
ATOM     18  N   LIG    1        3.069   3.252   0.143  0.00  0.00    -0.490 NA
ATOM     19  C   LIG    1        3.549   2.163  -0.393  0.00  0.00    +0.400 A 
ATOM     20  N   LIG    1        2.545   1.273  -0.540  0.00  0.00    -0.450 N 
ATOM     21  C   LIG    1        2.654  -0.078  -1.097  0.00  0.00    +0.330 C 
ENDBRANCH   5  16
BRANCH   4  22
ATOM     22  C   LIG    1       -1.181   0.603   2.060  0.00  0.00    +0.470 C 
ATOM     23  O   LIG    1       -0.908  -0.526   1.728  0.00  0.00    -0.500 OA
BRANCH  22  24
ATOM     24  O   LIG    1       -1.870   0.823   3.191  0.00  0.00    -0.350 OA
ATOM     25  C   LIG    1       -2.255  -0.344   3.965  0.00  0.00    +0.270 C 
ENDBRANCH  22  24
ENDBRANCH   4  22
TORSDOF 5
