REMARK  Name = ZINCpk00000GMY87.1
REMARK                            x       y       z     vdW  Elec       q    Type
REMARK                         _______ _______ _______ _____ _____    ______ ____
ROOT
ATOM      1  S   LIG    1       -2.501  -0.452   0.730  0.00  0.00    +2.700 S 
ATOM      2  O   LIG    1       -1.328  -1.147   0.328  0.00  0.00    -0.940 OA
ATOM      3  O   LIG    1       -3.814  -0.942   0.494  0.00  0.00    -0.940 OA
ENDROOT
BRANCH   1  10
ATOM      4  C   LIG    1       -2.758   0.564   7.632  0.00  0.00    +0.310 C 
ATOM      5  N   LIG    1       -1.794   0.337   6.552  0.00  0.00    -0.550 N 
ATOM      6  C   LIG    1       -0.465   0.267   6.737  0.00  0.00    +0.530 C 
ATOM      7  C   LIG    1        0.161   0.026   5.380  0.00  0.00    +0.150 C 
ATOM      8  C   LIG    1       -1.017  -0.025   4.435  0.00  0.00    -0.170 A 
ATOM      9  C   LIG    1       -1.120  -0.219   3.076  0.00  0.00    +0.190 A 
ATOM     10  C   LIG    1       -2.365  -0.210   2.470  0.00  0.00    -0.700 A 
ATOM     11  C   LIG    1       -3.501  -0.017   3.234  0.00  0.00    +0.180 A 
ATOM     12  C   LIG    1       -3.401   0.172   4.597  0.00  0.00    -0.020 A 
ATOM     13  O   LIG    1        0.122   0.377   7.792  0.00  0.00    -0.490 OA
ATOM     14  C   LIG    1       -2.151   0.170   5.213  0.00  0.00    +0.210 A 
ENDBRANCH   1  10
BRANCH   1  15
ATOM     15  N   LIG    1       -2.426   1.042   0.020  0.00  0.00    -1.060 N 
ATOM     16  H   LIG    1       -3.169   1.364  -0.514  0.00  0.00    +0.420 HD
BRANCH  15  17
ATOM     17  C   LIG    1       -1.291   1.839   0.189  0.00  0.00    +0.250 A 
ATOM     18  C   LIG    1       -0.033   1.255   0.256  0.00  0.00    -0.020 A 
ATOM     19  C   LIG    1        1.087   2.047   0.418  0.00  0.00    +0.110 A 
ATOM     20  C   LIG    1        0.956   3.419   0.519  0.00  0.00    -0.010 A 
ATOM     21  C   LIG    1       -0.296   4.004   0.459  0.00  0.00    +0.150 A 
ATOM     22  C   LIG    1       -1.419   3.219   0.296  0.00  0.00    -0.680 A 
BRANCH  22  23
ATOM     23  S   LIG    1       -3.014   3.965   0.219  0.00  0.00    +2.490 S 
ATOM     24  O   LIG    1       -2.759   5.354   0.381  0.00  0.00    -0.930 OA
ATOM     25  O   LIG    1       -3.784   3.245   1.171  0.00  0.00    -0.930 OA
ATOM     26  C   LIG    1       -3.595   3.617  -1.464  0.00  0.00    -0.260 C 
ENDBRANCH  22  23
ENDBRANCH  15  17
ENDBRANCH   1  15
TORSDOF 4
