REMARK  Name = ZINCah0000002nwh.0
REMARK                            x       y       z     vdW  Elec       q    Type
REMARK                         _______ _______ _______ _____ _____    ______ ____
ROOT
ATOM      1  N   LIG    1       -0.022   1.402   2.459  0.00  0.00    -0.690 NA
ATOM      2  H   LIG    1        0.946   1.684   2.442  0.00  0.00    +0.350 HD
ENDROOT
BRANCH   1   3
ATOM      3  C   LIG    1       -0.683   1.857   3.689  0.00  0.00    +0.190 C 
BRANCH   3   4
ATOM      4  C   LIG    1        0.084   1.331   4.904  0.00  0.00    +0.180 C 
BRANCH   4   6
ATOM      5  C   LIG    1       -1.107   2.152   7.121  0.00  0.00    +0.020 C 
ATOM      6  C   LIG    1       -0.578   1.788   6.137  0.00  0.00    -0.200 C 
ENDBRANCH   4   6
ENDBRANCH   3   4
ENDBRANCH   1   3
BRANCH   1   7
ATOM      7  C   LIG    1       -0.733   1.888   1.268  0.00  0.00    +0.210 C 
BRANCH   7   8
ATOM      8  C   LIG    1       -0.017   1.395   0.010  0.00  0.00    +0.460 C 
ATOM      9  F   LIG    1       -0.694   1.858  -1.124  0.00  0.00    -0.180 F 
ATOM     10  F   LIG    1        1.296   1.879  -0.000  0.00  0.00    -0.180 F 
ATOM     11  F   LIG    1        0.002  -0.004   0.002  0.00  0.00    -0.170 F 
ENDBRANCH   7   8
ENDBRANCH   1   7
TORSDOF 5
