REMARK  Name = ZINCnE000001HF1L.0
REMARK                            x       y       z     vdW  Elec       q    Type
REMARK                         _______ _______ _______ _____ _____    ______ ____
ROOT
ATOM      1  N   LIG    1        0.002  -0.004   0.002  0.00  0.00    -0.720 N 
ATOM      2  H   LIG    1       -0.831  -0.500   0.007  0.00  0.00    +0.400 HD
ATOM      3  C   LIG    1       -0.016   1.344   0.009  0.00  0.00    +0.560 C 
ATOM      4  O   LIG    1        1.028   1.966   0.003  0.00  0.00    -0.530 OA
ENDROOT
BRANCH   3   5
ATOM      5  C   LIG    1       -1.307   2.065   0.019  0.00  0.00    -0.070 A 
ATOM      6  C   LIG    1       -2.507   1.354   0.015  0.00  0.00    -0.110 A 
ATOM      7  C   LIG    1       -3.710   2.031   0.031  0.00  0.00    +0.120 A 
ATOM      8  C   LIG    1       -3.730   3.413   0.038  0.00  0.00    -0.190 A 
ATOM      9  C   LIG    1       -2.541   4.130   0.037  0.00  0.00    +0.300 A 
ATOM     10  O   LIG    1       -2.566   5.488   0.044  0.00  0.00    -0.630 OA
ATOM     11  C   LIG    1       -1.328   3.460   0.027  0.00  0.00    -0.030 A 
BRANCH   8  12
ATOM     12  N   LIG    1       -5.024   4.131   0.048  0.00  0.00    +0.070 N 
ATOM     13  O   LIG    1       -5.044   5.349   0.054  0.00  0.00    -0.160 OA
ATOM     14  O   LIG    1       -6.068   3.505   0.050  0.00  0.00    -0.260 OA
ENDBRANCH   8  12
ENDBRANCH   3   5
BRANCH   1  15
ATOM     15  C   LIG    1        1.281  -0.719  -0.014  0.00  0.00    +0.290 C 
BRANCH  15  16
ATOM     16  C   LIG    1        1.085  -2.085  -0.620  0.00  0.00    -0.090 A 
ATOM     17  C   LIG    1       -0.046  -2.820  -0.316  0.00  0.00    +0.010 A 
ATOM     18  C   LIG    1       -0.228  -4.071  -0.875  0.00  0.00    +0.000 A 
ATOM     19  C   LIG    1        0.725  -4.591  -1.731  0.00  0.00    -0.090 A 
ATOM     20  C   LIG    1        1.858  -3.858  -2.031  0.00  0.00    +0.000 A 
ATOM     21  C   LIG    1        0.530  -5.957  -2.336  0.00  0.00    +0.100 C 
ATOM     22  C   LIG    1        2.038  -2.605  -1.476  0.00  0.00    +0.020 A 
ENDBRANCH  15  16
BRANCH  15  24
ATOM     23  C   LIG    1        2.118   0.517   1.989  0.00  0.00    +0.020 C 
ATOM     24  C   LIG    1        1.801  -0.866   1.417  0.00  0.00    +0.000 C 
ENDBRANCH  15  24
ENDBRANCH   1  15
TORSDOF 5
