REMARK  Name = ZINCpe000000TAH9.0
REMARK                            x       y       z     vdW  Elec       q    Type
REMARK                         _______ _______ _______ _____ _____    ______ ____
ROOT
ATOM      1  N   LIG    1        1.274   1.894   0.000  0.00  0.00    -0.560 N 
ATOM      2  C   LIG    1        2.099   0.841  -0.013  0.00  0.00    +0.710 C 
ATOM      3  N   LIG    1        1.438  -0.331  -0.013  0.00  0.00    -0.710 N 
ATOM      4  H   LIG    1        1.831  -1.218  -0.022  0.00  0.00    +0.440 HD
ATOM      5  C   LIG    1        0.002  -0.004   0.002  0.00  0.00    +0.170 C 
ATOM      6  O   LIG    1        3.311   0.933  -0.025  0.00  0.00    -0.530 OA
ATOM      7  C   LIG    1       -0.018   1.512   0.010  0.00  0.00    +0.540 C 
ATOM      8  O   LIG    1       -0.995   2.231   0.019  0.00  0.00    -0.450 OA
ENDROOT
BRANCH   5   9
ATOM      9  C   LIG    1       -0.679  -0.537  -1.232  0.00  0.00    -0.110 A 
ATOM     10  C   LIG    1       -2.033  -0.817  -1.207  0.00  0.00    +0.080 A 
ATOM     11  C   LIG    1       -2.660  -1.301  -2.339  0.00  0.00    -0.010 A 
ATOM     12  C   LIG    1       -1.930  -1.515  -3.496  0.00  0.00    +0.110 A 
ATOM     13  C   LIG    1       -0.574  -1.239  -3.519  0.00  0.00    -0.010 A 
ATOM     14  F   LIG    1       -2.541  -1.993  -4.603  0.00  0.00    -0.130 F 
ATOM     15  C   LIG    1        0.050  -0.750  -2.387  0.00  0.00    +0.060 A 
ENDBRANCH   5   9
BRANCH   5  16
ATOM     16  C   LIG    1       -0.662  -0.558   1.264  0.00  0.00    +0.060 C 
ATOM     17  C   LIG    1        0.080  -0.045   2.499  0.00  0.00    +0.030 C 
ENDBRANCH   5  16
BRANCH   1  18
ATOM     18  C   LIG    1        1.720   3.289   0.002  0.00  0.00    +0.370 C 
BRANCH  18  24
ATOM     19  N   LIG    1        2.845   6.705   3.192  0.00  0.00    -0.740 N 
ATOM     20  H   LIG    1        3.030   7.309   2.455  0.00  0.00    +0.400 HD
ATOM     21  C   LIG    1        2.440   5.444   2.943  0.00  0.00    +0.690 C 
ATOM     22  N   LIG    1        2.291   5.022   1.672  0.00  0.00    -0.690 N 
ATOM     23  H   LIG    1        2.476   5.626   0.936  0.00  0.00    +0.410 HD
ATOM     24  C   LIG    1        1.886   3.761   1.424  0.00  0.00    +0.500 C 
ATOM     25  O   LIG    1        1.655   3.006   2.344  0.00  0.00    -0.450 OA
ATOM     26  O   LIG    1        2.208   4.688   3.866  0.00  0.00    -0.530 OA
BRANCH  19  28
ATOM     27  C   LIG    1        3.472   8.622   4.576  0.00  0.00    +0.030 C 
ATOM     28  C   LIG    1        3.007   7.164   4.574  0.00  0.00    +0.270 C 
ENDBRANCH  19  28
ENDBRANCH  18  24
ENDBRANCH   1  18
TORSDOF 5
