REMARK  Name = ZINCpk000000nOEx.0
REMARK                            x       y       z     vdW  Elec       q    Type
REMARK                         _______ _______ _______ _____ _____    ______ ____
ROOT
ATOM      1  C   LIG    1       -2.152   2.548  -5.093  0.00  0.00    +0.470 A 
ATOM      2  C   LIG    1       -1.703   2.235  -3.814  0.00  0.00    -0.230 A 
ATOM      3  C   LIG    1       -0.557   1.455  -3.689  0.00  0.00    +0.460 A 
ATOM      4  N   LIG    1        0.059   1.031  -4.792  0.00  0.00    -0.610 NA
ATOM      5  C   LIG    1       -0.401   1.345  -5.986  0.00  0.00    +0.570 A 
ATOM      6  N   LIG    1       -1.479   2.085  -6.145  0.00  0.00    -0.610 NA
ENDROOT
BRANCH   1   7
ATOM      7  N   LIG    1       -3.285   3.326  -5.270  0.00  0.00    -0.700 N 
ATOM      8  H   LIG    1       -3.594   3.537  -6.165  0.00  0.00    +0.410 HD
BRANCH   7  14
ATOM      9  C   LIG    1       -4.785   5.096  -4.493  0.00  0.00    +0.160 C 
ATOM     10  O   LIG    1       -5.746   4.779  -5.502  0.00  0.00    -0.370 OA
ATOM     11  C   LIG    1       -6.728   3.825  -5.094  0.00  0.00    +0.210 C 
ATOM     12  C   LIG    1       -6.038   2.508  -4.731  0.00  0.00    -0.010 C 
ATOM     13  C   LIG    1       -5.010   2.767  -3.625  0.00  0.00    +0.000 C 
ATOM     14  C   LIG    1       -4.017   3.830  -4.106  0.00  0.00    +0.210 C 
BRANCH   9  16
ATOM     15  C   LIG    1       -4.575   7.408  -5.417  0.00  0.00    +0.030 C 
ATOM     16  C   LIG    1       -3.807   6.142  -5.030  0.00  0.00    -0.010 C 
ATOM     17  C   LIG    1       -2.778   6.481  -3.950  0.00  0.00    +0.030 C 
ENDBRANCH   9  16
ENDBRANCH   7  14
ENDBRANCH   1   7
BRANCH   3  18
ATOM     18  N   LIG    1       -0.067   1.120  -2.437  0.00  0.00    -0.720 N 
ATOM     19  H   LIG    1        0.730   0.573  -2.358  0.00  0.00    +0.410 HD
BRANCH  18  20
ATOM     20  C   LIG    1       -0.753   1.593  -1.232  0.00  0.00    +0.270 C 
BRANCH  20  21
ATOM     21  C   LIG    1       -0.013   1.086   0.008  0.00  0.00    +0.020 C 
BRANCH  21  22
ATOM     22  C   LIG    1       -0.729   1.579   1.267  0.00  0.00    +0.280 C 
BRANCH  22  23
ATOM     23  N   LIG    1       -0.020   1.094   2.454  0.00  0.00    -1.120 NA
ATOM     24  H   LIG    1        0.633   0.382   2.371  0.00  0.00    +0.420 HD
BRANCH  23  25
ATOM     25  S   LIG    1       -0.334   1.762   3.936  0.00  0.00    +2.620 S 
ATOM     26  O   LIG    1       -0.208   3.161   3.724  0.00  0.00    -0.950 OA
ATOM     27  O   LIG    1        0.537   1.073   4.822  0.00  0.00    -0.960 OA
ATOM     28  C   LIG    1       -2.062   1.323   4.274  0.00  0.00    -0.280 C 
ENDBRANCH  23  25
ENDBRANCH  22  23
ENDBRANCH  21  22
ENDBRANCH  20  21
ENDBRANCH  18  20
ENDBRANCH   3  18
TORSDOF 9
