REMARK  Name = ZINCrD000000gP56.0
REMARK                            x       y       z     vdW  Elec       q    Type
REMARK                         _______ _______ _______ _____ _____    ______ ____
ROOT
ATOM      1  N   LIG    1        1.211   5.345   0.018  0.00  0.00    -0.710 N 
ATOM      2  H   LIG    1        2.157   5.558   0.009  0.00  0.00    +0.400 HD
ATOM      3  C   LIG    1        0.809   4.059   0.015  0.00  0.00    +0.690 C 
ATOM      4  O   LIG    1       -0.380   3.792   0.025  0.00  0.00    -0.610 OA
ENDROOT
BRANCH   3   5
ATOM      5  N   LIG    1        1.715   3.074   0.002  0.00  0.00    -0.690 NA
ATOM      6  C   LIG    1        1.319   1.806  -0.001  0.00  0.00    +0.500 A 
ATOM      7  C   LIG    1       -0.016   1.345   0.009  0.00  0.00    -0.110 A 
ATOM      8  C   LIG    1        0.002  -0.004   0.002  0.00  0.00    +0.340 A 
ATOM      9  N   LIG    1        1.298  -0.429  -0.013  0.00  0.00    -0.390 N 
ATOM     10  N   LIG    1        2.131   0.698  -0.015  0.00  0.00    -0.480 N 
ATOM     11  H   LIG    1        3.102   0.696  -0.024  0.00  0.00    +0.450 HD
BRANCH   9  12
ATOM     12  C   LIG    1        1.743  -1.825  -0.024  0.00  0.00    +0.400 C 
BRANCH  12  13
ATOM     13  C   LIG    1        1.791  -2.349   1.388  0.00  0.00    -0.130 A 
ATOM     14  C   LIG    1        2.952  -2.233   2.130  0.00  0.00    +0.020 A 
ATOM     15  C   LIG    1        2.994  -2.709   3.426  0.00  0.00    +0.010 A 
ATOM     16  C   LIG    1        1.878  -3.311   3.978  0.00  0.00    +0.020 A 
ATOM     17  C   LIG    1        0.719  -3.432   3.235  0.00  0.00    +0.010 A 
ATOM     18  C   LIG    1        0.676  -2.951   1.940  0.00  0.00    +0.030 A 
ENDBRANCH  12  13
ENDBRANCH   9  12
ENDBRANCH   3   5
BRANCH   1  19
ATOM     19  C   LIG    1        0.218   6.423   0.033  0.00  0.00    +0.250 C 
BRANCH  19  21
ATOM     20  C   LIG    1        1.017   7.127   2.293  0.00  0.00    +0.030 C 
ATOM     21  C   LIG    1       -0.206   6.706   1.475  0.00  0.00    -0.080 C 
ATOM     22  C   LIG    1       -0.816   5.442   2.085  0.00  0.00    +0.030 C 
ATOM     23  C   LIG    1       -1.242   7.831   1.491  0.00  0.00    +0.030 C 
ENDBRANCH  19  21
BRANCH  19  24
ATOM     24  C   LIG    1        0.829   7.687  -0.577  0.00  0.00    +0.300 C 
BRANCH  24  25
ATOM     25  N   LIG    1        1.125   7.452  -1.992  0.00  0.00    -0.450 N 
ATOM     26  C   LIG    1        2.298   6.971  -2.508  0.00  0.00    +0.120 A 
ATOM     27  C   LIG    1        2.140   6.909  -3.844  0.00  0.00    +0.140 A 
ATOM     28  N   LIG    1        0.907   7.348  -4.137  0.00  0.00    -0.490 NA
ATOM     29  C   LIG    1        0.293   7.676  -3.033  0.00  0.00    +0.380 A 
ENDBRANCH  24  25
ENDBRANCH  19  24
ENDBRANCH   1  19
TORSDOF 7
