REMARK  Name = ZINCrg000000nKkE.0
REMARK                            x       y       z     vdW  Elec       q    Type
REMARK                         _______ _______ _______ _____ _____    ______ ____
ROOT
ATOM      1  N   LIG    1        5.358   0.846  -1.707  0.00  0.00    -0.720 N 
ATOM      2  H   LIG    1        5.990   0.948  -0.978  0.00  0.00    +0.400 HD
ATOM      3  C   LIG    1        4.037   0.779  -1.449  0.00  0.00    +0.500 C 
ATOM      4  O   LIG    1        3.247   0.651  -2.360  0.00  0.00    -0.510 OA
ENDROOT
BRANCH   1   5
ATOM      5  C   LIG    1        5.840   0.766  -3.088  0.00  0.00    +0.290 C 
BRANCH   5   6
ATOM      6  C   LIG    1        7.258   0.257  -3.098  0.00  0.00    -0.090 A 
ATOM      7  C   LIG    1        8.155   0.694  -2.141  0.00  0.00    +0.000 A 
ATOM      8  C   LIG    1        9.455   0.223  -2.147  0.00  0.00    +0.000 A 
ATOM      9  C   LIG    1        9.860  -0.677  -3.114  0.00  0.00    +0.000 A 
ATOM     10  C   LIG    1        8.964  -1.110  -4.074  0.00  0.00    +0.020 A 
ATOM     11  C   LIG    1        7.663  -0.643  -4.066  0.00  0.00    +0.010 A 
ENDBRANCH   5   6
BRANCH   5  12
ATOM     12  C   LIG    1        5.793   2.156  -3.726  0.00  0.00    +0.030 C 
BRANCH  12  14
ATOM     13  C   LIG    1        4.292   4.011  -4.468  0.00  0.00    +0.000 C 
ATOM     14  C   LIG    1        4.339   2.621  -3.830  0.00  0.00    +0.010 C 
ENDBRANCH  12  14
ENDBRANCH   5  12
ENDBRANCH   1   5
BRANCH   3  15
ATOM     15  C   LIG    1        3.542   0.861  -0.028  0.00  0.00    +0.340 C 
BRANCH  15  16
ATOM     16  N   LIG    1        2.080   0.764  -0.014  0.00  0.00    -0.400 N 
ATOM     17  C   LIG    1        1.209   1.791   0.000  0.00  0.00    +0.510 A 
ATOM     18  N   LIG    1       -0.016   1.331   0.009  0.00  0.00    -0.490 NA
ATOM     19  C   LIG    1        0.002  -0.004   0.002  0.00  0.00    +0.320 A 
ATOM     20  N   LIG    1       -0.983  -0.978   0.006  0.00  0.00    -0.510 N 
ATOM     21  C   LIG    1       -2.396  -0.590   0.021  0.00  0.00    +0.340 C 
ATOM     22  C   LIG    1       -0.644  -2.281  -0.004  0.00  0.00    +0.710 A 
ATOM     23  O   LIG    1       -1.523  -3.122  -0.001  0.00  0.00    -0.530 OA
ATOM     24  N   LIG    1        0.641  -2.676  -0.019  0.00  0.00    -0.550 N 
ATOM     25  C   LIG    1        0.956  -4.107  -0.029  0.00  0.00    +0.350 C 
ATOM     26  C   LIG    1        1.645  -1.775  -0.023  0.00  0.00    +0.600 A 
ATOM     27  O   LIG    1        2.805  -2.145  -0.035  0.00  0.00    -0.510 OA
ATOM     28  C   LIG    1        1.334  -0.398  -0.013  0.00  0.00    -0.140 A 
ENDBRANCH  15  16
ENDBRANCH   3  15
TORSDOF 6
