REMARK  Name = ZINCtV00000L6lbw.0
REMARK                            x       y       z     vdW  Elec       q    Type
REMARK                         _______ _______ _______ _____ _____    ______ ____
ROOT
ATOM      1  P   LIG    1       -1.492   2.280  -0.095  0.00  0.00    +2.850 P 
ATOM      2  N   LIG    1       -2.242   2.211   1.264  0.00  0.00    -1.210 NA
ENDROOT
BRANCH   2   3
ATOM      3  C   LIG    1       -1.587   2.429   2.394  0.00  0.00    +0.300 A 
ATOM      4  C   LIG    1       -0.227   2.832   2.367  0.00  0.00    -0.200 A 
ATOM      5  C   LIG    1        0.433   3.059   3.538  0.00  0.00    +0.090 A 
ATOM      6  C   LIG    1       -0.217   2.886   4.755  0.00  0.00    -0.190 A 
ATOM      7  C   LIG    1       -1.548   2.485   4.798  0.00  0.00    +0.080 A 
ATOM      8 BR   LIG    1        0.719   3.197   6.369  0.00  0.00    -0.090 Br
ATOM      9  C   LIG    1       -2.236   2.257   3.643  0.00  0.00    -0.050 A 
ENDBRANCH   2   3
BRANCH   1  13
ATOM     10  C   LIG    1        2.110  -0.548  -0.005  0.00  0.00    +0.170 A 
ATOM     11  C   LIG    1        0.904  -0.941   0.558  0.00  0.00    -0.020 A 
ATOM     12  C   LIG    1       -0.180  -0.085   0.531  0.00  0.00    +0.150 A 
ATOM     13  C   LIG    1       -0.064   1.162  -0.055  0.00  0.00    -0.800 A 
ATOM     14  C   LIG    1        1.136   1.556  -0.616  0.00  0.00    +0.100 A 
ATOM     15  C   LIG    1        2.224   0.704  -0.592  0.00  0.00    -0.080 A 
BRANCH  10  17
ATOM     16  C   LIG    1        4.387  -0.918  -0.578  0.00  0.00    +0.250 C 
ATOM     17  O   LIG    1        3.178  -1.388   0.020  0.00  0.00    -0.310 OA
ENDBRANCH  10  17
ENDBRANCH   1  13
BRANCH   1  18
ATOM     18  C   LIG    1       -2.614   1.781  -1.431  0.00  0.00    -0.740 A 
ATOM     19  C   LIG    1       -2.173   0.920  -2.418  0.00  0.00    +0.070 A 
ATOM     20  C   LIG    1       -3.029   0.535  -3.433  0.00  0.00    -0.010 A 
ATOM     21  C   LIG    1       -4.323   1.021  -3.467  0.00  0.00    +0.060 A 
ATOM     22  C   LIG    1       -4.762   1.887  -2.483  0.00  0.00    +0.000 A 
ATOM     23  C   LIG    1       -3.907   2.267  -1.465  0.00  0.00    +0.110 A 
ENDBRANCH   1  18
BRANCH   1  24
ATOM     24  C   LIG    1       -0.923   3.978  -0.386  0.00  0.00    -0.770 A 
ATOM     25  C   LIG    1       -1.232   4.975   0.520  0.00  0.00    +0.120 A 
ATOM     26  C   LIG    1       -0.793   6.268   0.301  0.00  0.00    +0.000 A 
ATOM     27  C   LIG    1       -0.055   6.565  -0.830  0.00  0.00    +0.060 A 
ATOM     28  C   LIG    1        0.248   5.569  -1.739  0.00  0.00    -0.010 A 
ATOM     29  C   LIG    1       -0.185   4.275  -1.517  0.00  0.00    +0.050 A 
ENDBRANCH   1  24
TORSDOF 5
