REMARK  Name = ZINCrH00000tj0GI.0
REMARK                            x       y       z     vdW  Elec       q    Type
REMARK                         _______ _______ _______ _____ _____    ______ ____
ROOT
ATOM      1  N   LIG    1       -0.698   1.558   1.213  0.00  0.00    -1.120 NA
ATOM      2  H   LIG    1       -1.353   2.272   1.151  0.00  0.00    +0.420 HD
ENDROOT
BRANCH   1   3
ATOM      3  S   LIG    1       -0.356   0.875   2.682  0.00  0.00    +2.700 S 
ATOM      4  O   LIG    1       -0.416  -0.532   2.494  0.00  0.00    -0.950 OA
ATOM      5  O   LIG    1       -1.147   1.565   3.640  0.00  0.00    -0.960 OA
BRANCH   3  13
ATOM      6  C   LIG    1        2.344   0.741   2.270  0.00  0.00    +0.220 A 
ATOM      7  C   LIG    1        3.664   1.047   2.564  0.00  0.00    -0.080 A 
ATOM      8  C   LIG    1        3.961   1.855   3.645  0.00  0.00    +0.010 A 
ATOM      9  C   LIG    1        2.942   2.362   4.431  0.00  0.00    -0.140 A 
ATOM     10  C   LIG    1        1.625   2.062   4.136  0.00  0.00    +0.170 A 
ATOM     11  C   LIG    1        3.268   3.242   5.609  0.00  0.00    +0.090 C 
ATOM     12  C   LIG    1        5.395   2.183   3.969  0.00  0.00    +0.100 C 
ATOM     13  C   LIG    1        1.323   1.256   3.057  0.00  0.00    -0.710 A 
BRANCH   6  15
ATOM     14  C   LIG    1        3.151  -0.551   0.445  0.00  0.00    +0.260 C 
ATOM     15  O   LIG    1        2.050  -0.057   1.210  0.00  0.00    -0.310 OA
ENDBRANCH   6  15
ENDBRANCH   3  13
ENDBRANCH   1   3
BRANCH   1  16
ATOM     16  C   LIG    1       -0.013   1.086   0.008  0.00  0.00    +0.290 C 
BRANCH  16  17
ATOM     17  C   LIG    1       -0.753   1.593  -1.232  0.00  0.00    +0.110 C 
BRANCH  17  18
ATOM     18  C   LIG    1       -0.047   1.107  -2.471  0.00  0.00    -0.170 A 
ATOM     19  C   LIG    1       -0.285  -0.040  -3.127  0.00  0.00    +0.100 A 
ATOM     20  N   LIG    1        0.550  -0.142  -4.207  0.00  0.00    -0.590 N 
ATOM     21  H   LIG    1        0.564  -0.883  -4.832  0.00  0.00    +0.420 HD
ATOM     22  C   LIG    1        1.366   0.966  -4.273  0.00  0.00    +0.090 A 
ATOM     23  C   LIG    1        2.371   1.361  -5.149  0.00  0.00    +0.030 A 
ATOM     24  C   LIG    1        3.026   2.557  -4.951  0.00  0.00    +0.010 A 
ATOM     25  C   LIG    1        2.692   3.378  -3.880  0.00  0.00    +0.070 A 
ATOM     26  C   LIG    1        1.700   3.006  -3.000  0.00  0.00    +0.020 A 
ATOM     27  F   LIG    1        3.345   4.548  -3.701  0.00  0.00    -0.140 F 
ATOM     28  C   LIG    1       -1.319  -1.064  -2.734  0.00  0.00    +0.140 C 
ATOM     29  C   LIG    1        1.023   1.799  -3.193  0.00  0.00    -0.070 A 
ENDBRANCH  17  18
ENDBRANCH  16  17
ENDBRANCH   1  16
TORSDOF 6
