REMARK  Name = ZINCrD000000C8lv.0
REMARK                            x       y       z     vdW  Elec       q    Type
REMARK                         _______ _______ _______ _____ _____    ______ ____
ROOT
ATOM      1  C   LIG    1       -4.401   1.072   0.164  0.00  0.00    +0.170 A 
ATOM      2  C   LIG    1       -5.140   1.186   1.333  0.00  0.00    +0.000 A 
ATOM      3  C   LIG    1       -4.511   1.507   2.521  0.00  0.00    +0.050 A 
ATOM      4  C   LIG    1       -3.146   1.716   2.545  0.00  0.00    +0.010 A 
ATOM      5  C   LIG    1       -2.401   1.606   1.375  0.00  0.00    +0.170 A 
ATOM      6  N   LIG    1       -1.017   1.832   1.425  0.00  0.00    -0.550 N 
ATOM      7  C   LIG    1       -0.453   2.405   2.506  0.00  0.00    +0.530 C 
ATOM      8  O   LIG    1       -1.132   2.668   3.476  0.00  0.00    -0.500 OA
ATOM      9  C   LIG    1       -0.193   1.433   0.275  0.00  0.00    +0.270 C 
ATOM     10  C   LIG    1       -0.916   1.886  -1.000  0.00  0.00    +0.040 C 
ATOM     11  C   LIG    1       -2.250   1.147  -1.101  0.00  0.00    +0.080 C 
ATOM     12  C   LIG    1       -3.025   1.281   0.183  0.00  0.00    -0.150 A 
ENDROOT
BRANCH   7  13
ATOM     13  C   LIG    1        1.021   2.718   2.510  0.00  0.00    -0.030 C 
ATOM     14  C   LIG    1        1.445   3.367   3.856  0.00  0.00    +0.050 C 
ATOM     15  C   LIG    1        2.930   2.934   3.937  0.00  0.00    +0.210 C 
ATOM     16  O   LIG    1        2.966   1.609   3.383  0.00  0.00    -0.380 OA
ATOM     17  C   LIG    1        1.858   1.421   2.494  0.00  0.00    +0.210 C 
ENDBRANCH   7  13
BRANCH   1  20
ATOM     18  O   LIG    1       -6.948   1.651  -0.348  0.00  0.00    -0.510 OA
ATOM     19  C   LIG    1       -6.349   1.023  -1.200  0.00  0.00    +0.560 C 
ATOM     20  N   LIG    1       -5.040   0.746  -1.036  0.00  0.00    -0.660 N 
ATOM     21  H   LIG    1       -4.542   0.320  -1.751  0.00  0.00    +0.410 HD
BRANCH  19  22
ATOM     22  C   LIG    1       -7.055   0.565  -2.413  0.00  0.00    -0.150 A 
ATOM     23  C   LIG    1       -6.368  -0.151  -3.396  0.00  0.00    +0.080 A 
ATOM     24  C   LIG    1       -7.033  -0.582  -4.524  0.00  0.00    -0.010 A 
ATOM     25  C   LIG    1       -8.379  -0.295  -4.689  0.00  0.00    +0.130 A 
ATOM     26  C   LIG    1       -9.065   0.421  -3.720  0.00  0.00    -0.010 A 
ATOM     27  F   LIG    1       -9.025  -0.714  -5.799  0.00  0.00    -0.130 F 
ATOM     28  C   LIG    1       -8.411   0.851  -2.585  0.00  0.00    +0.120 A 
ENDBRANCH  19  22
ENDBRANCH   1  20
TORSDOF 3
