REMARK  Name = ZINCnE000001PKnF.0
REMARK                            x       y       z     vdW  Elec       q    Type
REMARK                         _______ _______ _______ _____ _____    ______ ____
ROOT
ATOM      1  N   LIG    1       -2.045   2.963   4.545  0.00  0.00    -1.050 N 
ATOM      2  H   LIG    1       -1.083   3.075   4.491  0.00  0.00    +0.420 HD
ENDROOT
BRANCH   1   7
ATOM      3  C   LIG    1       -4.255  -1.871   6.553  0.00  0.00    +0.100 C 
ATOM      4  C   LIG    1       -3.666  -0.591   6.018  0.00  0.00    -0.050 A 
ATOM      5  C   LIG    1       -4.173   0.625   6.427  0.00  0.00    +0.000 A 
ATOM      6  C   LIG    1       -3.634   1.803   5.944  0.00  0.00    -0.010 A 
ATOM      7  C   LIG    1       -2.583   1.770   5.034  0.00  0.00    +0.100 A 
ATOM      8  C   LIG    1       -2.069   0.553   4.612  0.00  0.00    +0.040 A 
ATOM      9  C   LIG    1       -2.610  -0.636   5.104  0.00  0.00    -0.120 A 
BRANCH   9  10
ATOM     10  C   LIG    1       -2.070  -1.935   4.659  0.00  0.00    +0.520 C 
ATOM     11  O   LIG    1       -2.456  -2.970   5.184  0.00  0.00    -0.670 OA
ATOM     12  O   LIG    1       -1.236  -1.977   3.766  0.00  0.00    -0.690 OA
ENDBRANCH   9  10
ENDBRANCH   1   7
BRANCH   1  13
ATOM     13  S   LIG    1       -3.050   4.186   4.059  0.00  0.00    +2.610 S 
ATOM     14  O   LIG    1       -2.170   5.186   3.564  0.00  0.00    -0.950 OA
ATOM     15  O   LIG    1       -3.876   4.431   5.189  0.00  0.00    -0.950 OA
BRANCH  13  16
ATOM     16  C   LIG    1       -4.019   3.465   2.706  0.00  0.00    -0.350 C 
BRANCH  16  17
ATOM     17  C   LIG    1       -4.917   4.541   2.092  0.00  0.00    +0.110 C 
BRANCH  17  18
ATOM     18  C   LIG    1       -5.722   3.942   0.968  0.00  0.00    -0.050 A 
ATOM     19  C   LIG    1       -7.037   3.571   1.180  0.00  0.00    +0.030 A 
ATOM     20  C   LIG    1       -7.776   3.022   0.148  0.00  0.00    +0.030 A 
ATOM     21  C   LIG    1       -7.200   2.843  -1.095  0.00  0.00    +0.010 A 
ATOM     22  C   LIG    1       -5.885   3.212  -1.308  0.00  0.00    +0.040 A 
ATOM     23  C   LIG    1       -5.147   3.767  -0.279  0.00  0.00    -0.090 A 
ATOM     24 BR   LIG    1       -3.351   4.279  -0.572  0.00  0.00    -0.040 Br
ENDBRANCH  17  18
ENDBRANCH  16  17
ENDBRANCH  13  16
ENDBRANCH   1  13
TORSDOF 6
