REMARK  Name = ZINCrD00000l31BJ.0
REMARK                            x       y       z     vdW  Elec       q    Type
REMARK                         _______ _______ _______ _____ _____    ______ ____
ROOT
ATOM      1  N   LIG    1       -4.676   2.114   2.607  0.00  0.00    -0.690 N 
ATOM      2  H   LIG    1       -4.510   1.641   1.777  0.00  0.00    +0.420 HD
ENDROOT
BRANCH   1   3
ATOM      3  C   LIG    1       -5.854   1.905   3.298  0.00  0.00    +0.520 A 
ATOM      4  C   LIG    1       -6.828   1.014   2.808  0.00  0.00    -0.330 A 
ATOM      5  C   LIG    1       -6.928   0.174   1.678  0.00  0.00    +0.310 A 
ATOM      6  N   LIG    1       -8.069  -0.452   1.728  0.00  0.00    -0.240 NA
ATOM      7  N   LIG    1       -8.768  -0.068   2.879  0.00  0.00    -0.370 N 
ATOM      8  C   LIG    1       -8.008   0.837   3.558  0.00  0.00    +0.380 A 
ATOM      9  N   LIG    1       -8.159   1.524   4.689  0.00  0.00    -0.580 NA
ATOM     10  C   LIG    1       -7.222   2.349   5.103  0.00  0.00    +0.590 A 
ATOM     11  N   LIG    1       -6.098   2.544   4.437  0.00  0.00    -0.600 NA
BRANCH   7  12
ATOM     12  C   LIG    1      -10.089  -0.555   3.283  0.00  0.00    +0.440 C 
BRANCH  12  13
ATOM     13  C   LIG    1      -11.154   0.336   2.698  0.00  0.00    +0.440 C 
ATOM     14  O   LIG    1      -10.842   1.281   2.013  0.00  0.00    -0.490 OA
BRANCH  13  15
ATOM     15  O   LIG    1      -12.450   0.080   2.937  0.00  0.00    -0.360 OA
ATOM     16  C   LIG    1      -13.421   0.980   2.341  0.00  0.00    +0.270 C 
ENDBRANCH  13  15
ENDBRANCH  12  13
ENDBRANCH   7  12
ENDBRANCH   1   3
BRANCH   1  17
ATOM     17  C   LIG    1       -3.678   3.050   3.130  0.00  0.00    +0.370 C 
BRANCH  17  21
ATOM     18  C   LIG    1       -0.724   2.012   1.250  0.00  0.00    -0.000 A 
ATOM     19  C   LIG    1       -0.142   2.275   2.434  0.00  0.00    -0.060 A 
ATOM     20  C   LIG    1       -1.168   2.702   3.308  0.00  0.00    -0.030 A 
ATOM     21  C   LIG    1       -2.315   2.674   2.607  0.00  0.00    -0.030 A 
ATOM     22  O   LIG    1       -2.039   2.261   1.359  0.00  0.00    -0.170 OA
BRANCH  18  24
ATOM     23  C   LIG    1        0.002  -0.004   0.002  0.00  0.00    +0.040 C 
ATOM     24  C   LIG    1       -0.019   1.526   0.010  0.00  0.00    +0.120 C 
ENDBRANCH  18  24
ENDBRANCH  17  21
BRANCH  17  25
ATOM     25  C   LIG    1       -4.024   4.470   2.677  0.00  0.00    -0.080 C 
ATOM     26  C   LIG    1       -2.981   5.447   3.223  0.00  0.00    +0.040 C 
ATOM     27  C   LIG    1       -5.407   4.851   3.208  0.00  0.00    +0.040 C 
ATOM     28  C   LIG    1       -4.030   4.531   1.149  0.00  0.00    +0.030 C 
ENDBRANCH  17  25
ENDBRANCH   1  17
TORSDOF 8
