REMARK  Name = ZINCpe00000VVGfN.0
REMARK                            x       y       z     vdW  Elec       q    Type
REMARK                         _______ _______ _______ _____ _____    ______ ____
ROOT
ATOM      1  C   LIG    1        5.159   4.643  -1.468  0.00  0.00    +0.040 C 
ENDROOT
BRANCH   1   2
ATOM      2  C   LIG    1        6.429   5.495  -1.474  0.00  0.00    +0.060 C 
BRANCH   2  10
ATOM      3  C   LIG    1       12.457   8.255  -2.733  0.00  0.00    +0.100 C 
ATOM      4  C   LIG    1       11.700   7.619  -3.870  0.00  0.00    +0.510 C 
ATOM      5  N   LIG    1       10.602   6.879  -3.618  0.00  0.00    -0.620 N 
ATOM      6  C   LIG    1        9.790   6.346  -4.721  0.00  0.00    +0.280 C 
ATOM      7  C   LIG    1        8.341   6.808  -4.531  0.00  0.00    +0.280 C 
ATOM      8  N   LIG    1        7.933   6.521  -3.149  0.00  0.00    -0.620 N 
ATOM      9  C   LIG    1        8.742   7.059  -2.046  0.00  0.00    +0.270 C 
ATOM     10  C   LIG    1        6.835   5.782  -2.897  0.00  0.00    +0.520 C 
ATOM     11  O   LIG    1        6.173   5.347  -3.815  0.00  0.00    -0.530 OA
ATOM     12  C   LIG    1       10.195   6.591  -2.236  0.00  0.00    +0.270 C 
ATOM     13  O   LIG    1       12.079   7.772  -5.012  0.00  0.00    -0.540 OA
ENDBRANCH   2  10
ENDBRANCH   1   2
BRANCH   1  14
ATOM     14  C   LIG    1        4.747   4.351  -0.023  0.00  0.00    +0.290 C 
BRANCH  14  15
ATOM     15  N   LIG    1        3.530   3.535  -0.017  0.00  0.00    -0.550 N 
ATOM     16  C   LIG    1        2.314   4.141  -0.004  0.00  0.00    +0.580 A 
ATOM     17  N   LIG    1        1.192   3.488   0.002  0.00  0.00    -0.520 NA
ATOM     18  C   LIG    1        1.157   2.132  -0.004  0.00  0.00    +0.150 A 
ATOM     19  C   LIG    1       -0.049   1.430   0.003  0.00  0.00    +0.030 A 
ATOM     20  C   LIG    1       -0.037   0.053  -0.004  0.00  0.00    +0.070 A 
ATOM     21  C   LIG    1        1.162  -0.648  -0.017  0.00  0.00    -0.010 A 
ATOM     22  C   LIG    1        2.366   0.023  -0.024  0.00  0.00    +0.100 A 
ATOM     23  C   LIG    1        2.375   1.416  -0.018  0.00  0.00    -0.200 A 
ATOM     24  C   LIG    1        3.628   2.186  -0.025  0.00  0.00    +0.550 A 
ATOM     25  O   LIG    1        4.711   1.630  -0.037  0.00  0.00    -0.510 OA
ENDBRANCH  14  15
ENDBRANCH   1  14
TORSDOF 4
