REMARK  Name = ZINCpe00000zmwRQ.0
REMARK                            x       y       z     vdW  Elec       q    Type
REMARK                         _______ _______ _______ _____ _____    ______ ____
ROOT
ATOM      1  C   LIG    1       -2.994  -3.891   0.010  0.00  0.00    -0.030 C 
ATOM      2  C   LIG    1       -4.425  -4.420  -0.103  0.00  0.00    +0.030 C 
ATOM      3  C   LIG    1       -4.403  -5.950  -0.145  0.00  0.00    +0.010 C 
ATOM      4  C   LIG    1       -3.792  -6.484   1.154  0.00  0.00    +0.270 C 
ATOM      5  N   LIG    1       -2.472  -5.866   1.344  0.00  0.00    -0.610 N 
ATOM      6  C   LIG    1       -1.379  -6.629   1.546  0.00  0.00    +0.520 C 
ATOM      7  O   LIG    1       -0.296  -6.107   1.701  0.00  0.00    -0.520 OA
ATOM      8  C   LIG    1       -2.365  -4.401   1.311  0.00  0.00    +0.290 C 
ENDROOT
BRANCH   1   9
ATOM      9  C   LIG    1       -3.014  -2.361   0.018  0.00  0.00    +0.280 C 
BRANCH   9  12
ATOM     10  O   LIG    1       -2.344   0.250   0.026  0.00  0.00    -0.520 OA
ATOM     11  C   LIG    1       -1.412  -0.526   0.013  0.00  0.00    +0.510 C 
ATOM     12  N   LIG    1       -1.640  -1.854   0.008  0.00  0.00    -0.730 N 
ATOM     13  H   LIG    1       -0.894  -2.474  -0.003  0.00  0.00    +0.400 HD
BRANCH  11  14
ATOM     14  C   LIG    1        0.002  -0.004   0.002  0.00  0.00    +0.220 C 
BRANCH  14  15
ATOM     15  O   LIG    1       -0.017   1.425   0.010  0.00  0.00    -0.550 OA
ATOM     16  H   LIG    1        0.861   1.830   0.004  0.00  0.00    +0.390 HD
ENDBRANCH  14  15
ENDBRANCH  11  14
ENDBRANCH   9  12
ENDBRANCH   1   9
BRANCH   6  17
ATOM     17  C   LIG    1       -1.504  -8.130   1.577  0.00  0.00    +0.180 C 
BRANCH  17  18
ATOM     18  C   LIG    1       -0.148  -8.742   1.816  0.00  0.00    +0.150 A 
ATOM     19  N   LIG    1        0.707  -9.095   0.905  0.00  0.00    -0.260 NA
ATOM     20  O   LIG    1        1.865  -9.626   1.516  0.00  0.00    -0.080 OA
ATOM     21  C   LIG    1        1.711  -9.607   2.857  0.00  0.00    +0.080 A 
ATOM     22  C   LIG    1        2.518 -10.005   3.915  0.00  0.00    +0.060 A 
ATOM     23  C   LIG    1        2.076  -9.857   5.211  0.00  0.00    +0.070 A 
ATOM     24  C   LIG    1        0.826  -9.310   5.474  0.00  0.00    +0.080 A 
ATOM     25  C   LIG    1        0.010  -8.909   4.438  0.00  0.00    +0.070 A 
ATOM     26  F   LIG    1        0.407  -9.172   6.751  0.00  0.00    -0.130 F 
ATOM     27  C   LIG    1        0.447  -9.054   3.119  0.00  0.00    -0.160 A 
ENDBRANCH  17  18
ENDBRANCH   6  17
TORSDOF 6
