REMARK  Name = ZINCrD00000F5Lwp.1
REMARK                            x       y       z     vdW  Elec       q    Type
REMARK                         _______ _______ _______ _____ _____    ______ ____
ROOT
ATOM      1  C   LIG    1       -1.334   2.111   0.020  0.00  0.00    +0.100 C 
ATOM      2  C   LIG    1       -0.017   1.379   0.010  0.00  0.00    -0.020 A 
ATOM      3  C   LIG    1        0.002  -0.004   0.002  0.00  0.00    -0.010 A 
ATOM      4  C   LIG    1        1.204  -0.681  -0.014  0.00  0.00    +0.080 A 
ATOM      5  C   LIG    1        2.404   0.034  -0.021  0.00  0.00    -0.140 A 
ATOM      6  C   LIG    1        2.377   1.430  -0.013  0.00  0.00    +0.090 A 
ATOM      7  C   LIG    1        1.169   2.094   0.002  0.00  0.00    -0.100 A 
ENDROOT
BRANCH   5   8
ATOM      8  C   LIG    1        3.695  -0.684  -0.037  0.00  0.00    +0.510 C 
ATOM      9  O   LIG    1        4.737  -0.060  -0.044  0.00  0.00    -0.500 OA
BRANCH   8  10
ATOM     10  O   LIG    1        3.717  -2.031  -0.045  0.00  0.00    -0.350 OA
BRANCH  10  11
ATOM     11  C   LIG    1        5.021  -2.669  -0.061  0.00  0.00    +0.120 C 
ATOM     12  C   LIG    1        5.784  -2.239  -1.315  0.00  0.00    +0.030 C 
ATOM     13  C   LIG    1        4.845  -4.189  -0.067  0.00  0.00    +0.080 C 
ATOM     14  C   LIG    1        5.808  -2.252   1.183  0.00  0.00    +0.030 C 
ENDBRANCH  10  11
ENDBRANCH   8  10
ENDBRANCH   5   8
BRANCH   7  15
ATOM     15  C   LIG    1        1.138   3.600   0.011  0.00  0.00    +0.230 C 
BRANCH  15  16
ATOM     16  N   LIG    1        0.901   4.078   1.379  0.00  0.00    -0.530 NA
ATOM     17  C   LIG    1        1.751   3.364   2.341  0.00  0.00    +0.170 C 
ATOM     18  C   LIG    1        1.375   3.781   3.764  0.00  0.00    +0.010 C 
ATOM     19  C   LIG    1        1.563   5.293   3.914  0.00  0.00    +0.030 C 
ATOM     20  C   LIG    1        0.704   6.012   2.870  0.00  0.00    +0.050 C 
ATOM     21  C   LIG    1        1.099   5.530   1.472  0.00  0.00    +0.170 C 
BRANCH  19  22
ATOM     22  C   LIG    1        1.131   5.725   5.317  0.00  0.00    -0.360 C 
ATOM     23  C   LIG    1        1.747   7.076   5.792  0.00  0.00    +0.050 C 
ATOM     24  C   LIG    1        2.133   6.781   7.274  0.00  0.00    -0.280 C 
ATOM     25  S   LIG    1        2.168   5.054   6.668  0.00  0.00    +2.360 S 
ATOM     26  O   LIG    1        3.460   4.693   6.197  0.00  0.00    -0.920 OA
ATOM     27  O   LIG    1        1.421   4.193   7.515  0.00  0.00    -0.940 OA
ENDBRANCH  19  22
ENDBRANCH  15  16
ENDBRANCH   7  15
TORSDOF 6
