REMARK  Name = ZINCpk00000kIYU3.0
REMARK                            x       y       z     vdW  Elec       q    Type
REMARK                         _______ _______ _______ _____ _____    ______ ____
ROOT
ATOM      1  C   LIG    1       -4.387   1.019  -2.025  0.00  0.00    +0.300 C 
ENDROOT
BRANCH   1   3
ATOM      2  C   LIG    1       -5.857  -0.584  -3.125  0.00  0.00    +0.560 C 
ATOM      3  N   LIG    1       -5.698   0.390  -2.207  0.00  0.00    -0.710 N 
ATOM      4  H   LIG    1       -6.452   0.675  -1.667  0.00  0.00    +0.400 HD
ATOM      5  O   LIG    1       -4.912  -0.942  -3.801  0.00  0.00    -0.510 OA
BRANCH   2  11
ATOM      6  C   LIG    1       -9.135  -4.155  -1.938  0.00  0.00    +0.110 C 
ATOM      7  C   LIG    1       -8.761  -2.935  -2.740  0.00  0.00    -0.070 A 
ATOM      8  C   LIG    1       -9.658  -2.407  -3.652  0.00  0.00    +0.080 A 
ATOM      9  C   LIG    1       -9.324  -1.288  -4.393  0.00  0.00    +0.020 A 
ATOM     10  C   LIG    1       -8.091  -0.686  -4.224  0.00  0.00    +0.130 A 
ATOM     11  C   LIG    1       -7.178  -1.218  -3.308  0.00  0.00    -0.130 A 
ATOM     12  F   LIG    1       -7.768   0.410  -4.945  0.00  0.00    -0.120 F 
ATOM     13  C   LIG    1       -7.524  -2.348  -2.563  0.00  0.00    -0.040 A 
ATOM     14 BR   LIG    1       -6.301  -3.073  -1.317  0.00  0.00    -0.010 Br
ENDBRANCH   2  11
ENDBRANCH   1   3
BRANCH   1  15
ATOM     15  C   LIG    1       -4.479   2.069  -0.948  0.00  0.00    -0.020 C 
ATOM     16  C   LIG    1       -3.644   2.046   0.061  0.00  0.00    -0.020 C 
BRANCH  16  17
ATOM     17  C   LIG    1       -2.489   1.078   0.062  0.00  0.00    +0.290 C 
BRANCH  17  18
ATOM     18  N   LIG    1       -1.241   1.808   0.302  0.00  0.00    -0.710 N 
ATOM     19  H   LIG    1       -1.258   2.769   0.429  0.00  0.00    +0.410 HD
ATOM     20  C   LIG    1       -0.070   1.143   0.345  0.00  0.00    +0.530 C 
ATOM     21  O   LIG    1       -0.048  -0.059   0.185  0.00  0.00    -0.530 OA
BRANCH  20  22
ATOM     22  C   LIG    1        1.215   1.894   0.585  0.00  0.00    -0.010 C 
ATOM     23  C   LIG    1        2.426   0.938   0.491  0.00  0.00    +0.080 C 
ATOM     24  C   LIG    1        3.489   1.841  -0.175  0.00  0.00    +0.270 C 
ATOM     25  N   LIG    1        2.731   2.848  -0.927  0.00  0.00    -0.730 N 
ATOM     26  H   LIG    1        3.104   3.403  -1.629  0.00  0.00    +0.420 HD
ATOM     27  C   LIG    1        1.452   2.903  -0.517  0.00  0.00    +0.530 C 
ATOM     28  O   LIG    1        0.610   3.654  -0.964  0.00  0.00    -0.520 OA
ENDBRANCH  20  22
ENDBRANCH  17  18
ENDBRANCH  16  17
ENDBRANCH   1  15
TORSDOF 6
