REMARK  Name = ZINCvU0000000He3.0
REMARK                            x       y       z     vdW  Elec       q    Type
REMARK                         _______ _______ _______ _____ _____    ______ ____
ROOT
ATOM      1  C   LIG    1        2.382   1.429  -0.013  0.00  0.00    -0.060 A 
ATOM      2  C   LIG    1        1.163   2.097   0.002  0.00  0.00    -0.020 A 
ATOM      3  C   LIG    1       -0.017   1.382   0.010  0.00  0.00    +0.060 A 
ATOM      4  C   LIG    1        0.002  -0.004   0.002  0.00  0.00    -0.010 A 
ATOM      5  C   LIG    1        1.200  -0.684  -0.013  0.00  0.00    +0.070 A 
ATOM      6  C   LIG    1        2.404   0.024  -0.020  0.00  0.00    -0.130 A 
ENDROOT
BRANCH   6   7
ATOM      7  C   LIG    1        3.689  -0.697  -0.036  0.00  0.00    +0.560 C 
ATOM      8  N   LIG    1        3.705  -2.045  -0.042  0.00  0.00    -0.720 N 
ATOM      9  H   LIG    1        2.871  -2.540  -0.037  0.00  0.00    +0.400 HD
ATOM     10  O   LIG    1        4.735  -0.076  -0.042  0.00  0.00    -0.500 OA
BRANCH   8  11
ATOM     11  C   LIG    1        4.983  -2.762  -0.057  0.00  0.00    +0.320 C 
BRANCH  11  12
ATOM     12  C   LIG    1        4.796  -4.134   0.538  0.00  0.00    -0.080 A 
ATOM     13  C   LIG    1        3.654  -4.859   0.257  0.00  0.00    +0.030 A 
ATOM     14  C   LIG    1        3.484  -6.119   0.799  0.00  0.00    +0.030 A 
ATOM     15  C   LIG    1        4.453  -6.650   1.633  0.00  0.00    -0.030 A 
ATOM     16  C   LIG    1        5.593  -5.921   1.918  0.00  0.00    +0.040 A 
ATOM     17 CL   LIG    1        4.237  -8.229   2.320  0.00  0.00    -0.070 Cl
ATOM     18  C   LIG    1        5.764  -4.663   1.371  0.00  0.00    +0.050 A 
ENDBRANCH  11  12
BRANCH  11  19
ATOM     19  C   LIG    1        5.476  -2.895  -1.500  0.00  0.00    -0.060 C 
ATOM     20  C   LIG    1        6.908  -2.450  -1.800  0.00  0.00    +0.020 C 
ATOM     21  C   LIG    1        5.727  -1.605  -2.282  0.00  0.00    +0.030 C 
ENDBRANCH  11  19
ENDBRANCH   8  11
ENDBRANCH   6   7
BRANCH   1  22
ATOM     22  S   LIG    1        3.891   2.338  -0.022  0.00  0.00    +0.090 S 
BRANCH  22  23
ATOM     23  C   LIG    1        3.328   4.063  -0.008  0.00  0.00    +0.030 C 
BRANCH  23  25
ATOM     24  O   LIG    1        5.643   4.519  -0.027  0.00  0.00    -0.510 OA
ATOM     25  C   LIG    1        4.522   4.981  -0.015  0.00  0.00    +0.540 C 
ATOM     26  N   LIG    1        4.345   6.317  -0.006  0.00  0.00    -0.730 N 
ATOM     27  H   LIG    1        3.449   6.688   0.004  0.00  0.00    +0.410 HD
BRANCH  26  28
ATOM     28  C   LIG    1        5.506   7.211  -0.012  0.00  0.00    +0.390 C 
BRANCH  28  29
ATOM     29  C   LIG    1        5.038   8.643  -0.001  0.00  0.00    -0.040 A 
ATOM     30  C   LIG    1        4.799   9.384   1.096  0.00  0.00    -0.030 A 
ATOM     31  C   LIG    1        4.384  10.659   0.647  0.00  0.00    -0.070 A 
ATOM     32  C   LIG    1        4.387  10.618  -0.697  0.00  0.00    +0.180 A 
ATOM     33  O   LIG    1        4.784   9.395  -1.084  0.00  0.00    -0.170 OA
ENDBRANCH  28  29
ENDBRANCH  26  28
ENDBRANCH  23  25
ENDBRANCH  22  23
ENDBRANCH   1  22
TORSDOF 9
