REMARK  Name = ZINCvU0000000JJ8.0
REMARK                            x       y       z     vdW  Elec       q    Type
REMARK                         _______ _______ _______ _____ _____    ______ ____
ROOT
ATOM      1  N   LIG    1       -5.814   3.121  -1.498  0.00  0.00    -0.720 N 
ATOM      2  H   LIG    1       -5.621   2.192  -1.700  0.00  0.00    +0.410 HD
ATOM      3  C   LIG    1       -7.037   3.626  -1.751  0.00  0.00    +0.600 C 
ATOM      4  O   LIG    1       -7.279   4.792  -1.498  0.00  0.00    -0.520 OA
ENDROOT
BRANCH   3   5
ATOM      5  C   LIG    1       -8.077   2.772  -2.332  0.00  0.00    -0.270 A 
ATOM      6  C   LIG    1       -9.324   3.173  -2.622  0.00  0.00    +0.190 A 
ATOM      7  C   LIG    1      -10.157   2.190  -3.172  0.00  0.00    -0.210 A 
ATOM      8  C   LIG    1       -9.527   0.965  -3.316  0.00  0.00    +0.020 A 
ATOM      9  N   LIG    1      -10.438   0.097  -3.858  0.00  0.00    -0.300 N 
ATOM     10  N   LIG    1      -11.636   0.790  -4.049  0.00  0.00    -0.230 NA
ATOM     11  C   LIG    1      -11.493   2.019  -3.653  0.00  0.00    +0.140 A 
ATOM     12  C   LIG    1      -12.556   3.087  -3.694  0.00  0.00    +0.180 C 
ATOM     13  S   LIG    1       -7.865   1.080  -2.752  0.00  0.00    +0.210 S 
BRANCH   9  14
ATOM     14  C   LIG    1      -10.208  -1.250  -4.167  0.00  0.00    +0.170 A 
ATOM     15  C   LIG    1       -8.963  -1.816  -3.931  0.00  0.00    +0.000 A 
ATOM     16  C   LIG    1       -8.741  -3.146  -4.231  0.00  0.00    +0.060 A 
ATOM     17  C   LIG    1       -9.754  -3.911  -4.777  0.00  0.00    +0.020 A 
ATOM     18  C   LIG    1      -10.995  -3.351  -5.019  0.00  0.00    +0.070 A 
ATOM     19  C   LIG    1      -11.226  -2.022  -4.716  0.00  0.00    -0.050 A 
ATOM     20 CL   LIG    1      -12.783  -1.319  -5.019  0.00  0.00    -0.020 Cl
ENDBRANCH   9  14
ENDBRANCH   3   5
BRANCH   1  21
ATOM     21  C   LIG    1       -4.774   3.975  -0.918  0.00  0.00    +0.320 C 
BRANCH  21  24
ATOM     22  N   LIG    1       -2.413   3.758  -0.214  0.00  0.00    -0.670 N 
ATOM     23  H   LIG    1       -2.457   4.672   0.109  0.00  0.00    +0.410 HD
ATOM     24  C   LIG    1       -3.510   3.175  -0.736  0.00  0.00    +0.510 C 
ATOM     25  O   LIG    1       -3.481   2.006  -1.059  0.00  0.00    -0.520 OA
BRANCH  22  33
ATOM     26  C   LIG    1       -1.161   2.972  -2.646  0.00  0.00    +0.090 C 
ATOM     27  C   LIG    1       -0.567   2.643  -1.301  0.00  0.00    -0.070 A 
ATOM     28  C   LIG    1        0.617   1.936  -1.222  0.00  0.00    +0.010 A 
ATOM     29  C   LIG    1        1.166   1.638   0.011  0.00  0.00    +0.020 A 
ATOM     30  C   LIG    1        0.529   2.041   1.170  0.00  0.00    +0.010 A 
ATOM     31  C   LIG    1       -0.658   2.744   1.099  0.00  0.00    -0.080 A 
ATOM     32  C   LIG    1       -1.351   3.184   2.363  0.00  0.00    +0.080 C 
ATOM     33  C   LIG    1       -1.211   3.046  -0.138  0.00  0.00    +0.130 A 
ENDBRANCH  22  33
ENDBRANCH  21  24
ENDBRANCH   1  21
TORSDOF 5
