REMARK  Name = ZINCrg000000sgld.0
REMARK                            x       y       z     vdW  Elec       q    Type
REMARK                         _______ _______ _______ _____ _____    ______ ____
ROOT
ATOM      1  N   LIG    1       -5.881   1.899   1.323  0.00  0.00    -0.520 NA
ATOM      2  C   LIG    1       -5.822   3.364   1.235  0.00  0.00    +0.170 C 
ATOM      3  C   LIG    1       -4.972   3.766   0.025  0.00  0.00    +0.300 C 
ATOM      4  N   LIG    1       -3.667   3.095   0.128  0.00  0.00    -0.600 N 
ATOM      5  C   LIG    1       -3.646   1.641   0.349  0.00  0.00    +0.290 C 
ATOM      6  C   LIG    1       -2.519   3.794   0.016  0.00  0.00    +0.590 C 
ATOM      7  O   LIG    1       -2.553   5.006  -0.079  0.00  0.00    -0.520 OA
ATOM      8  C   LIG    1       -4.548   1.324   1.552  0.00  0.00    +0.190 C 
ENDROOT
BRANCH   6   9
ATOM      9  C   LIG    1       -1.222   3.088   0.010  0.00  0.00    -0.030 A 
ATOM     10  N   LIG    1       -0.793   2.488  -1.097  0.00  0.00    -0.370 NA
ATOM     11  C   LIG    1        0.362   1.854  -1.098  0.00  0.00    +0.170 A 
ATOM     12  C   LIG    1        1.143   1.818   0.049  0.00  0.00    +0.310 A 
ATOM     13  N   LIG    1        0.732   2.414   1.154  0.00  0.00    -0.500 NA
ATOM     14  C   LIG    1       -0.432   3.052   1.171  0.00  0.00    +0.390 A 
BRANCH  14  15
ATOM     15  N   LIG    1       -0.865   3.677   2.325  0.00  0.00    -0.830 N 
ATOM     16  H   LIG    1       -1.680   4.203   2.316  0.00  0.00    +0.410 HD
ATOM     17  H   LIG    1       -0.354   3.590   3.145  0.00  0.00    +0.410 HD
ENDBRANCH  14  15
ENDBRANCH   6   9
BRANCH   1  18
ATOM     18  C   LIG    1       -6.824   1.472   2.366  0.00  0.00    +0.220 C 
BRANCH  18  21
ATOM     19  N   LIG    1       -7.878  -0.633   3.126  0.00  0.00    -0.670 N 
ATOM     20  H   LIG    1       -8.268  -0.138   3.862  0.00  0.00    +0.410 HD
ATOM     21  C   LIG    1       -7.045  -0.015   2.265  0.00  0.00    +0.510 C 
ATOM     22  O   LIG    1       -6.472  -0.657   1.409  0.00  0.00    -0.500 OA
BRANCH  19  28
ATOM     23  C   LIG    1       -9.315  -4.922   5.053  0.00  0.00    +0.090 C 
ATOM     24  C   LIG    1       -8.878  -4.091   3.873  0.00  0.00    -0.070 A 
ATOM     25  C   LIG    1       -8.775  -4.670   2.622  0.00  0.00    -0.010 A 
ATOM     26  C   LIG    1       -8.375  -3.912   1.537  0.00  0.00    +0.030 A 
ATOM     27  C   LIG    1       -8.077  -2.573   1.700  0.00  0.00    +0.020 A 
ATOM     28  C   LIG    1       -8.179  -1.989   2.956  0.00  0.00    +0.150 A 
ATOM     29  C   LIG    1       -8.575  -2.755   4.045  0.00  0.00    -0.120 A 
ATOM     30  C   LIG    1       -8.682  -2.126   5.410  0.00  0.00    +0.080 C 
ENDBRANCH  19  28
ENDBRANCH  18  21
ENDBRANCH   1  18
TORSDOF 5
