REMARK  Name = ZINCrH000004p83p.0
REMARK                            x       y       z     vdW  Elec       q    Type
REMARK                         _______ _______ _______ _____ _____    ______ ____
ROOT
ATOM      1  C   LIG    1        0.015  -0.006  -0.008  0.00  0.00    +0.510 C 
ATOM      2  N   LIG    1       -1.143  -0.694   0.013  0.00  0.00    -0.640 N 
ATOM      3  H   LIG    1       -1.986  -0.223   0.107  0.00  0.00    +0.430 HD
ATOM      4  O   LIG    1        1.073  -0.600  -0.045  0.00  0.00    -0.500 OA
ENDROOT
BRANCH   2   5
ATOM      5  C   LIG    1       -1.131  -2.088  -0.101  0.00  0.00    +0.140 A 
ATOM      6  C   LIG    1       -2.155  -2.739  -0.778  0.00  0.00    +0.020 A 
ATOM      7  C   LIG    1       -2.139  -4.114  -0.895  0.00  0.00    +0.040 A 
ATOM      8  C   LIG    1       -1.107  -4.847  -0.327  0.00  0.00    +0.070 A 
ATOM      9  C   LIG    1       -0.086  -4.198   0.354  0.00  0.00    +0.030 A 
ATOM     10  C   LIG    1       -0.098  -2.822   0.467  0.00  0.00    +0.050 A 
BRANCH   8  11
ATOM     11  O   LIG    1       -1.094  -6.202  -0.438  0.00  0.00    -0.250 OA
BRANCH  11  12
ATOM     12  C   LIG    1       -1.435  -6.934   0.653  0.00  0.00    +0.160 A 
ATOM     13  C   LIG    1       -1.683  -6.318   1.878  0.00  0.00    -0.110 A 
ATOM     14  C   LIG    1       -2.032  -7.096   2.962  0.00  0.00    +0.300 A 
ATOM     15  N   LIG    1       -2.121  -8.408   2.852  0.00  0.00    -0.510 NA
ATOM     16  C   LIG    1       -1.889  -9.029   1.710  0.00  0.00    +0.300 A 
ATOM     17  C   LIG    1       -1.540  -8.321   0.579  0.00  0.00    -0.050 A 
ENDBRANCH  11  12
ENDBRANCH   8  11
ENDBRANCH   2   5
BRANCH   1  20
ATOM     18  N   LIG    1        1.156   2.175  -0.006  0.00  0.00    -0.700 N 
ATOM     19  H   LIG    1        2.001   1.701  -0.036  0.00  0.00    +0.410 HD
ATOM     20  C   LIG    1       -0.003   1.487   0.015  0.00  0.00    +0.510 C 
ATOM     21  O   LIG    1       -1.061   2.081   0.047  0.00  0.00    -0.510 OA
BRANCH  18  22
ATOM     22  C   LIG    1        1.138   3.640   0.016  0.00  0.00    +0.280 C 
BRANCH  22  24
ATOM     23  C   LIG    1        3.228   3.791  -1.345  0.00  0.00    +0.040 C 
ATOM     24  C   LIG    1        2.574   4.168  -0.014  0.00  0.00    +0.050 C 
BRANCH  24  25
ATOM     25  C   LIG    1        2.561   5.668   0.132  0.00  0.00    -0.100 A 
ATOM     26  C   LIG    1        1.938   6.468  -0.734  0.00  0.00    -0.050 A 
ATOM     27  S   LIG    1        2.140   8.144  -0.239  0.00  0.00    +0.110 S 
ATOM     28  C   LIG    1        3.087   7.649   1.158  0.00  0.00    -0.040 A 
ATOM     29  C   LIG    1        3.190   6.319   1.179  0.00  0.00    +0.010 A 
ENDBRANCH  24  25
ENDBRANCH  22  24
ENDBRANCH  18  22
ENDBRANCH   1  20
TORSDOF 7
