REMARK  Name = ZINCpk000000nEbp.0
REMARK                            x       y       z     vdW  Elec       q    Type
REMARK                         _______ _______ _______ _____ _____    ______ ____
ROOT
ATOM      1  C   LIG    1       -0.015   1.342  -0.011  0.00  0.00    +0.590 C 
ATOM      2  N   LIG    1        0.004  -0.005  -0.042  0.00  0.00    -0.710 N 
ATOM      3  H   LIG    1        0.850  -0.478  -0.063  0.00  0.00    +0.400 HD
ATOM      4  O   LIG    1       -1.077   1.935   0.010  0.00  0.00    -0.540 OA
ENDROOT
BRANCH   1  10
ATOM      5  C   LIG    1        1.248   3.500  -0.097  0.00  0.00    +0.460 A 
ATOM      6  N   LIG    1        2.388   4.173  -0.094  0.00  0.00    -0.550 NA
ATOM      7  C   LIG    1        3.554   3.563  -0.010  0.00  0.00    +0.350 A 
ATOM      8  C   LIG    1        3.638   2.185   0.079  0.00  0.00    -0.110 A 
ATOM      9  C   LIG    1        2.478   1.431   0.087  0.00  0.00    +0.140 A 
ATOM     10  C   LIG    1        1.251   2.097  -0.009  0.00  0.00    -0.270 A 
BRANCH   5  11
ATOM     11  N   LIG    1        0.048   4.181  -0.187  0.00  0.00    -0.690 N 
ATOM     12  H   LIG    1       -0.790   3.699  -0.109  0.00  0.00    +0.420 HD
BRANCH  11  14
ATOM     13  C   LIG    1        0.154   5.927  -1.896  0.00  0.00    +0.020 C 
ATOM     14  C   LIG    1        0.042   5.630  -0.399  0.00  0.00    +0.230 C 
ATOM     15  C   LIG    1       -1.263   6.220   0.141  0.00  0.00    +0.030 C 
ENDBRANCH  11  14
ENDBRANCH   5  11
ENDBRANCH   1  10
BRANCH   2  16
ATOM     16  C   LIG    1       -1.255  -0.755  -0.045  0.00  0.00    +0.250 C 
ATOM     17  C   LIG    1       -1.044  -2.163  -0.649  0.00  0.00    +0.050 C 
ATOM     18  C   LIG    1       -1.987  -3.023   0.225  0.00  0.00    +0.260 C 
ATOM     19  N   LIG    1       -2.114  -2.300   1.495  0.00  0.00    -0.620 N 
ATOM     20  C   LIG    1       -1.715  -1.022   1.371  0.00  0.00    +0.500 C 
ATOM     21  O   LIG    1       -1.723  -0.202   2.265  0.00  0.00    -0.500 OA
BRANCH  19  22
ATOM     22  C   LIG    1       -2.612  -2.893   2.739  0.00  0.00    +0.250 C 
ATOM     23  C   LIG    1       -3.856  -2.134   3.207  0.00  0.00    -0.000 C 
ATOM     24  C   LIG    1       -4.321  -2.709   4.548  0.00  0.00    +0.220 C 
ATOM     25  O   LIG    1       -3.259  -2.619   5.499  0.00  0.00    -0.380 OA
ATOM     26  C   LIG    1       -2.086  -3.350   5.135  0.00  0.00    +0.220 C 
ATOM     27  C   LIG    1       -1.530  -2.800   3.820  0.00  0.00    -0.010 C 
ENDBRANCH  19  22
ENDBRANCH   2  16
TORSDOF 5
