REMARK  Name = ZINCpe00000VVGQs.0
REMARK                            x       y       z     vdW  Elec       q    Type
REMARK                         _______ _______ _______ _____ _____    ______ ____
ROOT
ATOM      1  N   LIG    1        0.266   1.986  -7.632  0.00  0.00    -0.540 NA
ATOM      2  C   LIG    1        1.364   1.584  -6.755  0.00  0.00    +0.180 C 
ATOM      3  C   LIG    1        2.274   2.771  -6.526  0.00  0.00    +0.040 C 
ATOM      4  C   LIG    1        1.836   3.527  -5.255  0.00  0.00    +0.250 C 
ATOM      5  N   LIG    1        0.364   3.596  -5.159  0.00  0.00    -0.610 N 
ATOM      6  C   LIG    1       -0.479   3.876  -6.304  0.00  0.00    +0.290 C 
ATOM      7  C   LIG    1       -0.217   3.395  -3.960  0.00  0.00    +0.490 C 
ATOM      8  O   LIG    1       -1.424   3.451  -3.854  0.00  0.00    -0.520 OA
ATOM      9  C   LIG    1       -0.867   2.550  -7.002  0.00  0.00    +0.190 C 
ENDROOT
BRANCH   1  10
ATOM     10  C   LIG    1       -0.122   0.886  -8.526  0.00  0.00    +0.340 C 
BRANCH  10  16
ATOM     11  C   LIG    1        1.474  -1.485  -7.331  0.00  0.00    +0.330 C 
ATOM     12  N   LIG    1        0.030  -1.277  -7.198  0.00  0.00    -0.460 N 
ATOM     13  C   LIG    1       -0.849  -2.084  -6.527  0.00  0.00    +0.110 A 
ATOM     14  C   LIG    1       -2.068  -1.528  -6.661  0.00  0.00    +0.140 A 
ATOM     15  N   LIG    1       -1.937  -0.409  -7.389  0.00  0.00    -0.480 NA
ATOM     16  C   LIG    1       -0.682  -0.250  -7.711  0.00  0.00    +0.170 A 
ENDBRANCH  10  16
ENDBRANCH   1  10
BRANCH   7  17
ATOM     17  C   LIG    1        0.633   3.102  -2.750  0.00  0.00    +0.300 C 
BRANCH  17  18
ATOM     18  N   LIG    1       -0.229   2.925  -1.579  0.00  0.00    -0.590 N 
ATOM     19  C   LIG    1       -0.739   1.586  -1.242  0.00  0.00    +0.280 C 
ATOM     20  C   LIG    1       -0.013   1.086   0.008  0.00  0.00    +0.010 C 
ATOM     21  C   LIG    1       -0.710   1.569   1.267  0.00  0.00    +0.020 C 
ATOM     22  C   LIG    1       -0.633   3.071   1.472  0.00  0.00    +0.040 C 
ATOM     23  C   LIG    1       -1.431   3.805   0.392  0.00  0.00    +0.050 C 
ATOM     24  C   LIG    1       -0.547   3.978  -0.825  0.00  0.00    +0.520 C 
ATOM     25  O   LIG    1       -0.125   5.078  -1.115  0.00  0.00    -0.550 OA
ENDBRANCH  17  18
ENDBRANCH   7  17
TORSDOF 4
