REMARK  Name = ZINCpe000027pH3J.0
REMARK                            x       y       z     vdW  Elec       q    Type
REMARK                         _______ _______ _______ _____ _____    ______ ____
ROOT
ATOM      1  C   LIG    1        3.763   6.036  -0.014  0.00  0.00    +0.550 C 
ATOM      2  N   LIG    1        3.638   7.375  -0.097  0.00  0.00    -0.570 N 
ATOM      3  O   LIG    1        4.862   5.536   0.138  0.00  0.00    -0.510 OA
ENDROOT
BRANCH   2   4
ATOM      4  C   LIG    1        2.307   7.986  -0.139  0.00  0.00    +0.270 C 
ATOM      5  C   LIG    1        1.488   7.588   1.105  0.00  0.00    +0.090 C 
ATOM      6  C   LIG    1        0.304   6.843   0.527  0.00  0.00    +0.530 C 
ATOM      7  N   LIG    1        0.412   6.812  -0.806  0.00  0.00    -0.690 N 
ATOM      8  H   LIG    1       -0.244   6.381  -1.376  0.00  0.00    +0.420 HD
ATOM      9  O   LIG    1       -0.599   6.352   1.171  0.00  0.00    -0.460 OA
ATOM     10  C   LIG    1        1.500   7.424  -1.290  0.00  0.00    +0.520 C 
ATOM     11  O   LIG    1        1.792   7.515  -2.462  0.00  0.00    -0.450 OA
ENDBRANCH   2   4
BRANCH   2  12
ATOM     12  C   LIG    1        4.834   8.221  -0.146  0.00  0.00    +0.200 C 
ATOM     13  C   LIG    1        6.164   7.545  -0.483  0.00  0.00    +0.040 C 
ATOM     14  C   LIG    1        5.887   8.018   0.945  0.00  0.00    +0.020 C 
ENDBRANCH   2  12
BRANCH   1  16
ATOM     15  C   LIG    1        2.708   3.841  -0.104  0.00  0.00    +0.150 C 
ATOM     16  C   LIG    1        2.575   5.182  -0.106  0.00  0.00    -0.120 C 
BRANCH  15  20
ATOM     17  C   LIG    1       -0.733   1.366  -0.377  0.00  0.00    -0.110 A 
ATOM     18  C   LIG    1        0.536   0.789  -0.282  0.00  0.00    +0.100 A 
ATOM     19  C   LIG    1        1.652   1.591  -0.195  0.00  0.00    +0.040 A 
ATOM     20  C   LIG    1        1.515   2.983  -0.197  0.00  0.00    -0.050 A 
ATOM     21  C   LIG    1        0.243   3.559  -0.286  0.00  0.00    +0.000 A 
ATOM     22  C   LIG    1       -0.871   2.757  -0.373  0.00  0.00    +0.080 A 
BRANCH  17  23
ATOM     23  C   LIG    1       -1.930   0.505  -0.476  0.00  0.00    +0.510 C 
ATOM     24  O   LIG    1       -1.810  -0.703  -0.474  0.00  0.00    -0.500 OA
BRANCH  23  26
ATOM     25  C   LIG    1       -4.284   0.154  -0.661  0.00  0.00    +0.290 C 
ATOM     26  O   LIG    1       -3.154   1.061  -0.567  0.00  0.00    -0.350 OA
ENDBRANCH  23  26
ENDBRANCH  17  23
ENDBRANCH  15  20
ENDBRANCH   1  16
TORSDOF 6
