REMARK  Name = ZINCpe000000U1rM.0
REMARK                            x       y       z     vdW  Elec       q    Type
REMARK                         _______ _______ _______ _____ _____    ______ ____
ROOT
ATOM      1  C   LIG    1       -0.590  -0.633  -0.873  0.00  0.00    +0.530 C 
ATOM      2  N   LIG    1       -0.797  -1.962  -0.955  0.00  0.00    -0.610 N 
ATOM      3  C   LIG    1       -0.266  -2.867   0.075  0.00  0.00    +0.270 C 
ATOM      4  C   LIG    1       -1.431  -3.697   0.639  0.00  0.00    +0.300 C 
ATOM      5  N   LIG    1       -2.186  -4.269  -0.484  0.00  0.00    -0.990 NA
ATOM      6  C   LIG    1       -2.713  -3.365  -1.516  0.00  0.00    +0.300 C 
ATOM      7  C   LIG    1       -1.552  -2.534  -2.078  0.00  0.00    +0.280 C 
ATOM      8  O   LIG    1       -0.949   0.093  -1.775  0.00  0.00    -0.530 OA
ENDROOT
BRANCH   5   9
ATOM      9  S   LIG    1       -2.439  -5.902  -0.586  0.00  0.00    +2.730 S 
ATOM     10  O   LIG    1       -3.596  -6.080  -1.392  0.00  0.00    -0.920 OA
ATOM     11  O   LIG    1       -2.330  -6.408   0.738  0.00  0.00    -0.920 OA
BRANCH   9  12
ATOM     12  C   LIG    1       -1.091  -6.583  -1.492  0.00  0.00    -0.310 A 
ATOM     13  N   LIG    1       -1.050  -6.743  -2.789  0.00  0.00    -0.210 NA
ATOM     14  N   LIG    1        0.198  -7.311  -3.089  0.00  0.00    -0.460 N 
ATOM     15  H   LIG    1        0.532  -7.548  -3.969  0.00  0.00    +0.450 HD
ATOM     16  C   LIG    1        0.836  -7.466  -1.916  0.00  0.00    +0.500 A 
ATOM     17  N   LIG    1        0.051  -7.025  -0.966  0.00  0.00    -0.470 NA
ENDBRANCH   9  12
ENDBRANCH   5   9
BRANCH   1  18
ATOM     18  C   LIG    1        0.086  -0.049   0.341  0.00  0.00    +0.030 C 
BRANCH  18  19
ATOM     19  C   LIG    1        1.581  -0.077   0.145  0.00  0.00    -0.080 A 
ATOM     20  C   LIG    1        2.151   0.598  -0.919  0.00  0.00    +0.020 A 
ATOM     21  C   LIG    1        3.522   0.575  -1.096  0.00  0.00    +0.000 A 
ATOM     22  C   LIG    1        4.321  -0.129  -0.215  0.00  0.00    +0.000 A 
ATOM     23  C   LIG    1        3.750  -0.807   0.845  0.00  0.00    +0.000 A 
ATOM     24  C   LIG    1        2.380  -0.782   1.025  0.00  0.00    +0.010 A 
ENDBRANCH  18  19
BRANCH  18  26
ATOM     25  C   LIG    1       -1.867   1.414   0.874  0.00  0.00    +0.010 C 
ATOM     26  C   LIG    1       -0.375   1.397   0.536  0.00  0.00    +0.050 C 
ENDBRANCH  18  26
ENDBRANCH   1  18
TORSDOF 5
