REMARK  Name = ZINCah0000002mvE.0
REMARK                            x       y       z     vdW  Elec       q    Type
REMARK                         _______ _______ _______ _____ _____    ______ ____
ROOT
ATOM      1  C   LIG    1       -0.734   3.484   0.446  0.00  0.00    +0.000 C 
ATOM      2  C   LIG    1        0.766   3.554   0.082  0.00  0.00    +0.260 C 
ATOM      3  N   LIG    1        1.226   2.161   0.051  0.00  0.00    -0.730 N 
ATOM      4  H   LIG    1        2.158   1.892   0.084  0.00  0.00    +0.410 HD
ATOM      5  C   LIG    1        0.192   1.306  -0.029  0.00  0.00    +0.520 C 
ATOM      6  O   LIG    1        0.291   0.099  -0.078  0.00  0.00    -0.540 OA
ATOM      7  C   LIG    1       -1.113   2.071  -0.057  0.00  0.00    +0.050 C 
ENDROOT
BRANCH   1   9
ATOM      8  C   LIG    1       -1.371   4.358  -1.806  0.00  0.00    +0.030 C 
ATOM      9  C   LIG    1       -1.529   4.559  -0.298  0.00  0.00    -0.060 C 
ATOM     10  C   LIG    1       -1.003   5.942   0.090  0.00  0.00    +0.030 C 
ATOM     11  C   LIG    1       -3.008   4.452   0.079  0.00  0.00    +0.040 C 
ENDBRANCH   1   9
TORSDOF 1
