REMARK  Name = ZINCvU0000000H2T.0
REMARK                            x       y       z     vdW  Elec       q    Type
REMARK                         _______ _______ _______ _____ _____    ______ ____
ROOT
ATOM      1  C   LIG    1        3.630   1.581  -0.024  0.00  0.00    +0.470 C 
ATOM      2  O   LIG    1        3.772   2.781  -0.019  0.00  0.00    -0.510 OA
ENDROOT
BRANCH   1   3
ATOM      3  O   LIG    1        2.397   1.051  -0.015  0.00  0.00    -0.330 OA
BRANCH   3   4
ATOM      4  C   LIG    1        1.280   1.980   0.001  0.00  0.00    +0.250 C 
BRANCH   4   7
ATOM      5  N   LIG    1       -1.191   1.867   0.018  0.00  0.00    -0.720 N 
ATOM      6  H   LIG    1       -1.204   2.837   0.023  0.00  0.00    +0.400 HD
ATOM      7  C   LIG    1       -0.014   1.209   0.009  0.00  0.00    +0.520 C 
ATOM      8  O   LIG    1        0.002  -0.004   0.002  0.00  0.00    -0.510 OA
BRANCH   5  10
ATOM      9  C   LIG    1       -2.816   0.740   1.456  0.00  0.00    +0.040 C 
ATOM     10  C   LIG    1       -2.449   1.117   0.020  0.00  0.00    +0.290 C 
BRANCH  10  11
ATOM     11  C   LIG    1       -3.543   1.969  -0.571  0.00  0.00    -0.100 A 
ATOM     12  C   LIG    1       -3.610   3.316  -0.266  0.00  0.00    +0.000 A 
ATOM     13  C   LIG    1       -4.611   4.099  -0.811  0.00  0.00    +0.000 A 
ATOM     14  C   LIG    1       -5.549   3.533  -1.654  0.00  0.00    +0.000 A 
ATOM     15  C   LIG    1       -5.484   2.186  -1.955  0.00  0.00    +0.020 A 
ATOM     16  C   LIG    1       -4.481   1.404  -1.413  0.00  0.00    +0.020 A 
ENDBRANCH  10  11
ENDBRANCH   5  10
ENDBRANCH   4   7
ENDBRANCH   3   4
ENDBRANCH   1   3
BRANCH   1  17
ATOM     17  C   LIG    1        4.837   0.680  -0.041  0.00  0.00    +0.090 C 
BRANCH  17  18
ATOM     18  C   LIG    1        6.109   1.530  -0.048  0.00  0.00    +0.320 C 
BRANCH  18  19
ATOM     19  N   LIG    1        7.283   0.654  -0.064  0.00  0.00    -0.580 N 
ATOM     20  C   LIG    1        7.847   0.242   1.149  0.00  0.00    +0.190 A 
ATOM     21  C   LIG    1        7.909   1.109   2.224  0.00  0.00    -0.020 A 
ATOM     22  C   LIG    1        8.468   0.693   3.419  0.00  0.00    +0.050 A 
ATOM     23  C   LIG    1        8.962  -0.591   3.550  0.00  0.00    +0.000 A 
ATOM     24  C   LIG    1        8.899  -1.472   2.482  0.00  0.00    +0.070 A 
ATOM     25  C   LIG    1        8.341  -1.060   1.286  0.00  0.00    -0.150 A 
ATOM     26  S   LIG    1        8.248  -2.164  -0.088  0.00  0.00    +0.010 S 
ATOM     27  C   LIG    1        8.317  -1.045  -1.452  0.00  0.00    -0.150 A 
ATOM     28  C   LIG    1        8.853  -1.443  -2.662  0.00  0.00    +0.070 A 
ATOM     29  C   LIG    1        8.894  -0.552  -3.722  0.00  0.00    +0.000 A 
ATOM     30  C   LIG    1        8.401   0.730  -3.569  0.00  0.00    +0.050 A 
ATOM     31  C   LIG    1        7.865   1.133  -2.359  0.00  0.00    -0.020 A 
ATOM     32  C   LIG    1        7.820   0.250  -1.292  0.00  0.00    +0.190 A 
ENDBRANCH  18  19
ENDBRANCH  17  18
ENDBRANCH   1  17
TORSDOF 8
