REMARK  Name = ZINCvU00000004yK.0
REMARK                            x       y       z     vdW  Elec       q    Type
REMARK                         _______ _______ _______ _____ _____    ______ ____
ROOT
ATOM      1  C   LIG    1        3.310   5.657   1.421  0.00  0.00    +0.110 C 
ATOM      2  C   LIG    1        2.800   5.386   0.003  0.00  0.00    +0.020 C 
ENDROOT
BRANCH   2   3
ATOM      3  C   LIG    1        1.946   4.144   0.005  0.00  0.00    +0.540 C 
ATOM      4  N   LIG    1        2.526   2.927  -0.007  0.00  0.00    -0.610 N 
ATOM      5  H   LIG    1        3.493   2.851  -0.017  0.00  0.00    +0.430 HD
ATOM      6  O   LIG    1        0.737   4.239   0.018  0.00  0.00    -0.480 OA
BRANCH   4   7
ATOM      7  C   LIG    1        1.739   1.782  -0.005  0.00  0.00    +0.270 A 
ATOM      8  N   LIG    1        2.186   0.566  -0.016  0.00  0.00    -0.490 NA
ATOM      9  C   LIG    1        1.285  -0.407  -0.012  0.00  0.00    +0.130 A 
ATOM     10  C   LIG    1        0.002  -0.004   0.002  0.00  0.00    -0.110 A 
ATOM     11  S   LIG    1       -0.022   1.758   0.012  0.00  0.00    +0.210 S 
BRANCH   9  12
ATOM     12  C   LIG    1        1.666  -1.840  -0.024  0.00  0.00    -0.020 A 
ATOM     13  C   LIG    1        0.681  -2.826  -0.015  0.00  0.00    +0.020 A 
ATOM     14  C   LIG    1        1.041  -4.158  -0.032  0.00  0.00    +0.010 A 
ATOM     15  C   LIG    1        2.377  -4.516  -0.047  0.00  0.00    +0.010 A 
ATOM     16  C   LIG    1        3.359  -3.542  -0.050  0.00  0.00    +0.010 A 
ATOM     17  C   LIG    1        3.011  -2.207  -0.039  0.00  0.00    +0.040 A 
ENDBRANCH   9  12
ENDBRANCH   4   7
ENDBRANCH   2   3
BRANCH   2  18
ATOM     18  S   LIG    1        1.815   6.794  -0.563  0.00  0.00    +0.150 S 
BRANCH  18  19
ATOM     19  C   LIG    1        3.061   8.039  -0.613  0.00  0.00    +0.110 A 
ATOM     20  N   LIG    1        4.326   7.883  -0.304  0.00  0.00    -0.280 NA
ATOM     21  N   LIG    1        4.946   9.001  -0.456  0.00  0.00    -0.270 NA
ATOM     22  C   LIG    1        4.100   9.915  -0.867  0.00  0.00    +0.270 A 
ATOM     23  O   LIG    1        2.890   9.325  -0.980  0.00  0.00    -0.200 OA
BRANCH  22  24
ATOM     24  C   LIG    1        4.414  11.327  -1.159  0.00  0.00    -0.130 A 
ATOM     25  C   LIG    1        3.546  12.281  -1.585  0.00  0.00    +0.320 A 
ATOM     26  N   LIG    1        4.204  13.465  -1.746  0.00  0.00    -0.580 N 
ATOM     27  H   LIG    1        3.794  14.292  -2.043  0.00  0.00    +0.430 HD
ATOM     28  C   LIG    1        5.536  13.316  -1.425  0.00  0.00    +0.090 A 
ATOM     29  C   LIG    1        6.617  14.192  -1.418  0.00  0.00    +0.000 A 
ATOM     30  C   LIG    1        7.863  13.743  -1.039  0.00  0.00    +0.040 A 
ATOM     31  C   LIG    1        8.054  12.421  -0.663  0.00  0.00    -0.010 A 
ATOM     32  C   LIG    1        6.997  11.538  -0.663  0.00  0.00    +0.070 A 
ATOM     33  C   LIG    1        5.730  11.979  -1.038  0.00  0.00    -0.070 A 
ENDBRANCH  22  24
ENDBRANCH  18  19
ENDBRANCH   2  18
TORSDOF 6
