REMARK  Name = ZINCrg00000SjSGo.0
REMARK                            x       y       z     vdW  Elec       q    Type
REMARK                         _______ _______ _______ _____ _____    ______ ____
ROOT
ATOM      1  S   LIG    1       -0.022   1.758   0.012  0.00  0.00    +2.580 S 
ATOM      2  O   LIG    1       -0.560   2.145   1.269  0.00  0.00    -0.920 OA
ATOM      3  O   LIG    1       -0.584   2.158  -1.231  0.00  0.00    -0.920 OA
ENDROOT
BRANCH   1   8
ATOM      4  C   LIG    1        0.018  -2.071  -1.206  0.00  0.00    -0.700 A 
ATOM      5  C   LIG    1        0.039  -2.768  -0.013  0.00  0.00    +0.190 A 
ATOM      6  C   LIG    1        0.041  -2.084   1.188  0.00  0.00    +0.000 A 
ATOM      7  C   LIG    1        0.023  -0.702   1.195  0.00  0.00    +0.190 A 
ATOM      8  C   LIG    1        0.002  -0.004   0.002  0.00  0.00    -0.680 A 
ATOM      9  C   LIG    1       -0.006  -0.689  -1.199  0.00  0.00    +0.240 A 
BRANCH   4  10
ATOM     10  S   LIG    1        0.014  -2.944  -2.737  0.00  0.00    +2.690 S 
ATOM     11  O   LIG    1        0.578  -4.221  -2.472  0.00  0.00    -0.950 OA
ATOM     12  O   LIG    1        0.537  -2.050  -3.710  0.00  0.00    -0.950 OA
BRANCH  10  14
ATOM     13  C   LIG    1       -2.289  -2.221  -3.957  0.00  0.00    +0.300 C 
ATOM     14  N   LIG    1       -1.568  -3.207  -3.147  0.00  0.00    -1.000 NA
ATOM     15  C   LIG    1       -2.248  -4.426  -2.701  0.00  0.00    +0.310 C 
ENDBRANCH  10  14
ENDBRANCH   4  10
ENDBRANCH   1   8
BRANCH   1  16
ATOM     16  C   LIG    1        1.654   2.302  -0.001  0.00  0.00    -0.680 A 
ATOM     17  C   LIG    1        2.300   2.522  -1.204  0.00  0.00    +0.190 A 
ATOM     18  C   LIG    1        3.614   2.950  -1.214  0.00  0.00    +0.000 A 
ATOM     19  C   LIG    1        4.283   3.157  -0.022  0.00  0.00    +0.190 A 
ATOM     20  C   LIG    1        3.637   2.937   1.180  0.00  0.00    -0.700 A 
ATOM     21  C   LIG    1        2.321   2.515   1.191  0.00  0.00    +0.230 A 
BRANCH  20  22
ATOM     22  S   LIG    1        4.489   3.202   2.700  0.00  0.00    +2.690 S 
ATOM     23  O   LIG    1        5.875   3.083   2.409  0.00  0.00    -0.950 OA
ATOM     24  O   LIG    1        3.829   2.407   3.674  0.00  0.00    -0.950 OA
BRANCH  22  25
ATOM     25  N   LIG    1        4.237   4.780   3.135  0.00  0.00    -1.000 NA
ATOM     26  C   LIG    1        5.164   5.821   2.684  0.00  0.00    +0.310 C 
ATOM     27  C   LIG    1        3.086   5.135   3.969  0.00  0.00    +0.310 C 
ENDBRANCH  22  25
ENDBRANCH  20  22
ENDBRANCH   1  16
TORSDOF 6
