REMARK  Name = ZINCrg000000nH96.0
REMARK                            x       y       z     vdW  Elec       q    Type
REMARK                         _______ _______ _______ _____ _____    ______ ____
ROOT
ATOM      1  N   LIG    1       -0.921   2.979   1.205  0.00  0.00    -0.480 NA
ENDROOT
BRANCH   1   2
ATOM      2  C   LIG    1       -0.592   1.556   1.361  0.00  0.00    +0.160 C 
BRANCH   2   3
ATOM      3  C   LIG    1        0.493   1.403   2.396  0.00  0.00    +0.520 C 
ATOM      4  O   LIG    1        0.947   2.382   2.948  0.00  0.00    -0.500 OA
ATOM      5  N   LIG    1        0.960   0.177   2.707  0.00  0.00    -0.860 N 
ATOM      6  H   LIG    1        1.658   0.078   3.373  0.00  0.00    +0.400 HD
ATOM      7  H   LIG    1        0.597  -0.607   2.265  0.00  0.00    +0.400 HD
ENDBRANCH   2   3
BRANCH   2   8
ATOM      8  C   LIG    1       -0.104   0.995   0.024  0.00  0.00    +0.070 C 
BRANCH   8  11
ATOM      9  N   LIG    1        1.760   1.399  -1.551  0.00  0.00    -0.740 N 
ATOM     10  H   LIG    1        1.471   0.617  -2.045  0.00  0.00    +0.400 HD
ATOM     11  C   LIG    1        1.092   1.783  -0.445  0.00  0.00    +0.500 C 
ATOM     12  O   LIG    1        1.454   2.761   0.173  0.00  0.00    -0.480 OA
BRANCH   9  13
ATOM     13  C   LIG    1        2.924   2.165  -2.006  0.00  0.00    +0.250 C 
BRANCH  13  15
ATOM     14  C   LIG    1        4.707   2.322  -3.748  0.00  0.00    +0.030 C 
ATOM     15  C   LIG    1        3.493   1.523  -3.273  0.00  0.00    +0.010 C 
ENDBRANCH  13  15
ENDBRANCH   9  13
ENDBRANCH   8  11
ENDBRANCH   2   8
ENDBRANCH   1   2
BRANCH   1  16
ATOM     16  C   LIG    1       -1.564   3.506   2.416  0.00  0.00    +0.220 C 
BRANCH  16  17
ATOM     17  C   LIG    1       -1.517   5.013   2.394  0.00  0.00    +0.530 C 
ATOM     18  N   LIG    1       -2.072   5.719   3.398  0.00  0.00    -0.560 N 
ATOM     19  C   LIG    1       -2.089   7.181   3.488  0.00  0.00    +0.270 C 
ATOM     20  C   LIG    1       -2.829   7.497   4.798  0.00  0.00    +0.090 C 
ATOM     21  C   LIG    1       -3.186   6.143   5.369  0.00  0.00    -0.140 A 
ATOM     22  C   LIG    1       -3.853   5.796   6.528  0.00  0.00    +0.060 A 
ATOM     23  C   LIG    1       -4.074   4.465   6.830  0.00  0.00    -0.010 A 
ATOM     24  C   LIG    1       -3.612   3.480   5.976  0.00  0.00    +0.050 A 
ATOM     25  C   LIG    1       -2.940   3.822   4.822  0.00  0.00    -0.030 A 
ATOM     26  C   LIG    1       -2.722   5.163   4.505  0.00  0.00    +0.150 A 
ATOM     27  O   LIG    1       -0.979   5.589   1.472  0.00  0.00    -0.490 OA
ENDBRANCH  16  17
ENDBRANCH   1  16
BRANCH   1  28
ATOM     28  C   LIG    1       -1.766   3.196   0.023  0.00  0.00    +0.220 C 
BRANCH  28  29
ATOM     29  C   LIG    1       -3.025   2.333   0.129  0.00  0.00    -0.040 C 
ATOM     30  C   LIG    1       -3.855   2.481  -1.147  0.00  0.00    +0.030 C 
ENDBRANCH  28  29
ENDBRANCH   1  28
TORSDOF 10
