REMARK  Name = ZINCvU000000043H.0
REMARK                            x       y       z     vdW  Elec       q    Type
REMARK                         _______ _______ _______ _____ _____    ______ ____
ROOT
ATOM      1 BR   LIG    1        2.825   0.857  -0.021  0.00  0.00    -0.040 Br
ATOM      2  C   LIG    1        1.176   1.782   0.000  0.00  0.00    -0.120 A 
ATOM      3  C   LIG    1       -0.013   1.076   0.008  0.00  0.00    +0.110 A 
ATOM      4  C   LIG    1       -1.220   1.750   0.017  0.00  0.00    -0.200 A 
ATOM      5  C   LIG    1       -1.238   3.135   0.028  0.00  0.00    +0.180 A 
ATOM      6  C   LIG    1       -0.043   3.843   0.023  0.00  0.00    -0.100 A 
ATOM      7  O   LIG    1       -2.418   3.811   0.034  0.00  0.00    -0.310 OA
ATOM      8  C   LIG    1       -3.587   3.070   0.384  0.00  0.00    +0.390 C 
ATOM      9  O   LIG    1       -3.588   1.835  -0.341  0.00  0.00    -0.370 OA
ATOM     10  C   LIG    1       -2.510   0.969   0.026  0.00  0.00    +0.300 C 
ATOM     11  C   LIG    1        1.160   3.166   0.009  0.00  0.00    +0.120 A 
ENDROOT
BRANCH   8  12
ATOM     12  C   LIG    1       -4.819   3.864   0.033  0.00  0.00    -0.100 A 
ATOM     13  C   LIG    1       -4.693   5.122  -0.528  0.00  0.00    +0.050 A 
ATOM     14  C   LIG    1       -5.823   5.848  -0.855  0.00  0.00    +0.010 A 
ATOM     15  C   LIG    1       -7.078   5.322  -0.612  0.00  0.00    +0.030 A 
ATOM     16  C   LIG    1       -7.203   4.067  -0.046  0.00  0.00    +0.010 A 
ATOM     17  C   LIG    1       -6.073   3.338   0.276  0.00  0.00    +0.040 A 
ENDBRANCH   8  12
BRANCH   6  18
ATOM     18  C   LIG    1       -0.060   5.350   0.032  0.00  0.00    +0.170 C 
BRANCH  18  19
ATOM     19  S   LIG    1       -0.081   5.965  -1.675  0.00  0.00    +0.020 S 
BRANCH  19  20
ATOM     20  C   LIG    1       -0.099   7.714  -1.466  0.00  0.00    +0.210 A 
ATOM     21  N   LIG    1       -0.096   8.353  -0.321  0.00  0.00    -0.280 NA
ATOM     22  N   LIG    1       -0.114   9.727  -0.592  0.00  0.00    -0.320 NA
ATOM     23  C   LIG    1       -0.127   9.884  -1.896  0.00  0.00    +0.440 A 
ATOM     24  N   LIG    1       -0.147  10.836  -2.901  0.00  0.00    -0.600 N 
ATOM     25  H   LIG    1       -0.157  11.798  -2.775  0.00  0.00    +0.450 HD
ATOM     26  C   LIG    1       -0.151  10.173  -4.124  0.00  0.00    +0.140 A 
ATOM     27  C   LIG    1       -0.168  10.621  -5.438  0.00  0.00    +0.020 A 
ATOM     28  C   LIG    1       -0.167   9.710  -6.476  0.00  0.00    +0.060 A 
ATOM     29  C   LIG    1       -0.150   8.352  -6.211  0.00  0.00    +0.020 A 
ATOM     30  C   LIG    1       -0.132   7.896  -4.907  0.00  0.00    +0.070 A 
ATOM     31  C   LIG    1       -0.133   8.803  -3.858  0.00  0.00    +0.060 A 
ATOM     32  N   LIG    1       -0.112   8.644  -2.470  0.00  0.00    -0.440 N 
ENDBRANCH  19  20
ENDBRANCH  18  19
ENDBRANCH   6  18
TORSDOF 4
