REMARK  Name = ZINCrg000000qIUt.0
REMARK                            x       y       z     vdW  Elec       q    Type
REMARK                         _______ _______ _______ _____ _____    ______ ____
ROOT
ATOM      1  C   LIG    1       -2.567  -2.703  -0.094  0.00  0.00    +0.510 C 
ATOM      2  N   LIG    1       -2.793  -4.031  -0.071  0.00  0.00    -0.610 N 
ATOM      3  C   LIG    1       -1.671  -4.981  -0.080  0.00  0.00    +0.270 C 
ATOM      4  C   LIG    1       -1.814  -5.913   1.135  0.00  0.00    +0.280 C 
ATOM      5  N   LIG    1       -3.186  -6.438   1.163  0.00  0.00    -0.610 N 
ATOM      6  C   LIG    1       -4.308  -5.489   1.167  0.00  0.00    +0.290 C 
ATOM      7  C   LIG    1       -3.411  -7.767   1.186  0.00  0.00    +0.610 C 
ATOM      8  O   LIG    1       -4.545  -8.190   1.312  0.00  0.00    -0.510 OA
ATOM      9  C   LIG    1       -4.165  -4.557  -0.043  0.00  0.00    +0.290 C 
ATOM     10  O   LIG    1       -3.501  -1.929  -0.091  0.00  0.00    -0.530 OA
ENDROOT
BRANCH   7  11
ATOM     11  C   LIG    1       -2.290  -8.703   1.059  0.00  0.00    -0.090 A 
ATOM     12  C   LIG    1       -2.386 -10.061   0.949  0.00  0.00    +0.050 A 
ATOM     13  C   LIG    1       -1.075 -10.552   0.849  0.00  0.00    -0.060 A 
ATOM     14  C   LIG    1       -0.246  -9.487   0.909  0.00  0.00    +0.200 A 
ATOM     15  O   LIG    1       -0.981  -8.375   1.036  0.00  0.00    -0.160 OA
ENDBRANCH   7  11
BRANCH   1  16
ATOM     16  C   LIG    1       -1.155  -2.179  -0.122  0.00  0.00    +0.300 C 
BRANCH  16  18
ATOM     17  C   LIG    1       -0.021  -0.022  -0.171  0.00  0.00    +0.570 C 
ATOM     18  N   LIG    1       -1.178  -0.714  -0.143  0.00  0.00    -0.720 N 
ATOM     19  H   LIG    1       -2.025  -0.242  -0.138  0.00  0.00    +0.410 HD
ATOM     20  O   LIG    1        1.041  -0.614  -0.178  0.00  0.00    -0.540 OA
BRANCH  17  24
ATOM     21  C   LIG    1       -0.088   4.224  -0.232  0.00  0.00    +0.160 A 
ATOM     22  C   LIG    1        1.127   3.549  -0.240  0.00  0.00    -0.020 A 
ATOM     23  C   LIG    1        1.153   2.173  -0.220  0.00  0.00    +0.130 A 
ATOM     24  C   LIG    1       -0.044   1.454  -0.192  0.00  0.00    -0.180 A 
ATOM     25  C   LIG    1       -1.264   2.135  -0.189  0.00  0.00    +0.090 A 
ATOM     26  C   LIG    1       -1.282   3.512  -0.204  0.00  0.00    -0.080 A 
BRANCH  21  28
ATOM     27  C   LIG    1       -1.393   6.209  -0.241  0.00  0.00    +0.240 C 
ATOM     28  O   LIG    1       -0.109   5.580  -0.251  0.00  0.00    -0.310 OA
ENDBRANCH  21  28
ENDBRANCH  17  24
ENDBRANCH  16  18
ENDBRANCH   1  16
TORSDOF 5
