REMARK  Name = ZINCrH000004vGhq.0
REMARK                            x       y       z     vdW  Elec       q    Type
REMARK                         _______ _______ _______ _____ _____    ______ ____
ROOT
ATOM      1  C   LIG    1       -1.261  -0.768   0.011  0.00  0.00    +0.590 C 
ATOM      2  N   LIG    1       -2.438  -0.118  -0.076  0.00  0.00    -0.530 N 
ATOM      3  C   LIG    1       -3.699  -0.867  -0.068  0.00  0.00    +0.360 C 
ATOM      4  C   LIG    1       -4.627  -0.322  -1.123  0.00  0.00    -0.100 A 
ATOM      5  C   LIG    1       -5.556  -1.146  -1.724  0.00  0.00    +0.020 A 
ATOM      6  C   LIG    1       -6.420  -0.637  -2.678  0.00  0.00    +0.010 A 
ATOM      7  C   LIG    1       -6.361   0.698  -3.034  0.00  0.00    +0.020 A 
ATOM      8  C   LIG    1       -5.430   1.531  -2.444  0.00  0.00    +0.030 A 
ATOM      9  C   LIG    1       -4.552   1.022  -1.493  0.00  0.00    -0.030 A 
ATOM     10  C   LIG    1       -3.511   1.884  -0.886  0.00  0.00    -0.070 A 
ATOM     11  C   LIG    1       -3.538   3.264  -1.031  0.00  0.00    +0.040 A 
ATOM     12  C   LIG    1       -2.551   4.033  -0.443  0.00  0.00    +0.000 A 
ATOM     13  C   LIG    1       -1.535   3.434   0.280  0.00  0.00    +0.040 A 
ATOM     14  C   LIG    1       -1.488   2.058   0.414  0.00  0.00    +0.020 A 
ATOM     15  C   LIG    1       -2.467   1.276  -0.168  0.00  0.00    +0.150 A 
ATOM     16  O   LIG    1       -0.217  -0.144  -0.025  0.00  0.00    -0.500 OA
ENDROOT
BRANCH   1  22
ATOM     17  O   LIG    1       -1.459  -6.188   0.558  0.00  0.00    -0.490 OA
ATOM     18  C   LIG    1       -1.339  -4.984   0.426  0.00  0.00    +0.520 A 
ATOM     19  N   LIG    1       -2.413  -4.171   0.498  0.00  0.00    -0.470 N 
ATOM     20  H   LIG    1       -3.282  -4.572   0.657  0.00  0.00    +0.440 HD
ATOM     21  N   LIG    1       -2.347  -2.901   0.367  0.00  0.00    -0.190 NA
ATOM     22  C   LIG    1       -1.238  -2.237   0.148  0.00  0.00    +0.070 A 
ATOM     23  C   LIG    1        0.031  -2.976   0.042  0.00  0.00    -0.040 A 
ATOM     24  C   LIG    1        1.250  -2.349  -0.188  0.00  0.00    +0.080 A 
ATOM     25  C   LIG    1        2.397  -3.110  -0.275  0.00  0.00    +0.060 A 
ATOM     26  C   LIG    1        2.347  -4.490  -0.136  0.00  0.00    +0.030 A 
ATOM     27  C   LIG    1        1.148  -5.132   0.093  0.00  0.00    +0.090 A 
ATOM     28  C   LIG    1       -0.020  -4.382   0.184  0.00  0.00    -0.140 A 
ENDBRANCH   1  22
TORSDOF 1
