REMARK  Name = ZINCvU0000000AFy.1
REMARK                            x       y       z     vdW  Elec       q    Type
REMARK                         _______ _______ _______ _____ _____    ______ ____
ROOT
ATOM      1  O   LIG    1        7.858   3.891  -0.341  0.00  0.00    -0.510 OA
ATOM      2  C   LIG    1        7.498   4.818   0.358  0.00  0.00    +0.560 C 
ATOM      3  N   LIG    1        6.199   4.945   0.692  0.00  0.00    -0.670 N 
ATOM      4  H   LIG    1        5.901   5.720   1.194  0.00  0.00    +0.410 HD
ENDROOT
BRANCH   3   5
ATOM      5  C   LIG    1        5.279   3.960   0.315  0.00  0.00    +0.170 A 
ATOM      6  C   LIG    1        5.429   3.301  -0.904  0.00  0.00    +0.030 A 
ATOM      7  C   LIG    1        4.542   2.337  -1.287  0.00  0.00    +0.100 A 
ATOM      8  C   LIG    1        3.471   2.004  -0.454  0.00  0.00    +0.040 A 
ATOM      9  N   LIG    1        2.450   1.113  -0.555  0.00  0.00    -0.490 NA
ATOM     10  C   LIG    1        1.699   1.185   0.505  0.00  0.00    +0.300 A 
ATOM     11  N   LIG    1        2.184   2.130   1.357  0.00  0.00    -0.600 N 
ATOM     12  H   LIG    1        1.805   2.379   2.215  0.00  0.00    +0.420 HD
ATOM     13  C   LIG    1        3.316   2.666   0.776  0.00  0.00    +0.070 A 
ATOM     14  C   LIG    1        4.224   3.643   1.155  0.00  0.00    -0.010 A 
BRANCH  10  15
ATOM     15  C   LIG    1        0.470   0.350   0.751  0.00  0.00    +0.090 C 
ATOM     16  C   LIG    1       -0.022   0.391   2.207  0.00  0.00    +0.020 C 
ATOM     17  C   LIG    1       -1.452   0.439   1.637  0.00  0.00    +0.020 C 
ATOM     18  C   LIG    1       -0.842   1.056   0.368  0.00  0.00    +0.030 C 
ENDBRANCH  10  15
ENDBRANCH   3   5
BRANCH   2  19
ATOM     19  C   LIG    1        8.486   5.805   0.843  0.00  0.00    -0.130 A 
ATOM     20  C   LIG    1        8.075   6.873   1.642  0.00  0.00    +0.040 A 
ATOM     21  C   LIG    1        9.003   7.789   2.094  0.00  0.00    +0.020 A 
ATOM     22  C   LIG    1       10.336   7.655   1.750  0.00  0.00    -0.080 A 
ATOM     23  C   LIG    1       10.749   6.601   0.955  0.00  0.00    +0.040 A 
ATOM     24  C   LIG    1        9.833   5.676   0.499  0.00  0.00    +0.080 A 
BRANCH  22  25
ATOM     25  C   LIG    1       11.343   8.661   2.244  0.00  0.00    +0.320 C 
BRANCH  25  26
ATOM     26  N   LIG    1       11.455   9.755   1.276  0.00  0.00    -0.720 N 
ATOM     27  H   LIG    1       10.919   9.744   0.467  0.00  0.00    +0.400 HD
ATOM     28  C   LIG    1       12.302  10.777   1.508  0.00  0.00    +0.590 C 
ATOM     29  O   LIG    1       12.974  10.791   2.523  0.00  0.00    -0.520 OA
BRANCH  28  30
ATOM     30  C   LIG    1       12.414  11.872   0.540  0.00  0.00    -0.270 A 
ATOM     31  C   LIG    1       13.234  12.958   0.663  0.00  0.00    +0.110 A 
ATOM     32  C   LIG    1       13.139  13.833  -0.394  0.00  0.00    +0.000 A 
ATOM     33  C   LIG    1       12.273  13.477  -1.349  0.00  0.00    -0.050 A 
ATOM     34  S   LIG    1       11.521  11.993  -0.970  0.00  0.00    +0.200 S 
ENDBRANCH  28  30
ENDBRANCH  25  26
ENDBRANCH  22  25
ENDBRANCH   2  19
TORSDOF 6
