REMARK  Name = ZINCvU0000000AFy.0
REMARK                            x       y       z     vdW  Elec       q    Type
REMARK                         _______ _______ _______ _____ _____    ______ ____
ROOT
ATOM      1  O   LIG    1        4.774   0.239   0.057  0.00  0.00    -0.510 OA
ATOM      2  C   LIG    1        4.765   1.455   0.063  0.00  0.00    +0.560 C 
ATOM      3  N   LIG    1        3.596   2.121  -0.024  0.00  0.00    -0.670 N 
ATOM      4  H   LIG    1        3.593   3.088  -0.096  0.00  0.00    +0.410 HD
ENDROOT
BRANCH   3   5
ATOM      5  C   LIG    1        2.386   1.417  -0.008  0.00  0.00    +0.140 A 
ATOM      6  C   LIG    1        2.273   0.250   0.745  0.00  0.00    +0.040 A 
ATOM      7  C   LIG    1        1.088  -0.453   0.768  0.00  0.00    +0.040 A 
ATOM      8  C   LIG    1       -0.001   0.002   0.037  0.00  0.00    +0.040 A 
ATOM      9  N   LIG    1       -1.292  -0.457  -0.148  0.00  0.00    -0.600 N 
ATOM     10  H   LIG    1       -1.681  -1.254   0.246  0.00  0.00    +0.420 HD
ATOM     11  C   LIG    1       -1.915   0.415  -0.984  0.00  0.00    +0.300 A 
ATOM     12  N   LIG    1       -1.101   1.374  -1.318  0.00  0.00    -0.490 NA
ATOM     13  C   LIG    1        0.104   1.177  -0.725  0.00  0.00    +0.070 A 
ATOM     14  C   LIG    1        1.310   1.883  -0.741  0.00  0.00    +0.040 A 
BRANCH  11  15
ATOM     15  C   LIG    1       -3.342   0.293  -1.451  0.00  0.00    +0.090 C 
ATOM     16  C   LIG    1       -4.171  -0.720  -0.643  0.00  0.00    +0.020 C 
ATOM     17  C   LIG    1       -4.800  -1.151  -1.980  0.00  0.00    +0.030 C 
ATOM     18  C   LIG    1       -3.517  -0.644  -2.659  0.00  0.00    +0.030 C 
ENDBRANCH  11  15
ENDBRANCH   3   5
BRANCH   2  19
ATOM     19  C   LIG    1        6.036   2.203   0.164  0.00  0.00    -0.130 A 
ATOM     20  C   LIG    1        6.030   3.599   0.166  0.00  0.00    +0.040 A 
ATOM     21  C   LIG    1        7.219   4.290   0.266  0.00  0.00    +0.030 A 
ATOM     22  C   LIG    1        8.417   3.604   0.354  0.00  0.00    -0.080 A 
ATOM     23  C   LIG    1        8.430   2.220   0.348  0.00  0.00    +0.030 A 
ATOM     24  C   LIG    1        7.248   1.516   0.254  0.00  0.00    +0.080 A 
BRANCH  22  25
ATOM     25  C   LIG    1        9.713   4.366   0.457  0.00  0.00    +0.320 C 
BRANCH  25  26
ATOM     26  N   LIG    1       10.238   4.620  -0.887  0.00  0.00    -0.720 N 
ATOM     27  H   LIG    1        9.752   4.305  -1.665  0.00  0.00    +0.400 HD
ATOM     28  C   LIG    1       11.396   5.292  -1.042  0.00  0.00    +0.590 C 
ATOM     29  O   LIG    1       12.006   5.687  -0.066  0.00  0.00    -0.520 OA
BRANCH  28  30
ATOM     30  C   LIG    1       11.921   5.546  -2.387  0.00  0.00    -0.270 A 
ATOM     31  C   LIG    1       13.079   6.213  -2.672  0.00  0.00    +0.110 A 
ATOM     32  C   LIG    1       13.334   6.308  -4.020  0.00  0.00    +0.000 A 
ATOM     33  C   LIG    1       12.417   5.740  -4.812  0.00  0.00    -0.050 A 
ATOM     34  S   LIG    1       11.166   5.036  -3.890  0.00  0.00    +0.200 S 
ENDBRANCH  28  30
ENDBRANCH  25  26
ENDBRANCH  22  25
ENDBRANCH   2  19
TORSDOF 6
