REMARK  Name = ZINCvU00000004EA.0
REMARK                            x       y       z     vdW  Elec       q    Type
REMARK                         _______ _______ _______ _____ _____    ______ ____
ROOT
ATOM      1  C   LIG    1       -4.322   2.527   0.178  0.00  0.00    -0.190 C 
ATOM      2  C   LIG    1       -4.682   3.863   0.118  0.00  0.00    +0.250 C 
ENDROOT
BRANCH   1   3
ATOM      3  C   LIG    1       -2.900   2.149   0.230  0.00  0.00    +0.320 A 
ATOM      4  N   LIG    1       -2.296   1.619   1.268  0.00  0.00    -0.440 NA
ATOM      5  C   LIG    1       -0.992   1.398   0.973  0.00  0.00    +0.050 A 
ATOM      6  C   LIG    1        0.079   0.864   1.697  0.00  0.00    +0.070 A 
ATOM      7  C   LIG    1        1.319   0.760   1.108  0.00  0.00    +0.000 A 
ATOM      8  C   LIG    1        1.516   1.186  -0.198  0.00  0.00    +0.040 A 
ATOM      9  C   LIG    1        0.472   1.720  -0.925  0.00  0.00    +0.000 A 
ATOM     10  C   LIG    1       -0.784   1.833  -0.348  0.00  0.00    +0.060 A 
ATOM     11  N   LIG    1       -2.003   2.309  -0.795  0.00  0.00    -0.600 N 
ATOM     12  H   LIG    1       -2.191   2.678  -1.672  0.00  0.00    +0.420 HD
ENDBRANCH   1   3
BRANCH   2  13
ATOM     13  C   LIG    1       -3.702   4.863   0.263  0.00  0.00    -0.260 A 
ATOM     14  C   LIG    1       -3.939   6.218   0.270  0.00  0.00    +0.100 A 
ATOM     15  C   LIG    1       -2.799   6.964   0.427  0.00  0.00    -0.030 A 
ATOM     16  C   LIG    1       -1.666   6.256   0.545  0.00  0.00    -0.210 A 
ATOM     17  C   LIG    1       -0.297   6.861   0.726  0.00  0.00    +0.140 C 
ATOM     18  S   LIG    1       -1.979   4.581   0.470  0.00  0.00    +0.250 S 
ENDBRANCH   2  13
BRANCH   1  19
ATOM     19  C   LIG    1       -5.357   1.489   0.190  0.00  0.00    +0.460 C 
ATOM     20  O   LIG    1       -6.528   1.798   0.320  0.00  0.00    -0.440 OA
BRANCH  19  23
ATOM     21  C   LIG    1       -5.364  -2.251   0.557  0.00  0.00    +0.140 A 
ATOM     22  C   LIG    1       -5.719  -0.922   0.696  0.00  0.00    -0.030 A 
ATOM     23  C   LIG    1       -4.980   0.069   0.044  0.00  0.00    -0.070 A 
ATOM     24  C   LIG    1       -3.887  -0.287  -0.751  0.00  0.00    -0.060 A 
ATOM     25  C   LIG    1       -3.533  -1.617  -0.881  0.00  0.00    +0.140 A 
ATOM     26  C   LIG    1       -4.271  -2.603  -0.231  0.00  0.00    +0.060 A 
BRANCH  21  28
ATOM     27  C   LIG    1       -7.192  -2.784   1.983  0.00  0.00    +0.250 C 
ATOM     28  O   LIG    1       -6.083  -3.216   1.191  0.00  0.00    -0.300 OA
ENDBRANCH  21  28
BRANCH  25  29
ATOM     29  O   LIG    1       -2.467  -1.964  -1.650  0.00  0.00    -0.300 OA
ATOM     30  C   LIG    1       -1.818  -0.914  -2.372  0.00  0.00    +0.240 C 
ENDBRANCH  25  29
BRANCH  26  31
ATOM     31  O   LIG    1       -3.925  -3.910  -0.366  0.00  0.00    -0.310 OA
ATOM     32  C   LIG    1       -4.523  -4.631  -1.445  0.00  0.00    +0.230 C 
ENDBRANCH  26  31
ENDBRANCH  19  23
ENDBRANCH   1  19
TORSDOF 7
