REMARK  Name = ZINCtV000002wB3I.0
REMARK                            x       y       z     vdW  Elec       q    Type
REMARK                         _______ _______ _______ _____ _____    ______ ____
ROOT
ATOM      1  C   LIG    1        3.368   0.056   0.910  0.00  0.00    -0.190 A 
ATOM      2  C   LIG    1        2.028  -0.143   0.721  0.00  0.00    +0.040 A 
ATOM      3  S   LIG    1        1.654  -1.803   0.765  0.00  0.00    +0.310 S 
ATOM      4  C   LIG    1        3.328  -2.260   1.033  0.00  0.00    -0.240 A 
ATOM      5  C   LIG    1        3.825  -3.685   1.186  0.00  0.00    +0.120 C 
ATOM      6  C   LIG    1        5.220  -3.654   1.815  0.00  0.00    -0.010 C 
ATOM      7  C   LIG    1        5.841  -5.051   1.751  0.00  0.00    +0.030 C 
ATOM      8  C   LIG    1        6.096  -2.666   1.039  0.00  0.00    +0.030 C 
ATOM      9  C   LIG    1        5.614  -1.241   1.318  0.00  0.00    +0.100 C 
ATOM     10  C   LIG    1        4.113  -1.178   1.090  0.00  0.00    -0.040 A 
ENDROOT
BRANCH   2  11
ATOM     11  N   LIG    1        1.101   0.869   0.527  0.00  0.00    -0.630 N 
ATOM     12  H   LIG    1        1.389   1.795   0.518  0.00  0.00    +0.420 HD
ATOM     13  C   LIG    1       -0.200   0.566   0.349  0.00  0.00    +0.500 C 
ATOM     14  O   LIG    1       -0.560  -0.592   0.360  0.00  0.00    -0.470 OA
BRANCH  13  15
ATOM     15  C   LIG    1       -1.207   1.666   0.132  0.00  0.00    +0.000 C 
ATOM     16  C   LIG    1       -1.581   2.288   1.478  0.00  0.00    +0.120 C 
BRANCH  15  17
ATOM     17  S   LIG    1       -2.693   0.979  -0.650  0.00  0.00    +0.020 S 
BRANCH  17  18
ATOM     18  C   LIG    1       -2.131   0.557  -2.266  0.00  0.00    -0.080 A 
ATOM     19  C   LIG    1       -0.846   0.899  -2.668  0.00  0.00    +0.010 A 
ATOM     20  C   LIG    1       -0.407   0.562  -3.934  0.00  0.00    -0.010 A 
ATOM     21  C   LIG    1       -1.250  -0.107  -4.805  0.00  0.00    +0.050 A 
ATOM     22  C   LIG    1       -2.532  -0.444  -4.410  0.00  0.00    +0.080 A 
ATOM     23 CL   LIG    1        1.201   0.982  -4.435  0.00  0.00    -0.050 Cl
ATOM     24  C   LIG    1       -2.975  -0.114  -3.144  0.00  0.00    -0.020 A 
ATOM     25 CL   LIG    1       -4.585  -0.537  -2.650  0.00  0.00    -0.040 Cl
ENDBRANCH  17  18
ENDBRANCH  15  17
ENDBRANCH  13  15
ENDBRANCH   2  11
BRANCH   1  26
ATOM     26  C   LIG    1        3.990   1.381   0.929  0.00  0.00    +0.540 C 
ATOM     27  O   LIG    1        4.093   1.990   1.977  0.00  0.00    -0.490 OA
BRANCH  26  28
ATOM     28  O   LIG    1        4.449   1.927  -0.216  0.00  0.00    -0.350 OA
BRANCH  28  30
ATOM     29  C   LIG    1        5.511   3.695  -1.511  0.00  0.00    +0.070 C 
ATOM     30  C   LIG    1        5.054   3.244  -0.122  0.00  0.00    +0.200 C 
ENDBRANCH  28  30
ENDBRANCH  26  28
ENDBRANCH   1  26
TORSDOF 7
