REMARK  Name = ZINCrg000000nz33.0
REMARK                            x       y       z     vdW  Elec       q    Type
REMARK                         _______ _______ _______ _____ _____    ______ ____
ROOT
ATOM      1  N   LIG    1       -3.108  -2.534   1.077  0.00  0.00    -0.520 NA
ATOM      2  C   LIG    1       -2.275  -2.913  -0.073  0.00  0.00    +0.190 C 
ATOM      3  C   LIG    1       -0.941  -2.166  -0.001  0.00  0.00    +0.230 C 
ATOM      4  N   LIG    1       -1.192  -0.718   0.009  0.00  0.00    -0.470 N 
ATOM      5  C   LIG    1       -2.026  -0.340   1.159  0.00  0.00    +0.210 C 
ATOM      6  C   LIG    1       -3.360  -1.086   1.087  0.00  0.00    +0.200 C 
ENDROOT
BRANCH   4   7
ATOM      7  C   LIG    1        0.002  -0.004   0.002  0.00  0.00    +0.250 A 
ATOM      8  C   LIG    1       -0.017   1.391   0.010  0.00  0.00    +0.050 A 
ATOM      9  C   LIG    1        1.197   2.057   0.002  0.00  0.00    +0.080 A 
ATOM     10  C   LIG    1        2.363   1.292  -0.014  0.00  0.00    +0.290 A 
ATOM     11  N   LIG    1        2.284  -0.028  -0.020  0.00  0.00    -0.240 NA
ATOM     12  N   LIG    1        1.160  -0.647  -0.013  0.00  0.00    -0.250 NA
BRANCH  10  13
ATOM     13  N   LIG    1        3.614   1.920  -0.022  0.00  0.00    -0.320 N 
ATOM     14  C   LIG    1        4.821   1.299  -0.037  0.00  0.00    +0.270 A 
ATOM     15  C   LIG    1        5.775   2.258  -0.041  0.00  0.00    -0.100 A 
ATOM     16  C   LIG    1        5.136   3.503  -0.028  0.00  0.00    +0.270 A 
ATOM     17  N   LIG    1        3.843   3.302  -0.023  0.00  0.00    -0.290 NA
ENDBRANCH  10  13
ENDBRANCH   4   7
BRANCH   1  18
ATOM     18  C   LIG    1       -4.369  -3.288   1.084  0.00  0.00    +0.220 C 
BRANCH  18  25
ATOM     19  C   LIG    1      -10.514  -3.515   2.377  0.00  0.00    +0.020 C 
ATOM     20  C   LIG    1       -9.079  -3.969   2.654  0.00  0.00    -0.020 C 
ATOM     21  C   LIG    1       -8.400  -2.969   3.593  0.00  0.00    +0.020 C 
ATOM     22  C   LIG    1       -6.976  -3.444   3.895  0.00  0.00    +0.270 C 
ATOM     23  N   LIG    1       -6.268  -3.656   2.625  0.00  0.00    -0.610 N 
ATOM     24  C   LIG    1       -6.882  -4.525   1.611  0.00  0.00    +0.260 C 
ATOM     25  C   LIG    1       -5.082  -3.060   2.392  0.00  0.00    +0.520 C 
ATOM     26  O   LIG    1       -4.589  -2.341   3.235  0.00  0.00    -0.520 OA
ATOM     27  C   LIG    1       -8.305  -4.042   1.337  0.00  0.00    +0.020 C 
ENDBRANCH  18  25
ENDBRANCH   1  18
TORSDOF 4
