REMARK  Name = ZINCpk00000ebpqm.0
REMARK                            x       y       z     vdW  Elec       q    Type
REMARK                         _______ _______ _______ _____ _____    ______ ____
ROOT
ATOM      1  O   LIG    1       -2.672   4.489  -5.001  0.00  0.00    -0.340 OA
ENDROOT
BRANCH   1   2
ATOM      2  C   LIG    1       -1.815   4.436  -3.962  0.00  0.00    +0.530 C 
ATOM      3  O   LIG    1       -1.103   5.389  -3.712  0.00  0.00    -0.490 OA
BRANCH   2   6
ATOM      4  C   LIG    1       -0.957   1.909  -1.397  0.00  0.00    -0.820 A 
ATOM      5  C   LIG    1       -0.853   3.087  -2.000  0.00  0.00    +0.250 A 
ATOM      6  C   LIG    1       -1.742   3.225  -3.130  0.00  0.00    -0.170 A 
ATOM      7  C   LIG    1       -2.505   2.119  -3.346  0.00  0.00    +0.040 A 
ATOM      8  S   LIG    1       -2.154   0.908  -2.200  0.00  0.00    +0.340 S 
BRANCH   4   9
ATOM      9  S   LIG    1       -0.017   1.417   0.010  0.00  0.00    +2.730 S 
ATOM     10  O   LIG    1        1.162   2.210   0.003  0.00  0.00    -0.950 OA
ATOM     11  O   LIG    1        0.002  -0.004   0.002  0.00  0.00    -0.950 OA
BRANCH   9  12
ATOM     12  N   LIG    1       -0.875   1.865   1.354  0.00  0.00    -1.250 NA
ATOM     13  H   LIG    1       -1.730   2.313   1.256  0.00  0.00    +0.420 HD
ATOM     14  H   LIG    1       -0.522   1.680   2.238  0.00  0.00    +0.420 HD
ENDBRANCH   9  12
ENDBRANCH   4   9
ENDBRANCH   2   6
ENDBRANCH   1   2
BRANCH   1  15
ATOM     15  C   LIG    1       -2.690   5.715  -5.779  0.00  0.00    +0.320 C 
BRANCH  15  16
ATOM     16  C   LIG    1       -3.701   5.590  -6.890  0.00  0.00    +0.200 A 
ATOM     17  C   LIG    1       -4.817   6.403  -6.901  0.00  0.00    -0.130 A 
ATOM     18  C   LIG    1       -5.742   6.269  -7.944  0.00  0.00    +0.510 A 
ATOM     19  N   LIG    1       -5.513   5.350  -8.906  0.00  0.00    -0.420 N 
ATOM     20  C   LIG    1       -6.403   5.208  -9.928  0.00  0.00    +0.300 A 
ATOM     21  C   LIG    1       -6.195   4.293 -10.903  0.00  0.00    -0.090 A 
ATOM     22  C   LIG    1       -5.055   3.477 -10.872  0.00  0.00    +0.140 A 
ATOM     23  C   LIG    1       -4.159   3.612  -9.854  0.00  0.00    +0.060 A 
ATOM     24 CL   LIG    1       -7.343   4.129 -12.195  0.00  0.00    -0.020 Cl
ATOM     25  C   LIG    1       -4.392   4.570  -8.850  0.00  0.00    +0.390 A 
ATOM     26  O   LIG    1       -6.739   6.973  -7.983  0.00  0.00    -0.520 OA
ATOM     27  N   LIG    1       -3.514   4.706  -7.857  0.00  0.00    -0.520 NA
ENDBRANCH  15  16
ENDBRANCH   1  15
TORSDOF 6
