REMARK  Name = ZINCpk00000eaVok.0
REMARK                            x       y       z     vdW  Elec       q    Type
REMARK                         _______ _______ _______ _____ _____    ______ ____
ROOT
ATOM      1  C   LIG    1        1.982  -4.761  -3.390  0.00  0.00    +0.150 C 
ATOM      2  C   LIG    1        1.270  -4.211  -2.151  0.00  0.00    +0.180 C 
ATOM      3  N   LIG    1        1.327  -2.742  -2.171  0.00  0.00    -0.510 NA
ATOM      4  C   LIG    1        2.721  -2.275  -2.202  0.00  0.00    +0.160 C 
ATOM      5  C   LIG    1        3.417  -2.845  -3.441  0.00  0.00    +0.230 C 
ATOM      6  O   LIG    1        3.325  -4.271  -3.419  0.00  0.00    -0.370 OA
ENDROOT
BRANCH   3   7
ATOM      7  C   LIG    1        0.606  -2.171  -1.026  0.00  0.00    +0.180 C 
ATOM      8  C   LIG    1        1.078  -2.847   0.263  0.00  0.00    +0.020 C 
BRANCH   7   9
ATOM      9  C   LIG    1       -0.874  -2.400  -1.200  0.00  0.00    +0.530 C 
ATOM     10  N   LIG    1       -1.752  -1.778  -0.389  0.00  0.00    -0.730 N 
ATOM     11  H   LIG    1       -1.432  -1.182   0.307  0.00  0.00    +0.400 HD
ATOM     12  O   LIG    1       -1.274  -3.145  -2.070  0.00  0.00    -0.520 OA
BRANCH  10  13
ATOM     13  C   LIG    1       -3.190  -2.000  -0.558  0.00  0.00    +0.400 C 
BRANCH  13  14
ATOM     14  C   LIG    1       -3.947  -1.194   0.466  0.00  0.00    -0.040 A 
ATOM     15  C   LIG    1       -4.385   0.068   0.307  0.00  0.00    -0.030 A 
ATOM     16  C   LIG    1       -5.041   0.428   1.506  0.00  0.00    -0.070 A 
ATOM     17  C   LIG    1       -4.956  -0.632   2.330  0.00  0.00    +0.180 A 
ATOM     18  O   LIG    1       -4.293  -1.611   1.695  0.00  0.00    -0.170 OA
ENDBRANCH  13  14
ENDBRANCH  10  13
ENDBRANCH   7   9
ENDBRANCH   3   7
BRANCH   1  19
ATOM     19  C   LIG    1        1.996  -6.290  -3.334  0.00  0.00    +0.350 C 
BRANCH  19  26
ATOM     20  C   LIG    1        0.406  -7.010  -5.896  0.00  0.00    +0.150 C 
ATOM     21  C   LIG    1        1.894  -7.136  -5.694  0.00  0.00    +0.080 A 
ATOM     22  C   LIG    1        2.787  -7.584  -6.605  0.00  0.00    -0.130 A 
ATOM     23  C   LIG    1        4.056  -7.548  -6.018  0.00  0.00    +0.070 A 
ATOM     24  N   LIG    1        3.929  -7.089  -4.799  0.00  0.00    -0.280 NA
ATOM     25  C   LIG    1        5.347  -7.965  -6.676  0.00  0.00    +0.150 C 
ATOM     26  N   LIG    1        2.574  -6.819  -4.572  0.00  0.00    -0.360 N 
ENDBRANCH  19  26
ENDBRANCH   1  19
TORSDOF 6
