REMARK  Name = ZINCrg00000IZp3V.0
REMARK                            x       y       z     vdW  Elec       q    Type
REMARK                         _______ _______ _______ _____ _____    ______ ____
ROOT
ATOM      1  C   LIG    1       -2.495   0.950  -0.145  0.00  0.00    +0.070 C 
ENDROOT
BRANCH   1   2
ATOM      2  C   LIG    1       -1.343   1.957  -0.118  0.00  0.00    +0.110 C 
BRANCH   2   3
ATOM      3  C   LIG    1       -0.031   1.217  -0.069  0.00  0.00    +0.460 C 
ATOM      4  O   LIG    1       -0.018   0.009  -0.057  0.00  0.00    -0.500 OA
BRANCH   3   5
ATOM      5  O   LIG    1        1.124   1.901  -0.045  0.00  0.00    -0.330 OA
BRANCH   5   7
ATOM      6  C   LIG    1        2.741   0.864   1.453  0.00  0.00    +0.060 C 
ATOM      7  C   LIG    1        2.349   1.123  -0.004  0.00  0.00    +0.180 C 
BRANCH   7   8
ATOM      8  C   LIG    1        3.452   1.886  -0.692  0.00  0.00    +0.530 C 
ATOM      9  N   LIG    1        4.626   1.280  -0.958  0.00  0.00    -0.620 N 
ATOM     10  C   LIG    1        4.930  -0.139  -0.725  0.00  0.00    +0.240 C 
ATOM     11  C   LIG    1        6.395  -0.370  -1.153  0.00  0.00    +0.040 C 
ATOM     12  C   LIG    1        7.009   1.052  -1.065  0.00  0.00    +0.040 C 
ATOM     13  C   LIG    1        5.821   1.933  -1.523  0.00  0.00    +0.260 C 
ATOM     14  O   LIG    1        3.282   3.045  -1.007  0.00  0.00    -0.510 OA
ENDBRANCH   7   8
ENDBRANCH   5   7
ENDBRANCH   3   5
ENDBRANCH   2   3
ENDBRANCH   1   2
BRANCH   1  15
ATOM     15  C   LIG    1       -3.827   1.701  -0.195  0.00  0.00    +0.190 C 
BRANCH  15  16
ATOM     16  N   LIG    1       -4.930   0.737  -0.220  0.00  0.00    -0.500 NA
ATOM     17  C   LIG    1       -5.766   0.678   0.776  0.00  0.00    +0.380 C 
ATOM     18  N   LIG    1       -5.642   1.504   1.864  0.00  0.00    -1.050 N 
ATOM     19  H   LIG    1       -4.965   2.183   2.010  0.00  0.00    +0.450 HD
ATOM     20  S   LIG    1       -6.901   1.098   2.886  0.00  0.00    +2.670 S 
ATOM     21  C   LIG    1       -7.668  -0.187   1.939  0.00  0.00    -0.630 A 
ATOM     22  C   LIG    1       -8.757  -0.990   2.140  0.00  0.00    +0.150 A 
ATOM     23  C   LIG    1       -9.109  -1.927   1.181  0.00  0.00    +0.040 A 
ATOM     24  C   LIG    1       -8.353  -2.039   0.028  0.00  0.00    +0.070 A 
ATOM     25  C   LIG    1       -7.256  -1.234  -0.178  0.00  0.00    +0.100 A 
ATOM     26  O   LIG    1       -7.796   2.202   2.919  0.00  0.00    -0.930 OA
ATOM     27  O   LIG    1       -6.335   0.497   4.042  0.00  0.00    -0.930 OA
ATOM     28  C   LIG    1       -6.889  -0.275   0.780  0.00  0.00    -0.020 A 
ENDBRANCH  15  16
ENDBRANCH   1  15
TORSDOF 7
