REMARK  Name = ZINCtV000002DI0d.0
REMARK                            x       y       z     vdW  Elec       q    Type
REMARK                         _______ _______ _______ _____ _____    ______ ____
ROOT
ATOM      1  C   LIG    1       -1.188   1.482  -6.063  0.00  0.00    +0.130 A 
ATOM      2  C   LIG    1       -1.301   0.613  -7.142  0.00  0.00    +0.030 A 
ATOM      3  C   LIG    1       -2.034   0.977  -8.255  0.00  0.00    +0.020 A 
ATOM      4  C   LIG    1       -2.651   2.216  -8.308  0.00  0.00    +0.110 A 
ATOM      5  C   LIG    1       -2.537   3.099  -7.226  0.00  0.00    -0.040 A 
ATOM      6  C   LIG    1       -1.800   2.724  -6.103  0.00  0.00    +0.100 A 
ENDROOT
BRANCH   5   7
ATOM      7  C   LIG    1       -3.192   4.422  -7.276  0.00  0.00    +0.150 A 
ATOM      8  N   LIG    1       -3.151   5.301  -6.332  0.00  0.00    -0.450 NA
ATOM      9  C   LIG    1       -3.796   6.464  -6.525  0.00  0.00    +0.080 A 
ATOM     10  C   LIG    1       -3.898   7.575  -5.659  0.00  0.00    +0.070 A 
ATOM     11  C   LIG    1       -4.607   8.677  -6.027  0.00  0.00    +0.030 A 
ATOM     12  C   LIG    1       -5.245   8.733  -7.258  0.00  0.00    +0.040 A 
ATOM     13  C   LIG    1       -5.163   7.665  -8.125  0.00  0.00    +0.060 A 
ATOM     14  C   LIG    1       -4.442   6.529  -7.766  0.00  0.00    -0.190 A 
ATOM     15  S   LIG    1       -4.147   5.020  -8.626  0.00  0.00    +0.110 S 
ENDBRANCH   5   7
BRANCH   1  17
ATOM     16  C   LIG    1       -0.842   1.496  -3.708  0.00  0.00    +0.510 C 
ATOM     17  N   LIG    1       -0.448   1.103  -4.935  0.00  0.00    -0.680 N 
ATOM     18  H   LIG    1        0.348   0.558  -5.038  0.00  0.00    +0.410 HD
ATOM     19  O   LIG    1       -1.787   2.245  -3.585  0.00  0.00    -0.510 OA
BRANCH  16  20
ATOM     20  C   LIG    1       -0.107   1.003  -2.487  0.00  0.00    +0.060 C 
BRANCH  20  21
ATOM     21  C   LIG    1       -0.751   1.594  -1.232  0.00  0.00    +0.040 C 
BRANCH  21  23
ATOM     22  C   LIG    1        1.426   1.635  -0.006  0.00  0.00    +0.030 C 
ATOM     23  C   LIG    1       -0.005   1.094   0.007  0.00  0.00    +0.030 C 
BRANCH  23  24
ATOM     24  C   LIG    1       -0.713   1.576   1.248  0.00  0.00    -0.080 A 
ATOM     25  C   LIG    1       -0.860   2.931   1.477  0.00  0.00    +0.010 A 
ATOM     26  C   LIG    1       -1.512   3.373   2.613  0.00  0.00    +0.000 A 
ATOM     27  C   LIG    1       -2.010   2.460   3.524  0.00  0.00    +0.000 A 
ATOM     28  C   LIG    1       -1.857   1.105   3.297  0.00  0.00    +0.000 A 
ATOM     29  C   LIG    1       -1.209   0.663   2.159  0.00  0.00    +0.000 A 
ENDBRANCH  23  24
ENDBRANCH  21  23
ENDBRANCH  20  21
ENDBRANCH  16  20
ENDBRANCH   1  17
BRANCH   4  30
ATOM     30  O   LIG    1       -3.367   2.574  -9.405  0.00  0.00    -0.480 OA
ATOM     31  H   LIG    1       -2.847   3.026 -10.084  0.00  0.00    +0.390 HD
ENDBRANCH   4  30
TORSDOF 7
