REMARK  Name = ZINCkj00000GeRYL.0
REMARK                            x       y       z     vdW  Elec       q    Type
REMARK                         _______ _______ _______ _____ _____    ______ ____
ROOT
ATOM      1  S   LIG    1        2.712   0.920  -0.018  0.00  0.00    +2.710 S 
ATOM      2  O   LIG    1        2.395  -0.465  -0.056  0.00  0.00    -0.930 OA
ATOM      3  O   LIG    1        3.513   1.506   0.999  0.00  0.00    -0.920 OA
ENDROOT
BRANCH   1   4
ATOM      4  C   LIG    1        1.175   1.782   0.000  0.00  0.00    -0.710 A 
ATOM      5  C   LIG    1       -0.013   1.076   0.008  0.00  0.00    +0.210 A 
ATOM      6  C   LIG    1       -1.220   1.750   0.017  0.00  0.00    +0.020 A 
ATOM      7  C   LIG    1       -1.240   3.134   0.030  0.00  0.00    +0.160 A 
ATOM      8  C   LIG    1       -0.050   3.844   0.022  0.00  0.00    +0.020 A 
ATOM      9  F   LIG    1       -0.068   5.195   0.030  0.00  0.00    -0.110 F 
ATOM     10  F   LIG    1       -2.420   3.792   0.044  0.00  0.00    -0.100 F 
ATOM     11  C   LIG    1        1.159   3.167   0.007  0.00  0.00    +0.190 A 
ATOM     12  F   LIG    1        2.320   3.857   0.001  0.00  0.00    -0.100 F 
ENDBRANCH   1   4
BRANCH   1  16
ATOM     13  C   LIG    1        3.642   1.518  -3.833  0.00  0.00    -0.030 C 
ATOM     14  C   LIG    1        4.789   2.334  -3.181  0.00  0.00    +0.040 C 
ATOM     15  C   LIG    1        4.372   2.393  -1.696  0.00  0.00    +0.280 C 
ATOM     16  N   LIG    1        3.453   1.270  -1.456  0.00  0.00    -1.010 NA
ATOM     17  C   LIG    1        3.307   0.504  -2.707  0.00  0.00    +0.310 C 
BRANCH  13  18
ATOM     18  C   LIG    1        4.129   0.796  -5.091  0.00  0.00    +0.280 C 
BRANCH  18  20
ATOM     19  C   LIG    1        4.939   1.092  -7.329  0.00  0.00    +0.330 C 
ATOM     20  N   LIG    1        4.471   1.785  -6.121  0.00  0.00    -0.510 N 
ATOM     21  H   LIG    1        5.202   2.390  -5.777  0.00  0.00    +0.430 HD
ATOM     22  H   LIG    1        3.655   2.336  -6.344  0.00  0.00    +0.430 HD
ENDBRANCH  18  20
ENDBRANCH  13  18
ENDBRANCH   1  16
TORSDOF 4
