REMARK  Name = ZINCpe000027pGU3.0
REMARK                            x       y       z     vdW  Elec       q    Type
REMARK                         _______ _______ _______ _____ _____    ______ ____
ROOT
ATOM      1  C   LIG    1       -3.821  -4.957   0.028  0.00  0.00    +0.280 C 
ENDROOT
BRANCH   1   3
ATOM      2  O   LIG    1       -2.605  -6.962  -0.240  0.00  0.00    -0.470 OA
ATOM      3  C   LIG    1       -3.622  -6.444   0.170  0.00  0.00    +0.510 C 
ATOM      4  N   LIG    1       -4.575  -7.199   0.751  0.00  0.00    -0.660 N 
ATOM      5  H   LIG    1       -5.409  -6.792   1.037  0.00  0.00    +0.420 HD
BRANCH   4   6
ATOM      6  C   LIG    1       -4.363  -8.571   0.944  0.00  0.00    +0.080 A 
ATOM      7  C   LIG    1       -5.428  -9.460   0.860  0.00  0.00    +0.100 A 
ATOM      8  C   LIG    1       -5.213 -10.813   1.045  0.00  0.00    +0.010 A 
ATOM      9  C   LIG    1       -3.943 -11.282   1.324  0.00  0.00    +0.080 A 
ATOM     10  C   LIG    1       -2.881 -10.400   1.414  0.00  0.00    +0.000 A 
ATOM     11  F   LIG    1       -6.671  -9.002   0.593  0.00  0.00    -0.130 F 
ATOM     12  C   LIG    1       -3.087  -9.046   1.224  0.00  0.00    +0.130 A 
ATOM     13  F   LIG    1       -2.049  -8.185   1.312  0.00  0.00    -0.110 F 
ENDBRANCH   4   6
ENDBRANCH   1   3
BRANCH   1  14
ATOM     14  O   LIG    1       -2.662  -4.375  -0.626  0.00  0.00    -0.320 OA
BRANCH  14  15
ATOM     15  C   LIG    1       -2.680  -3.043  -0.830  0.00  0.00    +0.500 C 
ATOM     16  O   LIG    1       -3.638  -2.386  -0.472  0.00  0.00    -0.500 OA
BRANCH  15  17
ATOM     17  C   LIG    1       -1.538  -2.381  -1.488  0.00  0.00    +0.070 C 
ATOM     18  C   LIG    1       -1.556  -1.055  -1.692  0.00  0.00    +0.040 C 
BRANCH  18  19
ATOM     19  C   LIG    1       -0.412  -0.393  -2.351  0.00  0.00    +0.550 C 
ATOM     20  N   LIG    1       -0.378   0.951  -2.453  0.00  0.00    -0.610 N 
ATOM     21  C   LIG    1       -1.519   1.772  -2.019  0.00  0.00    +0.260 C 
ATOM     22  C   LIG    1       -0.989   2.875  -1.088  0.00  0.00    +0.220 C 
ATOM     23  O   LIG    1        0.079   3.566  -1.740  0.00  0.00    -0.380 OA
ATOM     24  C   LIG    1        1.214   2.747  -2.032  0.00  0.00    +0.220 C 
ATOM     25  C   LIG    1        0.799   1.639  -3.006  0.00  0.00    +0.270 C 
ATOM     26  O   LIG    1        0.499  -1.060  -2.802  0.00  0.00    -0.520 OA
ENDBRANCH  18  19
ENDBRANCH  15  17
ENDBRANCH  14  15
ENDBRANCH   1  14
TORSDOF 6
