REMARK  Name = ZINCpe00000gMQxo.0
REMARK                            x       y       z     vdW  Elec       q    Type
REMARK                         _______ _______ _______ _____ _____    ______ ____
ROOT
ATOM      1  C   LIG    1       -1.462  -1.462  -1.360  0.00  0.00    +0.150 C 
ATOM      2  C   LIG    1       -2.762  -2.270  -1.396  0.00  0.00    +0.170 C 
ATOM      3  N   LIG    1       -3.241  -2.356  -2.783  0.00  0.00    -0.520 NA
ATOM      4  C   LIG    1       -2.231  -2.989  -3.644  0.00  0.00    +0.160 C 
ATOM      5  C   LIG    1       -0.936  -2.174  -3.586  0.00  0.00    +0.230 C 
ATOM      6  O   LIG    1       -0.503  -2.074  -2.227  0.00  0.00    -0.360 OA
ENDROOT
BRANCH   1   7
ATOM      7  C   LIG    1       -0.915  -1.436   0.069  0.00  0.00    +0.350 C 
BRANCH   7  14
ATOM      8  C   LIG    1       -0.957   1.606   0.665  0.00  0.00    +0.140 C 
ATOM      9  C   LIG    1        0.258   0.759   0.386  0.00  0.00    +0.080 A 
ATOM     10  C   LIG    1        1.540   1.190   0.346  0.00  0.00    -0.130 A 
ATOM     11  C   LIG    1        2.355   0.092   0.051  0.00  0.00    +0.070 A 
ATOM     12  N   LIG    1        1.589  -0.961  -0.081  0.00  0.00    -0.280 NA
ATOM     13  C   LIG    1        3.855   0.118  -0.089  0.00  0.00    +0.160 C 
ATOM     14  N   LIG    1        0.262  -0.566   0.126  0.00  0.00    -0.360 N 
ENDBRANCH   7  14
ENDBRANCH   1   7
BRANCH   3  15
ATOM     15  C   LIG    1       -4.519  -3.077  -2.855  0.00  0.00    +0.230 C 
BRANCH  15  16
ATOM     16  C   LIG    1       -5.589  -2.272  -2.163  0.00  0.00    +0.520 C 
ATOM     17  N   LIG    1       -6.820  -2.793  -1.991  0.00  0.00    -0.650 N 
ATOM     18  H   LIG    1       -7.017  -3.687  -2.313  0.00  0.00    +0.410 HD
ATOM     19  O   LIG    1       -5.342  -1.155  -1.760  0.00  0.00    -0.480 OA
BRANCH  17  20
ATOM     20  C   LIG    1       -7.810  -2.048  -1.351  0.00  0.00    +0.300 A 
ATOM     21  C   LIG    1       -7.671  -0.791  -0.847  0.00  0.00    -0.100 A 
ATOM     22  C   LIG    1       -8.898  -0.413  -0.295  0.00  0.00    +0.090 A 
ATOM     23  N   LIG    1       -9.741  -1.402  -0.451  0.00  0.00    -0.290 NA
ATOM     24  C   LIG    1       -9.198   0.905   0.370  0.00  0.00    +0.160 C 
ATOM     25  N   LIG    1       -9.081  -2.445  -1.113  0.00  0.00    -0.390 N 
ATOM     26  C   LIG    1       -9.664  -3.737  -1.484  0.00  0.00    +0.360 C 
ENDBRANCH  17  20
ENDBRANCH  15  16
ENDBRANCH   3  15
TORSDOF 5
