REMARK  Name = ZINCpe00000MJMke.1
REMARK                            x       y       z     vdW  Elec       q    Type
REMARK                         _______ _______ _______ _____ _____    ______ ____
ROOT
ATOM      1  C   LIG    1       -1.252   1.963   1.136  0.00  0.00    +0.130 C 
ATOM      2  C   LIG    1        0.111   1.355   1.468  0.00  0.00    +0.070 C 
ENDROOT
BRANCH   1   5
ATOM      3  C   LIG    1       -3.426   1.530  -1.910  0.00  0.00    +0.300 C 
ATOM      4  C   LIG    1       -3.031   2.002  -0.508  0.00  0.00    +0.180 C 
ATOM      5  N   LIG    1       -1.694   1.486  -0.182  0.00  0.00    -0.510 NA
ATOM      6  C   LIG    1       -1.672   0.017  -0.244  0.00  0.00    +0.160 C 
ATOM      7  C   LIG    1       -2.080  -0.434  -1.649  0.00  0.00    +0.250 C 
ATOM      8  O   LIG    1       -3.369   0.102  -1.961  0.00  0.00    -0.370 OA
BRANCH   3  12
ATOM      9  C   LIG    1       -7.208   4.147  -3.891  0.00  0.00    +0.190 C 
ATOM     10  C   LIG    1       -6.451   3.126  -3.081  0.00  0.00    +0.290 A 
ATOM     11  N   LIG    1       -5.150   2.991  -3.037  0.00  0.00    -0.530 NA
ATOM     12  C   LIG    1       -4.827   1.990  -2.220  0.00  0.00    +0.240 A 
ATOM     13  N   LIG    1       -5.923   1.467  -1.735  0.00  0.00    -0.290 NA
ATOM     14  N   LIG    1       -6.994   2.195  -2.278  0.00  0.00    -0.480 N 
ATOM     15  H   LIG    1       -7.939   2.052  -2.110  0.00  0.00    +0.440 HD
ENDBRANCH   3  12
ENDBRANCH   1   5
BRANCH   1  16
ATOM     16  C   LIG    1       -1.140   3.466   1.114  0.00  0.00    +0.510 C 
ATOM     17  N   LIG    1       -1.179   4.162   2.267  0.00  0.00    -0.650 N 
ATOM     18  H   LIG    1       -1.199   3.693   3.116  0.00  0.00    +0.400 HD
ATOM     19  O   LIG    1       -1.014   4.049   0.057  0.00  0.00    -0.490 OA
BRANCH  17  20
ATOM     20  C   LIG    1       -1.190   5.569   2.240  0.00  0.00    -0.010 A 
ATOM     21  C   LIG    1       -2.001   6.376   2.972  0.00  0.00    +0.070 A 
ATOM     22  N   LIG    1       -1.696   7.660   2.653  0.00  0.00    -0.370 N 
ATOM     23  N   LIG    1       -0.669   7.635   1.701  0.00  0.00    -0.290 NA
ATOM     24  C   LIG    1       -2.328   8.860   3.209  0.00  0.00    +0.360 C 
ATOM     25  C   LIG    1       -3.049   5.928   3.958  0.00  0.00    +0.140 C 
ATOM     26  C   LIG    1       -0.363   6.387   1.458  0.00  0.00    +0.100 A 
ATOM     27  C   LIG    1        0.696   5.909   0.497  0.00  0.00    +0.160 C 
ENDBRANCH  17  20
ENDBRANCH   1  16
TORSDOF 4
