REMARK  Name = ZINCpe00000MJMke.0
REMARK                            x       y       z     vdW  Elec       q    Type
REMARK                         _______ _______ _______ _____ _____    ______ ____
ROOT
ATOM      1  C   LIG    1        3.820   1.385   0.963  0.00  0.00    +0.140 C 
ATOM      2  C   LIG    1        2.784   2.491   1.177  0.00  0.00    +0.070 C 
ENDROOT
BRANCH   1   5
ATOM      3  C   LIG    1        3.427  -2.055  -0.519  0.00  0.00    +0.280 C 
ATOM      4  C   LIG    1        4.151  -0.841   0.068  0.00  0.00    +0.180 C 
ATOM      5  N   LIG    1        3.172   0.220   0.346  0.00  0.00    -0.510 NA
ATOM      6  C   LIG    1        2.457   0.604  -0.880  0.00  0.00    +0.160 C 
ATOM      7  C   LIG    1        1.749  -0.626  -1.457  0.00  0.00    +0.250 C 
ATOM      8  O   LIG    1        2.712  -1.657  -1.692  0.00  0.00    -0.370 OA
BRANCH   3  13
ATOM      9  C   LIG    1        5.945  -6.422  -0.855  0.00  0.00    +0.200 C 
ATOM     10  C   LIG    1        5.513  -4.988  -1.022  0.00  0.00    +0.190 A 
ATOM     11  N   LIG    1        6.112  -4.079  -1.742  0.00  0.00    -0.290 NA
ATOM     12  N   LIG    1        5.468  -2.969  -1.661  0.00  0.00    -0.260 NA
ATOM     13  C   LIG    1        4.434  -3.117  -0.878  0.00  0.00    +0.180 A 
ATOM     14  N   LIG    1        4.431  -4.403  -0.453  0.00  0.00    -0.570 N 
ATOM     15  H   LIG    1        3.785  -4.821   0.138  0.00  0.00    +0.430 HD
ENDBRANCH   3  13
ENDBRANCH   1   5
BRANCH   1  16
ATOM     16  C   LIG    1        4.410   0.987   2.291  0.00  0.00    +0.520 C 
ATOM     17  N   LIG    1        5.398   1.723   2.838  0.00  0.00    -0.650 N 
ATOM     18  H   LIG    1        5.675   2.552   2.417  0.00  0.00    +0.410 HD
ATOM     19  O   LIG    1        3.996   0.004   2.869  0.00  0.00    -0.500 OA
BRANCH  17  20
ATOM     20  C   LIG    1        6.029   1.288   4.019  0.00  0.00    -0.010 A 
ATOM     21  C   LIG    1        7.366   1.272   4.252  0.00  0.00    +0.070 A 
ATOM     22  N   LIG    1        7.558   0.784   5.505  0.00  0.00    -0.370 N 
ATOM     23  N   LIG    1        6.301   0.494   6.051  0.00  0.00    -0.290 NA
ATOM     24  C   LIG    1        8.851   0.594   6.167  0.00  0.00    +0.360 C 
ATOM     25  C   LIG    1        8.442   1.715   3.294  0.00  0.00    +0.150 C 
ATOM     26  C   LIG    1        5.387   0.800   5.167  0.00  0.00    +0.100 A 
ATOM     27  C   LIG    1        3.898   0.650   5.348  0.00  0.00    +0.160 C 
ENDBRANCH  17  20
ENDBRANCH   1  16
TORSDOF 4
