REMARK  Name = ZINCvU0000000DED.0
REMARK                            x       y       z     vdW  Elec       q    Type
REMARK                         _______ _______ _______ _____ _____    ______ ____
ROOT
ATOM      1  C   LIG    1       -2.592   5.998   2.643  0.00  0.00    +0.240 A 
ATOM      2  C   LIG    1       -1.544   6.631   3.215  0.00  0.00    -0.540 A 
ATOM      3  N   LIG    1       -0.487   6.493   2.392  0.00  0.00    -0.400 NA
ATOM      4  C   LIG    1       -0.855   5.804   1.351  0.00  0.00    +0.220 A 
ATOM      5  O   LIG    1       -2.154   5.487   1.475  0.00  0.00    -0.210 OA
ENDROOT
BRANCH   1   7
ATOM      6  C   LIG    1       -4.859   6.528   2.264  0.00  0.00    +0.240 C 
ATOM      7  N   LIG    1       -3.881   5.896   3.160  0.00  0.00    -0.440 N 
ATOM      8  C   LIG    1       -4.235   4.495   3.421  0.00  0.00    +0.250 C 
ENDBRANCH   1   7
BRANCH   2   9
ATOM      9  S   LIG    1       -1.557   7.484   4.757  0.00  0.00    +2.620 S 
ATOM     10  O   LIG    1       -0.200   7.608   5.159  0.00  0.00    -0.920 OA
ATOM     11  O   LIG    1       -2.550   6.854   5.554  0.00  0.00    -0.900 OA
BRANCH   9  12
ATOM     12  C   LIG    1       -2.134   9.119   4.443  0.00  0.00    -0.660 A 
ATOM     13  C   LIG    1       -1.234  10.123   4.137  0.00  0.00    +0.150 A 
ATOM     14  C   LIG    1       -1.686  11.404   3.886  0.00  0.00    +0.020 A 
ATOM     15  C   LIG    1       -3.039  11.685   3.953  0.00  0.00    +0.020 A 
ATOM     16  C   LIG    1       -3.939  10.682   4.265  0.00  0.00    +0.020 A 
ATOM     17 CL   LIG    1       -3.608  13.297   3.646  0.00  0.00    -0.050 Cl
ATOM     18  C   LIG    1       -3.486   9.399   4.510  0.00  0.00    +0.160 A 
ENDBRANCH   9  12
ENDBRANCH   2   9
BRANCH   4  19
ATOM     19  C   LIG    1        0.032   5.428   0.192  0.00  0.00    +0.220 C 
BRANCH  19  20
ATOM     20  C   LIG    1       -0.531   6.007  -1.080  0.00  0.00    -0.090 A 
ATOM     21  C   LIG    1       -1.852   5.777  -1.418  0.00  0.00    +0.010 A 
ATOM     22  C   LIG    1       -2.370   6.312  -2.583  0.00  0.00    +0.000 A 
ATOM     23  C   LIG    1       -1.565   7.068  -3.414  0.00  0.00    +0.020 A 
ATOM     24  C   LIG    1       -0.243   7.293  -3.079  0.00  0.00    +0.010 A 
ATOM     25  C   LIG    1        0.274   6.762  -1.911  0.00  0.00    +0.030 A 
ENDBRANCH  19  20
BRANCH  19  26
ATOM     26  C   LIG    1        0.097   3.927   0.075  0.00  0.00    -0.090 A 
ATOM     27  C   LIG    1        1.323   3.288   0.039  0.00  0.00    +0.030 A 
ATOM     28  C   LIG    1        1.382   1.911  -0.067  0.00  0.00    +0.010 A 
ATOM     29  C   LIG    1        0.215   1.173  -0.136  0.00  0.00    +0.020 A 
ATOM     30  C   LIG    1       -1.010   1.811  -0.105  0.00  0.00    +0.000 A 
ATOM     31  C   LIG    1       -1.069   3.188   0.006  0.00  0.00    +0.010 A 
ENDBRANCH  19  26
ENDBRANCH   4  19
TORSDOF 6
