REMARK  Name = ZINCnE00000feglm.1
REMARK                            x       y       z     vdW  Elec       q    Type
REMARK                         _______ _______ _______ _____ _____    ______ ____
ROOT
ATOM      1  C   LIG    1       -1.330   1.944   0.019  0.00  0.00    +0.010 C 
ATOM      2  C   LIG    1       -1.646   2.404   1.444  0.00  0.00    +0.070 C 
ENDROOT
BRANCH   1   3
ATOM      3  C   LIG    1       -0.014   1.209   0.009  0.00  0.00    +0.540 C 
ATOM      4  N   LIG    1        1.143   1.898   0.001  0.00  0.00    -0.730 N 
ATOM      5  H   LIG    1        1.130   2.868   0.007  0.00  0.00    +0.400 HD
ATOM      6  O   LIG    1        0.002  -0.004   0.002  0.00  0.00    -0.520 OA
BRANCH   4   7
ATOM      7  C   LIG    1        2.422   1.183  -0.015  0.00  0.00    +0.230 C 
ATOM      8  C   LIG    1        2.774   0.757   1.425  0.00  0.00    +0.020 C 
ATOM      9  C   LIG    1        3.765  -0.374   1.360  0.00  0.00    +0.000 C 
ATOM     10  C   LIG    1        5.223   0.114   1.454  0.00  0.00    +0.000 C 
ATOM     11  C   LIG    1        5.481   1.387   0.625  0.00  0.00    +0.000 C 
ATOM     12  C   LIG    1        4.806   1.346  -0.719  0.00  0.00    +0.030 C 
ATOM     13  C   LIG    1        3.437   2.045  -0.602  0.00  0.00    +0.010 C 
ENDBRANCH   4   7
ENDBRANCH   1   3
BRANCH   1  14
ATOM     14  S   LIG    1       -2.642   0.843  -0.565  0.00  0.00    +0.020 S 
BRANCH  14  19
ATOM     15  C   LIG    1       -4.800   4.106  -0.244  0.00  0.00    +0.180 A 
ATOM     16  C   LIG    1       -6.051   3.724  -0.633  0.00  0.00    -0.270 A 
ATOM     17  C   LIG    1       -6.265   2.389  -1.019  0.00  0.00    +0.490 A 
ATOM     18  N   LIG    1       -5.222   1.532  -0.997  0.00  0.00    -0.640 NA
ATOM     19  C   LIG    1       -3.996   1.969  -0.596  0.00  0.00    +0.320 A 
ATOM     20  O   LIG    1       -7.371   2.013  -1.372  0.00  0.00    -0.620 OA
ATOM     21  N   LIG    1       -3.804   3.224  -0.235  0.00  0.00    -0.620 NA
BRANCH  15  22
ATOM     22  C   LIG    1       -4.545   5.531   0.175  0.00  0.00    +0.080 C 
BRANCH  22  24
ATOM     23  C   LIG    1       -4.398   7.089   2.122  0.00  0.00    +0.000 C 
ATOM     24  C   LIG    1       -4.656   5.643   1.697  0.00  0.00    +0.010 C 
ENDBRANCH  22  24
ENDBRANCH  15  22
ENDBRANCH  14  19
ENDBRANCH   1  14
TORSDOF 6
