REMARK  Name = ZINCrH000004u06n.0
REMARK                            x       y       z     vdW  Elec       q    Type
REMARK                         _______ _______ _______ _____ _____    ______ ____
ROOT
ATOM      1  O   LIG    1        2.497   4.079  -0.102  0.00  0.00    -0.500 OA
ATOM      2  C   LIG    1        3.556   3.488  -0.114  0.00  0.00    +0.500 C 
ATOM      3  N   LIG    1        3.579   2.144  -0.020  0.00  0.00    -0.670 N 
ATOM      4  H   LIG    1        4.426   1.676   0.036  0.00  0.00    +0.410 HD
ENDROOT
BRANCH   3   5
ATOM      5  C   LIG    1        2.381   1.425  -0.003  0.00  0.00    +0.160 A 
ATOM      6  C   LIG    1        1.258   1.956   0.615  0.00  0.00    +0.020 A 
ATOM      7  C   LIG    1        0.075   1.243   0.631  0.00  0.00    +0.030 A 
ATOM      8  C   LIG    1        0.002  -0.003   0.033  0.00  0.00    +0.000 A 
ATOM      9  C   LIG    1        1.111  -0.544  -0.586  0.00  0.00    +0.040 A 
ATOM     10  C   LIG    1        2.309   0.165  -0.609  0.00  0.00    -0.070 A 
BRANCH  10  11
ATOM     11  C   LIG    1        3.503  -0.412  -1.272  0.00  0.00    -0.050 A 
ATOM     12  C   LIG    1        4.221   0.342  -2.198  0.00  0.00    +0.010 A 
ATOM     13  C   LIG    1        5.335  -0.198  -2.810  0.00  0.00    +0.010 A 
ATOM     14  C   LIG    1        5.732  -1.489  -2.512  0.00  0.00    +0.000 A 
ATOM     15  C   LIG    1        5.020  -2.244  -1.598  0.00  0.00    +0.010 A 
ATOM     16  C   LIG    1        3.908  -1.713  -0.977  0.00  0.00    +0.030 A 
ENDBRANCH  10  11
ENDBRANCH   3   5
BRANCH   2  17
ATOM     17  C   LIG    1        4.847   4.257  -0.236  0.00  0.00    +0.370 C 
BRANCH  17  18
ATOM     18  N   LIG    1        4.556   5.690  -0.322  0.00  0.00    -0.420 N 
ATOM     19  N   LIG    1        4.364   6.269  -1.577  0.00  0.00    -0.230 NA
ATOM     20  C   LIG    1        4.096   7.531  -1.734  0.00  0.00    +0.320 A 
ATOM     21  C   LIG    1        3.998   8.409  -0.568  0.00  0.00    -0.070 A 
ATOM     22  C   LIG    1        3.718   9.771  -0.693  0.00  0.00    +0.050 A 
ATOM     23  C   LIG    1        3.637  10.554   0.436  0.00  0.00    +0.050 A 
ATOM     24  C   LIG    1        3.830  10.005   1.697  0.00  0.00    +0.030 A 
ATOM     25  C   LIG    1        4.106   8.664   1.846  0.00  0.00    +0.080 A 
ATOM     26  C   LIG    1        4.193   7.851   0.717  0.00  0.00    -0.120 A 
ATOM     27  C   LIG    1        4.486   6.415   0.813  0.00  0.00    +0.540 A 
ATOM     28  O   LIG    1        4.662   5.889   1.897  0.00  0.00    -0.520 OA
ENDBRANCH  17  18
ENDBRANCH   2  17
TORSDOF 4
