REMARK  Name = ZINCtj00000mhiO3.0
REMARK                            x       y       z     vdW  Elec       q    Type
REMARK                         _______ _______ _______ _____ _____    ______ ____
ROOT
ATOM      1  C   LIG    1        1.484   1.475   0.375  0.00  0.00    +0.080 C 
ATOM      2  C   LIG    1        0.038   1.139   0.003  0.00  0.00    +0.130 C 
ENDROOT
BRANCH   2   3
ATOM      3  C   LIG    1       -0.380  -0.127   0.706  0.00  0.00    +0.520 C 
ATOM      4  N   LIG    1       -0.036  -1.326   0.196  0.00  0.00    -0.610 N 
ATOM      5  C   LIG    1        0.661  -1.418  -1.095  0.00  0.00    +0.270 C 
ATOM      6  C   LIG    1        1.960  -2.215  -0.890  0.00  0.00    +0.280 C 
ATOM      7  N   LIG    1        1.641  -3.454  -0.169  0.00  0.00    -0.610 N 
ATOM      8  C   LIG    1        0.939  -3.363   1.120  0.00  0.00    +0.290 C 
ATOM      9  C   LIG    1        1.984  -4.653  -0.679  0.00  0.00    +0.610 C 
ATOM     10  O   LIG    1        1.614  -5.676  -0.133  0.00  0.00    -0.510 OA
ATOM     11  C   LIG    1       -0.355  -2.566   0.917  0.00  0.00    +0.290 C 
ATOM     12  O   LIG    1       -1.026  -0.067   1.730  0.00  0.00    -0.510 OA
BRANCH   9  13
ATOM     13  C   LIG    1        2.805  -4.726  -1.892  0.00  0.00    -0.090 A 
ATOM     14  C   LIG    1        3.114  -5.861  -2.586  0.00  0.00    +0.050 A 
ATOM     15  C   LIG    1        3.911  -5.466  -3.671  0.00  0.00    -0.060 A 
ATOM     16  C   LIG    1        4.060  -4.126  -3.589  0.00  0.00    +0.200 A 
ATOM     17  O   LIG    1        3.392  -3.683  -2.516  0.00  0.00    -0.170 OA
ENDBRANCH   9  13
ENDBRANCH   2   3
BRANCH   2  18
ATOM     18  N   LIG    1       -0.842   2.240   0.414  0.00  0.00    -0.480 NA
ATOM     19  C   LIG    1       -0.410   3.523  -0.197  0.00  0.00    +0.210 C 
ATOM     20  C   LIG    1       -1.681   4.405  -0.107  0.00  0.00    +0.180 C 
ATOM     21  C   LIG    1       -2.821   3.398  -0.387  0.00  0.00    +0.040 C 
ATOM     22  C   LIG    1       -2.227   2.016  -0.055  0.00  0.00    +0.210 C 
BRANCH  21  23
ATOM     23  C   LIG    1       -4.005   3.685   0.500  0.00  0.00    -0.120 A 
ATOM     24  C   LIG    1       -3.854   3.689   1.874  0.00  0.00    +0.030 A 
ATOM     25  C   LIG    1       -4.939   3.957   2.687  0.00  0.00    +0.020 A 
ATOM     26  C   LIG    1       -6.177   4.210   2.127  0.00  0.00    +0.030 A 
ATOM     27  C   LIG    1       -6.329   4.201   0.753  0.00  0.00    +0.020 A 
ATOM     28  C   LIG    1       -5.242   3.938  -0.061  0.00  0.00    +0.010 A 
ENDBRANCH  21  23
BRANCH  20  29
ATOM     29  N   LIG    1       -1.659   5.461  -1.128  0.00  0.00    -0.630 N 
ATOM     30  H   LIG    1       -1.513   5.048  -2.037  0.00  0.00    +0.430 HD
ATOM     31  H   LIG    1       -0.910   6.107  -0.927  0.00  0.00    +0.440 HD
ATOM     32  H   LIG    1       -2.539   5.955  -1.120  0.00  0.00    +0.440 HD
ENDBRANCH  20  29
ENDBRANCH   2  18
TORSDOF 5
