REMARK  Name = ZINCpk00000e94cP.0
REMARK                            x       y       z     vdW  Elec       q    Type
REMARK                         _______ _______ _______ _____ _____    ______ ____
ROOT
ATOM      1  N   LIG    1       -2.862   3.053   7.072  0.00  0.00    -0.690 N 
ATOM      2  H   LIG    1       -3.805   3.276   7.038  0.00  0.00    +0.410 HD
ATOM      3  C   LIG    1       -2.180   3.185   8.227  0.00  0.00    +0.700 C 
ATOM      4  N   LIG    1       -2.829   3.522   9.359  0.00  0.00    -0.730 N 
ATOM      5  H   LIG    1       -3.788   3.671   9.342  0.00  0.00    +0.400 HD
ATOM      6  O   LIG    1       -0.978   2.999   8.249  0.00  0.00    -0.570 OA
ENDROOT
BRANCH   1  10
ATOM      7  C   LIG    1       -0.917   1.689   3.651  0.00  0.00    -0.160 A 
ATOM      8  C   LIG    1       -1.947   2.628   3.544  0.00  0.00    +0.070 A 
ATOM      9  C   LIG    1       -2.591   3.073   4.676  0.00  0.00    -0.030 A 
ATOM     10  C   LIG    1       -2.211   2.596   5.927  0.00  0.00    +0.200 A 
ATOM     11  C   LIG    1       -1.183   1.665   6.037  0.00  0.00    +0.010 A 
ATOM     12  C   LIG    1       -0.538   1.212   4.908  0.00  0.00    +0.100 A 
BRANCH   7  15
ATOM     13  N   LIG    1       -0.595   1.667   1.226  0.00  0.00    -0.730 N 
ATOM     14  H   LIG    1       -1.312   2.316   1.150  0.00  0.00    +0.400 HD
ATOM     15  C   LIG    1       -0.228   1.206   2.438  0.00  0.00    +0.560 C 
ATOM     16  O   LIG    1        0.671   0.393   2.533  0.00  0.00    -0.540 OA
BRANCH  13  17
ATOM     17  C   LIG    1        0.089   1.188   0.022  0.00  0.00    +0.260 C 
BRANCH  17  19
ATOM     18  C   LIG    1        0.280   1.459  -2.454  0.00  0.00    +0.030 C 
ATOM     19  C   LIG    1       -0.515   1.863  -1.211  0.00  0.00    -0.030 C 
ATOM     20  C   LIG    1       -1.971   1.423  -1.371  0.00  0.00    +0.020 C 
ENDBRANCH  17  19
ENDBRANCH  13  17
ENDBRANCH   7  15
ENDBRANCH   1  10
BRANCH   4  21
ATOM     21  C   LIG    1       -2.088   3.666  10.614  0.00  0.00    +0.260 C 
ATOM     22  C   LIG    1       -1.503   5.077  10.703  0.00  0.00    +0.010 C 
ATOM     23  C   LIG    1       -0.729   5.227  12.014  0.00  0.00    +0.000 C 
ATOM     24  C   LIG    1       -1.674   4.991  13.194  0.00  0.00    +0.130 C 
ATOM     25  C   LIG    1       -2.259   3.580  13.105  0.00  0.00    +0.190 C 
ATOM     26  C   LIG    1       -3.033   3.431  11.794  0.00  0.00    +0.050 C 
BRANCH  25  27
ATOM     27  O   LIG    1       -3.142   3.361  14.208  0.00  0.00    -0.560 OA
ATOM     28  H   LIG    1       -2.717   3.440  15.073  0.00  0.00    +0.380 HD
ENDBRANCH  25  27
BRANCH  24  29
ATOM     29  O   LIG    1       -2.733   5.950  13.154  0.00  0.00    -0.550 OA
ATOM     30  H   LIG    1       -2.435   6.868  13.206  0.00  0.00    +0.380 HD
ENDBRANCH  24  29
ENDBRANCH   4  21
TORSDOF 7
