REMARK  Name = ZINCqH00000037v7.0
REMARK                            x       y       z     vdW  Elec       q    Type
REMARK                         _______ _______ _______ _____ _____    ______ ____
ROOT
ATOM      1  N   LIG    1       -0.288   1.084   2.447  0.00  0.00    -0.600 N 
ATOM      2  C   LIG    1       -0.762   1.437   1.236  0.00  0.00    +0.540 C 
ATOM      3  O   LIG    1       -1.805   2.050   1.147  0.00  0.00    -0.520 OA
ENDROOT
BRANCH   1   5
ATOM      4  C   LIG    1        2.135   1.331   2.671  0.00  0.00    +0.020 C 
ATOM      5  C   LIG    1        0.972   0.344   2.554  0.00  0.00    +0.260 C 
ENDBRANCH   1   5
BRANCH   2   6
ATOM      6  C   LIG    1        0.005   1.071  -0.009  0.00  0.00    +0.120 C 
BRANCH   6   7
ATOM      7  C   LIG    1       -0.733   1.578  -1.221  0.00  0.00    +0.000 A 
ATOM      8  C   LIG    1       -0.323   2.742  -1.843  0.00  0.00    +0.040 A 
ATOM      9  C   LIG    1       -1.000   3.207  -2.955  0.00  0.00    +0.080 A 
ATOM     10  C   LIG    1       -2.087   2.508  -3.445  0.00  0.00    +0.030 A 
ATOM     11  C   LIG    1       -2.498   1.344  -2.822  0.00  0.00    +0.100 A 
ATOM     12  C   LIG    1       -1.817   0.876  -1.714  0.00  0.00    -0.030 A 
BRANCH  12  13
ATOM     13  N   LIG    1       -2.253  -0.374  -1.051  0.00  0.00    +0.040 N 
ATOM     14  O   LIG    1       -1.724  -0.730  -0.013  0.00  0.00    -0.160 OA
ATOM     15  O   LIG    1       -3.141  -1.047  -1.544  0.00  0.00    -0.160 OA
ENDBRANCH  12  13
ENDBRANCH   6   7
ENDBRANCH   2   6
BRANCH   1  16
ATOM     16  C   LIG    1       -1.033   1.440   3.657  0.00  0.00    +0.370 C 
BRANCH  16  17
ATOM     17  C   LIG    1       -2.002   0.336   3.994  0.00  0.00    +0.140 A 
ATOM     18  N   LIG    1       -3.181   0.325   3.420  0.00  0.00    -0.440 NA
ATOM     19  C   LIG    1       -4.073  -0.635   3.683  0.00  0.00    +0.130 A 
ATOM     20  C   LIG    1       -5.333  -0.645   3.062  0.00  0.00    +0.040 A 
ATOM     21  C   LIG    1       -6.223  -1.634   3.353  0.00  0.00    +0.030 A 
ATOM     22  C   LIG    1       -5.905  -2.642   4.260  0.00  0.00    +0.020 A 
ATOM     23  C   LIG    1       -4.694  -2.666   4.882  0.00  0.00    +0.030 A 
ATOM     24  C   LIG    1       -3.752  -1.662   4.606  0.00  0.00    -0.100 A 
ATOM     25  C   LIG    1       -2.489  -1.651   5.227  0.00  0.00    +0.080 A 
ATOM     26  C   LIG    1       -1.624  -0.643   4.910  0.00  0.00    -0.020 A 
ENDBRANCH  16  17
ENDBRANCH   1  16
TORSDOF 6
