REMARK  Name = ZINCvU0000000JDg.0
REMARK                            x       y       z     vdW  Elec       q    Type
REMARK                         _______ _______ _______ _____ _____    ______ ____
ROOT
ATOM      1  C   LIG    1       -2.248   1.437   2.963  0.00  0.00    -0.100 A 
ATOM      2  C   LIG    1       -1.841   2.696   3.413  0.00  0.00    +0.070 A 
ATOM      3  C   LIG    1       -2.444   3.261   4.513  0.00  0.00    +0.050 A 
ATOM      4  C   LIG    1       -3.456   2.572   5.187  0.00  0.00    -0.000 A 
ATOM      5  C   LIG    1       -3.860   1.311   4.739  0.00  0.00    +0.080 A 
ATOM      6  C   LIG    1       -3.260   0.748   3.636  0.00  0.00    +0.060 A 
ENDROOT
BRANCH   4   7
ATOM      7  C   LIG    1       -4.100   3.176   6.370  0.00  0.00    +0.200 A 
ATOM      8  N   LIG    1       -5.058   2.640   7.093  0.00  0.00    -0.270 NA
ATOM      9  N   LIG    1       -5.375   3.445   8.045  0.00  0.00    -0.270 NA
ATOM     10  C   LIG    1       -4.632   4.527   7.968  0.00  0.00    +0.220 A 
ATOM     11  O   LIG    1       -3.808   4.376   6.912  0.00  0.00    -0.210 OA
BRANCH  10  12
ATOM     12  C   LIG    1       -4.685   5.691   8.876  0.00  0.00    -0.040 A 
ATOM     13  C   LIG    1       -3.828   6.775   8.678  0.00  0.00    +0.050 A 
ATOM     14  C   LIG    1       -3.888   7.862   9.526  0.00  0.00    +0.000 A 
ATOM     15  C   LIG    1       -4.786   7.874  10.577  0.00  0.00    +0.050 A 
ATOM     16  C   LIG    1       -5.636   6.801  10.782  0.00  0.00    +0.020 A 
ATOM     17  C   LIG    1       -5.591   5.710   9.939  0.00  0.00    -0.020 A 
ATOM     18  C   LIG    1       -6.516   4.542  10.164  0.00  0.00    +0.110 C 
ENDBRANCH  10  12
ENDBRANCH   4   7
BRANCH   1  20
ATOM     19  N   LIG    1       -2.352   0.186   0.862  0.00  0.00    -0.600 N 
ATOM     20  C   LIG    1       -1.605   0.833   1.779  0.00  0.00    +0.560 C 
ATOM     21  O   LIG    1       -0.401   0.919   1.631  0.00  0.00    -0.520 OA
ATOM     22  C   LIG    1       -3.787  -0.003   1.088  0.00  0.00    +0.290 C 
BRANCH  19  23
ATOM     23  C   LIG    1       -1.728  -0.327  -0.360  0.00  0.00    +0.340 C 
BRANCH  23  27
ATOM     24  C   LIG    1       -0.369  -4.325   0.303  0.00  0.00    -0.080 A 
ATOM     25  C   LIG    1       -1.656  -4.096  -0.170  0.00  0.00    +0.030 A 
ATOM     26  C   LIG    1       -2.092  -2.803  -0.383  0.00  0.00    +0.040 A 
ATOM     27  C   LIG    1       -1.249  -1.737  -0.126  0.00  0.00    -0.120 A 
ATOM     28  C   LIG    1        0.033  -1.961   0.340  0.00  0.00    +0.060 A 
ATOM     29  C   LIG    1        0.474  -3.251   0.560  0.00  0.00    -0.020 A 
BRANCH  24  31
ATOM     30  C   LIG    1        1.886  -5.733   1.176  0.00  0.00    +0.130 C 
ATOM     31  S   LIG    1        0.191  -5.973   0.576  0.00  0.00    -0.120 S 
ENDBRANCH  24  31
ENDBRANCH  23  27
ENDBRANCH  19  23
ENDBRANCH   1  20
TORSDOF 6
