REMARK  Name = ZINCrH000004jM5I.0
REMARK                            x       y       z     vdW  Elec       q    Type
REMARK                         _______ _______ _______ _____ _____    ______ ____
ROOT
ATOM      1  N   LIG    1        3.975   5.486  -2.682  0.00  0.00    -0.660 N 
ATOM      2  H   LIG    1        3.522   4.703  -3.035  0.00  0.00    +0.410 HD
ATOM      3  C   LIG    1        3.614   5.990  -1.485  0.00  0.00    +0.720 C 
ATOM      4  N   LIG    1        2.730   5.327  -0.713  0.00  0.00    -0.560 N 
ATOM      5  C   LIG    1        2.015   4.111  -1.109  0.00  0.00    +0.280 C 
ATOM      6  C   LIG    1        1.137   3.748   0.099  0.00  0.00    +0.100 C 
ATOM      7  C   LIG    1        1.432   4.823   1.121  0.00  0.00    -0.130 A 
ATOM      8  C   LIG    1        0.941   5.019   2.397  0.00  0.00    +0.050 A 
ATOM      9  C   LIG    1        1.372   6.096   3.150  0.00  0.00    -0.010 A 
ATOM     10  C   LIG    1        2.298   6.976   2.622  0.00  0.00    +0.040 A 
ATOM     11  C   LIG    1        2.791   6.785   1.349  0.00  0.00    +0.010 A 
ATOM     12  C   LIG    1        2.361   5.700   0.583  0.00  0.00    +0.160 A 
ATOM     13  O   LIG    1        4.086   7.043  -1.102  0.00  0.00    -0.550 OA
ENDROOT
BRANCH   1  17
ATOM     14  C   LIG    1        6.970   7.249  -4.822  0.00  0.00    +0.550 A 
ATOM     15  N   LIG    1        5.976   6.660  -5.469  0.00  0.00    -0.550 NA
ATOM     16  C   LIG    1        4.989   6.078  -4.809  0.00  0.00    +0.350 A 
ATOM     17  C   LIG    1        5.004   6.092  -3.417  0.00  0.00    -0.010 A 
ATOM     18  C   LIG    1        6.062   6.725  -2.772  0.00  0.00    +0.380 A 
ATOM     19  N   LIG    1        7.018   7.281  -3.498  0.00  0.00    -0.550 NA
BRANCH  14  21
ATOM     20  C   LIG    1        7.954   7.824  -7.013  0.00  0.00    +0.310 C 
ATOM     21  N   LIG    1        7.988   7.848  -5.548  0.00  0.00    -0.590 N 
ATOM     22  C   LIG    1        9.096   8.505  -4.852  0.00  0.00    +0.300 C 
ENDBRANCH  14  21
ENDBRANCH   1  17
BRANCH   6  23
ATOM     23  C   LIG    1        1.518   2.393   0.637  0.00  0.00    -0.080 A 
ATOM     24  C   LIG    1        0.565   1.396   0.738  0.00  0.00    +0.010 A 
ATOM     25  C   LIG    1        0.914   0.153   1.231  0.00  0.00    +0.000 A 
ATOM     26  C   LIG    1        2.216  -0.094   1.623  0.00  0.00    +0.000 A 
ATOM     27  C   LIG    1        3.169   0.902   1.522  0.00  0.00    +0.000 A 
ATOM     28  C   LIG    1        2.820   2.145   1.030  0.00  0.00    +0.010 A 
ENDBRANCH   6  23
TORSDOF 3
