REMARK  Name = ZINCvU0000000Hf1.0
REMARK                            x       y       z     vdW  Elec       q    Type
REMARK                         _______ _______ _______ _____ _____    ______ ____
ROOT
ATOM      1  O   LIG    1       -0.253   0.145   0.366  0.00  0.00    -0.450 OA
ATOM      2  C   LIG    1       -0.205   1.346   0.206  0.00  0.00    +0.500 C 
ATOM      3  N   LIG    1        0.980   1.986   0.258  0.00  0.00    -0.630 N 
ATOM      4  H   LIG    1        1.018   2.947   0.129  0.00  0.00    +0.420 HD
ENDROOT
BRANCH   2   5
ATOM      5  C   LIG    1       -1.470   2.121  -0.059  0.00  0.00    +0.240 C 
ATOM      6  C   LIG    1       -1.961   2.785   1.244  0.00  0.00    +0.070 C 
ATOM      7  C   LIG    1       -3.503   2.635   1.151  0.00  0.00    +0.070 C 
ATOM      8  C   LIG    1       -3.639   1.256   0.458  0.00  0.00    +0.250 C 
ATOM      9  N   LIG    1       -2.530   1.209  -0.512  0.00  0.00    -0.600 N 
ATOM     10  C   LIG    1       -2.494   0.456  -1.629  0.00  0.00    +0.620 C 
ATOM     11  O   LIG    1       -1.571   0.572  -2.412  0.00  0.00    -0.520 OA
BRANCH  10  12
ATOM     12  C   LIG    1       -3.568  -0.505  -1.899  0.00  0.00    -0.270 A 
ATOM     13  C   LIG    1       -3.708  -1.235  -3.046  0.00  0.00    +0.100 A 
ATOM     14  C   LIG    1       -4.805  -2.064  -3.032  0.00  0.00    +0.000 A 
ATOM     15  C   LIG    1       -5.544  -2.009  -1.918  0.00  0.00    -0.070 A 
ATOM     16  S   LIG    1       -4.886  -0.897  -0.804  0.00  0.00    +0.210 S 
ENDBRANCH  10  12
ENDBRANCH   2   5
BRANCH   3  17
ATOM     17  C   LIG    1        2.147   1.270   0.497  0.00  0.00    +0.270 A 
ATOM     18  N   LIG    1        2.206  -0.011   0.687  0.00  0.00    -0.470 NA
ATOM     19  C   LIG    1        3.402  -0.529   0.896  0.00  0.00    +0.260 A 
ATOM     20  C   LIG    1        4.399   0.358   0.892  0.00  0.00    -0.240 A 
ATOM     21  S   LIG    1        3.712   1.952   0.589  0.00  0.00    +0.130 S 
BRANCH  20  22
ATOM     22  C   LIG    1        5.859   0.050   1.109  0.00  0.00    +0.190 C 
BRANCH  22  23
ATOM     23  C   LIG    1        6.511  -0.247  -0.217  0.00  0.00    -0.080 A 
ATOM     24  C   LIG    1        6.551  -1.544  -0.693  0.00  0.00    +0.050 A 
ATOM     25  C   LIG    1        7.146  -1.815  -1.911  0.00  0.00    +0.020 A 
ATOM     26  C   LIG    1        7.709  -0.790  -2.648  0.00  0.00    +0.070 A 
ATOM     27  C   LIG    1        7.673   0.506  -2.170  0.00  0.00    -0.180 A 
ATOM     28  C   LIG    1        7.075   0.778  -0.954  0.00  0.00    +0.070 A 
BRANCH  27  29
ATOM     29  C   LIG    1        8.287   1.623  -2.974  0.00  0.00    +0.510 C 
ATOM     30  F   LIG    1        7.598   2.814  -2.720  0.00  0.00    -0.180 F 
ATOM     31  F   LIG    1        8.203   1.317  -4.337  0.00  0.00    -0.180 F 
ATOM     32  F   LIG    1        9.630   1.775  -2.612  0.00  0.00    -0.180 F 
ENDBRANCH  27  29
ENDBRANCH  22  23
ENDBRANCH  20  22
ENDBRANCH   3  17
TORSDOF 6
