REMARK  Name = ZINCpk000000pUNG.0
REMARK                            x       y       z     vdW  Elec       q    Type
REMARK                         _______ _______ _______ _____ _____    ______ ____
ROOT
ATOM      1  C   LIG    1       -6.042  -0.043   1.866  0.00  0.00    +0.180 C 
ATOM      2  N   LIG    1       -6.378  -0.132   3.297  0.00  0.00    -0.710 N 
ATOM      3  H   LIG    1       -5.969  -0.717   3.954  0.00  0.00    +0.440 HD
ATOM      4  C   LIG    1       -7.362   0.759   3.517  0.00  0.00    +0.710 C 
ATOM      5  N   LIG    1       -7.711   1.419   2.406  0.00  0.00    -0.560 N 
ATOM      6  O   LIG    1       -7.877   0.944   4.602  0.00  0.00    -0.540 OA
ATOM      7  C   LIG    1       -6.985   1.022   1.343  0.00  0.00    +0.540 C 
ATOM      8  O   LIG    1       -7.067   1.433   0.205  0.00  0.00    -0.450 OA
ENDROOT
BRANCH   1   9
ATOM      9  C   LIG    1       -4.608   0.382   1.683  0.00  0.00    -0.140 A 
ATOM     10  C   LIG    1       -3.999   1.183   2.632  0.00  0.00    +0.080 A 
ATOM     11  C   LIG    1       -2.685   1.574   2.467  0.00  0.00    -0.010 A 
ATOM     12  C   LIG    1       -1.975   1.163   1.348  0.00  0.00    +0.140 A 
ATOM     13  C   LIG    1       -2.589   0.364   0.395  0.00  0.00    -0.080 A 
ATOM     14  C   LIG    1       -3.902  -0.029   0.567  0.00  0.00    +0.080 A 
BRANCH  12  15
ATOM     15  O   LIG    1       -0.682   1.547   1.184  0.00  0.00    -0.310 OA
ATOM     16  C   LIG    1       -0.013   1.086   0.008  0.00  0.00    +0.250 C 
ENDBRANCH  12  15
ENDBRANCH   1   9
BRANCH   1  18
ATOM     17  C   LIG    1       -7.758  -1.790   1.369  0.00  0.00    +0.020 C 
ATOM     18  C   LIG    1       -6.297  -1.382   1.169  0.00  0.00    +0.060 C 
ENDBRANCH   1  18
BRANCH   5  19
ATOM     19  C   LIG    1       -8.754   2.446   2.353  0.00  0.00    +0.360 C 
BRANCH  19  20
ATOM     20  C   LIG    1       -8.143   3.797   2.624  0.00  0.00    +0.520 C 
ATOM     21  N   LIG    1       -8.918   4.899   2.627  0.00  0.00    -0.620 N 
ATOM     22  C   LIG    1      -10.366   4.929   2.375  0.00  0.00    +0.230 C 
ATOM     23  C   LIG    1      -10.816   6.403   2.456  0.00  0.00    +0.040 C 
ATOM     24  C   LIG    1       -9.502   7.180   2.180  0.00  0.00    +0.040 C 
ATOM     25  C   LIG    1       -8.454   6.276   2.876  0.00  0.00    +0.250 C 
ATOM     26  O   LIG    1       -6.953   3.892   2.841  0.00  0.00    -0.520 OA
ENDBRANCH  19  20
ENDBRANCH   5  19
TORSDOF 5
