REMARK  Name = ZINCvU0000000I7k.0
REMARK                            x       y       z     vdW  Elec       q    Type
REMARK                         _______ _______ _______ _____ _____    ______ ____
ROOT
ATOM      1  C   LIG    1        4.878   1.157  -0.290  0.00  0.00    +0.070 C 
ENDROOT
BRANCH   1   2
ATOM      2  C   LIG    1        5.252   0.534   1.030  0.00  0.00    -0.100 A 
ATOM      3  C   LIG    1        5.505   1.338   2.126  0.00  0.00    +0.040 A 
ATOM      4  C   LIG    1        5.844   0.766   3.339  0.00  0.00    +0.000 A 
ATOM      5  C   LIG    1        5.938  -0.608   3.453  0.00  0.00    +0.010 A 
ATOM      6  C   LIG    1        5.689  -1.411   2.356  0.00  0.00    +0.010 A 
ATOM      7  C   LIG    1        5.346  -0.840   1.145  0.00  0.00    +0.060 A 
ENDBRANCH   1   2
BRANCH   1   8
ATOM      8  C   LIG    1        3.610   1.954  -0.128  0.00  0.00    +0.550 C 
ATOM      9  N   LIG    1        2.416   1.329  -0.124  0.00  0.00    -0.660 N 
ATOM     10  H   LIG    1        2.376   0.360  -0.150  0.00  0.00    +0.420 HD
ATOM     11  O   LIG    1        3.663   3.159  -0.002  0.00  0.00    -0.500 OA
BRANCH   9  12
ATOM     12  C   LIG    1        1.233   2.077  -0.081  0.00  0.00    +0.140 A 
ATOM     13  C   LIG    1        0.118   1.579   0.580  0.00  0.00    +0.030 A 
ATOM     14  C   LIG    1       -1.049   2.316   0.616  0.00  0.00    +0.010 A 
ATOM     15  C   LIG    1       -1.104   3.557   0.003  0.00  0.00    +0.090 A 
ATOM     16  C   LIG    1        0.006   4.056  -0.656  0.00  0.00    +0.010 A 
ATOM     17  F   LIG    1       -2.245   4.279   0.044  0.00  0.00    -0.140 F 
ATOM     18  C   LIG    1        1.174   3.319  -0.700  0.00  0.00    +0.060 A 
ENDBRANCH   9  12
ENDBRANCH   1   8
BRANCH   1  19
ATOM     19  S   LIG    1        6.212   2.249  -0.841  0.00  0.00    +0.080 S 
BRANCH  19  21
ATOM     20  N   LIG    1        8.764   1.326  -1.521  0.00  0.00    -0.450 N 
ATOM     21  C   LIG    1        7.494   1.066  -1.089  0.00  0.00    +0.140 A 
ATOM     22  N   LIG    1        7.405  -0.230  -0.899  0.00  0.00    -0.280 NA
ATOM     23  N   LIG    1        8.526  -0.795  -1.174  0.00  0.00    -0.270 NA
ATOM     24  C   LIG    1        9.399   0.106  -1.558  0.00  0.00    +0.270 A 
BRANCH  24  25
ATOM     25  C   LIG    1       10.801  -0.143  -1.960  0.00  0.00    -0.130 A 
ATOM     26  C   LIG    1       11.716  -0.914  -1.314  0.00  0.00    +0.060 A 
ATOM     27  O   LIG    1       12.865  -0.878  -2.005  0.00  0.00    -0.170 OA
ATOM     28  C   LIG    1       12.741  -0.104  -3.094  0.00  0.00    +0.190 A 
ATOM     29  C   LIG    1       11.479  -1.680  -0.037  0.00  0.00    +0.180 C 
ATOM     30  C   LIG    1       11.491   0.385  -3.144  0.00  0.00    -0.050 A 
ENDBRANCH  24  25
BRANCH  20  32
ATOM     31  C   LIG    1        9.862   3.310  -0.605  0.00  0.00    +0.040 C 
ATOM     32  C   LIG    1        9.332   2.631  -1.869  0.00  0.00    +0.300 C 
ENDBRANCH  20  32
ENDBRANCH  19  21
ENDBRANCH   1  19
TORSDOF 7
