REMARK  Name = ZINCpk00000ebADS.0
REMARK                            x       y       z     vdW  Elec       q    Type
REMARK                         _______ _______ _______ _____ _____    ______ ____
ROOT
ATOM      1  O   LIG    1        4.777   4.643   0.388  0.00  0.00    -0.570 OA
ATOM      2  C   LIG    1        3.851   3.862   0.490  0.00  0.00    +0.710 C 
ATOM      3  N   LIG    1        2.594   4.323   0.646  0.00  0.00    -0.570 N 
ATOM      4  C   LIG    1        2.243   5.699   1.010  0.00  0.00    +0.280 C 
ATOM      5  C   LIG    1        0.707   5.723   1.063  0.00  0.00    +0.090 C 
ATOM      6  C   LIG    1        0.292   4.311   0.714  0.00  0.00    -0.140 A 
ATOM      7  C   LIG    1       -0.959   3.736   0.605  0.00  0.00    +0.060 A 
ATOM      8  C   LIG    1       -1.083   2.402   0.261  0.00  0.00    -0.020 A 
ATOM      9  C   LIG    1        0.050   1.642   0.037  0.00  0.00    +0.050 A 
ATOM     10  C   LIG    1        1.301   2.212   0.145  0.00  0.00    -0.030 A 
ATOM     11  C   LIG    1        1.434   3.559   0.486  0.00  0.00    +0.150 A 
ATOM     12  N   LIG    1        4.080   2.534   0.445  0.00  0.00    -0.730 N 
ATOM     13  H   LIG    1        3.341   1.911   0.521  0.00  0.00    +0.410 HD
ENDROOT
BRANCH  12  14
ATOM     14  C   LIG    1        5.447   2.033   0.282  0.00  0.00    +0.290 C 
BRANCH  14  15
ATOM     15  C   LIG    1        5.418   0.510   0.140  0.00  0.00    +0.170 C 
BRANCH  15  16
ATOM     16  N   LIG    1        4.746  -0.078   1.306  0.00  0.00    -0.530 NA
ATOM     17  C   LIG    1        5.596   0.008   2.503  0.00  0.00    +0.150 C 
ATOM     18  C   LIG    1        4.836  -0.560   3.704  0.00  0.00    +0.220 C 
ATOM     19  O   LIG    1        4.438  -1.904   3.419  0.00  0.00    -0.380 OA
ATOM     20  C   LIG    1        3.609  -2.025   2.260  0.00  0.00    +0.220 C 
ATOM     21  C   LIG    1        4.357  -1.471   1.044  0.00  0.00    +0.150 C 
ENDBRANCH  15  16
BRANCH  15  22
ATOM     22  C   LIG    1        6.850  -0.022   0.055  0.00  0.00    -0.050 C 
ATOM     23  C   LIG    1        7.638   0.691  -1.071  0.00  0.00    +0.010 C 
ATOM     24  C   LIG    1        8.450  -0.437  -1.737  0.00  0.00    +0.200 C 
ATOM     25  O   LIG    1        8.175  -1.647  -1.011  0.00  0.00    -0.380 OA
ATOM     26  C   LIG    1        6.865  -1.497  -0.422  0.00  0.00    +0.210 C 
ENDBRANCH  15  22
ENDBRANCH  14  15
ENDBRANCH  12  14
TORSDOF 4
