REMARK  Name = ZINCrH00000No53o.0
REMARK                            x       y       z     vdW  Elec       q    Type
REMARK                         _______ _______ _______ _____ _____    ______ ____
ROOT
ATOM      1  C   LIG    1       -2.331  -0.523   0.010  0.00  0.00    +0.100 C 
ATOM      2  C   LIG    1       -2.352   0.984   0.019  0.00  0.00    +0.160 C 
ATOM      3  N   LIG    1       -1.234   1.650   0.017  0.00  0.00    -0.220 NA
ENDROOT
BRANCH   2   4
ATOM      4  C   LIG    1       -3.630   1.699   0.029  0.00  0.00    -0.160 A 
ATOM      5  C   LIG    1       -3.772   3.057   0.042  0.00  0.00    +0.070 A 
ATOM      6  C   LIG    1       -5.071   3.497   0.046  0.00  0.00    +0.020 A 
ATOM      7  C   LIG    1       -6.008   2.509   0.045  0.00  0.00    -0.140 A 
ATOM      8  S   LIG    1       -5.216   0.939   0.033  0.00  0.00    +0.180 S 
BRANCH   7   9
ATOM      9  C   LIG    1       -7.470   2.723   0.054  0.00  0.00    -0.030 A 
ATOM     10  C   LIG    1       -7.988   4.020   0.071  0.00  0.00    +0.070 A 
ATOM     11  C   LIG    1       -9.353   4.214   0.074  0.00  0.00    -0.010 A 
ATOM     12  C   LIG    1      -10.210   3.125   0.072  0.00  0.00    +0.100 A 
ATOM     13  C   LIG    1       -9.702   1.836   0.061  0.00  0.00    -0.010 A 
ATOM     14  F   LIG    1      -11.547   3.321   0.080  0.00  0.00    -0.140 F 
ATOM     15  C   LIG    1       -8.338   1.630   0.052  0.00  0.00    +0.050 A 
ENDBRANCH   7   9
ENDBRANCH   2   4
BRANCH   3  16
ATOM     16  N   LIG    1       -0.011   0.966   0.007  0.00  0.00    -0.580 N 
ATOM     17  H   LIG    1        0.002  -0.004   0.002  0.00  0.00    +0.390 HD
ATOM     18  C   LIG    1        1.147   1.655   0.000  0.00  0.00    +0.510 C 
ATOM     19  O   LIG    1        1.130   2.869   0.007  0.00  0.00    -0.490 OA
BRANCH  18  20
ATOM     20  C   LIG    1        2.462   0.920  -0.017  0.00  0.00    +0.330 C 
BRANCH  20  21
ATOM     21  N   LIG    1        3.562   1.887  -0.022  0.00  0.00    -0.590 N 
ATOM     22  C   LIG    1        4.104   2.372  -1.302  0.00  0.00    +0.270 C 
ATOM     23  C   LIG    1        3.663   3.830  -1.492  0.00  0.00    +0.010 C 
ATOM     24  C   LIG    1        4.639   4.780  -0.823  0.00  0.00    +0.010 C 
ATOM     25  C   LIG    1        4.653   4.679   0.692  0.00  0.00    +0.040 C 
ATOM     26  C   LIG    1        5.204   3.323   1.139  0.00  0.00    +0.060 C 
ATOM     27  C   LIG    1        4.071   2.318   1.133  0.00  0.00    +0.520 C 
ATOM     28  O   LIG    1        3.625   1.904   2.182  0.00  0.00    -0.540 OA
ENDBRANCH  20  21
ENDBRANCH  18  20
ENDBRANCH   3  16
TORSDOF 5
