REMARK  Name = ZINCpe000000UFQE.0
REMARK                            x       y       z     vdW  Elec       q    Type
REMARK                         _______ _______ _______ _____ _____    ______ ____
ROOT
ATOM      1  C   LIG    1        5.740   4.645   4.052  0.00  0.00    +0.360 C 
ATOM      2  N   LIG    1        4.447   4.045   3.714  0.00  0.00    -0.500 N 
ATOM      3  C   LIG    1        3.400   4.194   4.547  0.00  0.00    +0.590 A 
ATOM      4  C   LIG    1        2.142   3.618   4.226  0.00  0.00    -0.320 A 
ATOM      5  C   LIG    1        1.994   2.911   3.047  0.00  0.00    +0.180 A 
ATOM      6  N   LIG    1        3.105   2.787   2.202  0.00  0.00    -0.410 N 
ATOM      7  C   LIG    1        3.290   2.172   1.000  0.00  0.00    +0.190 A 
ATOM      8  N   LIG    1        4.532   2.375   0.653  0.00  0.00    -0.240 NA
ATOM      9  N   LIG    1        5.135   3.067   1.555  0.00  0.00    -0.290 NA
ATOM     10  C   LIG    1        0.703   2.419   2.892  0.00  0.00    +0.010 A 
ATOM     11  C   LIG    1       -0.144   2.705   3.877  0.00  0.00    -0.020 A 
ATOM     12  S   LIG    1        0.613   3.625   5.095  0.00  0.00    +0.360 S 
ATOM     13  O   LIG    1        3.535   4.818   5.585  0.00  0.00    -0.500 OA
ATOM     14  C   LIG    1        4.302   3.345   2.532  0.00  0.00    +0.420 A 
ENDROOT
BRANCH   7  15
ATOM     15  C   LIG    1        2.255   1.407   0.216  0.00  0.00    +0.330 C 
BRANCH  15  16
ATOM     16  N   LIG    1        2.200   0.021   0.699  0.00  0.00    -0.530 NA
ATOM     17  C   LIG    1        3.494  -0.651   0.520  0.00  0.00    +0.220 C 
BRANCH  16  18
ATOM     18  C   LIG    1        1.122  -0.726   0.035  0.00  0.00    +0.090 C 
ATOM     19  C   LIG    1       -0.235  -0.005   0.228  0.00  0.00    +0.050 C 
ATOM     20  C   LIG    1       -1.071  -0.532  -0.969  0.00  0.00    +0.020 C 
ATOM     21  C   LIG    1       -0.060  -0.613  -2.131  0.00  0.00    +0.020 C 
ATOM     22  C   LIG    1        1.335  -0.736  -1.492  0.00  0.00    +0.020 C 
BRANCH  18  23
ATOM     23  C   LIG    1        1.052  -2.134   0.568  0.00  0.00    +0.540 C 
ATOM     24  O   LIG    1        0.755  -3.048  -0.172  0.00  0.00    -0.530 OA
ATOM     25  N   LIG    1        1.321  -2.377   1.866  0.00  0.00    -0.850 N 
ATOM     26  H   LIG    1        1.203  -3.270   2.227  0.00  0.00    +0.400 HD
ATOM     27  H   LIG    1        1.627  -1.659   2.441  0.00  0.00    +0.410 HD
ENDBRANCH  18  23
ENDBRANCH  16  18
ENDBRANCH  15  16
ENDBRANCH   7  15
TORSDOF 4
