REMARK  Name = ZINCvU00000007C1.0
REMARK                            x       y       z     vdW  Elec       q    Type
REMARK                         _______ _______ _______ _____ _____    ______ ____
ROOT
ATOM      1  N   LIG    1        1.032  -4.004  -1.682  0.00  0.00    -0.470 N 
ATOM      2  C   LIG    1        1.716  -2.877  -1.400  0.00  0.00    +0.520 C 
ATOM      3  O   LIG    1        2.030  -2.629  -0.256  0.00  0.00    -0.470 OA
ENDROOT
BRANCH   2   4
ATOM      4  C   LIG    1        2.090  -1.926  -2.507  0.00  0.00    +0.080 C 
ATOM      5  C   LIG    1        3.438  -2.339  -3.100  0.00  0.00    +0.110 C 
ATOM      6  C   LIG    1        4.542  -2.038  -2.122  0.00  0.00    +0.520 C 
ATOM      7  N   LIG    1        4.482  -0.952  -1.330  0.00  0.00    -0.660 N 
ATOM      8  H   LIG    1        5.207  -0.765  -0.714  0.00  0.00    +0.410 HD
ATOM      9  C   LIG    1        3.381  -0.092  -1.388  0.00  0.00    +0.190 A 
ATOM     10  C   LIG    1        3.474   1.196  -0.879  0.00  0.00    -0.020 A 
ATOM     11  C   LIG    1        2.382   2.040  -0.939  0.00  0.00    +0.050 A 
ATOM     12  C   LIG    1        1.198   1.603  -1.503  0.00  0.00    -0.010 A 
ATOM     13  C   LIG    1        1.103   0.320  -2.012  0.00  0.00    +0.060 A 
ATOM     14  O   LIG    1        5.497  -2.782  -2.048  0.00  0.00    -0.520 OA
ATOM     15  C   LIG    1        2.190  -0.528  -1.955  0.00  0.00    -0.120 A 
ENDBRANCH   2   4
BRANCH   1  16
ATOM     16  C   LIG    1        0.602  -4.830  -0.655  0.00  0.00    +0.320 A 
ATOM     17  N   LIG    1        0.041  -5.977  -0.820  0.00  0.00    -0.490 NA
ATOM     18  C   LIG    1       -0.322  -6.666   0.280  0.00  0.00    +0.100 A 
ATOM     19  C   LIG    1       -0.946  -7.929   0.365  0.00  0.00    +0.060 A 
ATOM     20  C   LIG    1       -1.241  -8.477   1.588  0.00  0.00    +0.040 A 
ATOM     21  C   LIG    1       -0.932  -7.800   2.759  0.00  0.00    +0.030 A 
ATOM     22  C   LIG    1       -0.323  -6.566   2.700  0.00  0.00    +0.060 A 
ATOM     23  C   LIG    1       -0.016  -5.995   1.468  0.00  0.00    -0.210 A 
ATOM     24  S   LIG    1        0.755  -4.464   1.058  0.00  0.00    +0.170 S 
ENDBRANCH   1  16
BRANCH   1  28
ATOM     25  C   LIG    1        0.205  -5.004  -5.643  0.00  0.00    -0.060 A 
ATOM     26  C   LIG    1        1.182  -5.692  -4.947  0.00  0.00    +0.030 A 
ATOM     27  C   LIG    1        1.458  -5.363  -3.634  0.00  0.00    +0.040 A 
ATOM     28  C   LIG    1        0.754  -4.340  -3.014  0.00  0.00    +0.110 A 
ATOM     29  C   LIG    1       -0.230  -3.654  -3.714  0.00  0.00    +0.020 A 
ATOM     30  C   LIG    1       -0.497  -3.984  -5.028  0.00  0.00    +0.020 A 
BRANCH  25  32
ATOM     31  C   LIG    1       -1.183  -6.439  -7.114  0.00  0.00    +0.030 C 
ATOM     32  C   LIG    1       -0.093  -5.365  -7.075  0.00  0.00    +0.070 C 
ENDBRANCH  25  32
ENDBRANCH   1  28
TORSDOF 4
