REMARK  Name = ZINCpk000000nnN0.0
REMARK                            x       y       z     vdW  Elec       q    Type
REMARK                         _______ _______ _______ _____ _____    ______ ____
ROOT
ATOM      1  C   LIG    1       -3.587  -1.072   0.487  0.00  0.00    +0.270 C 
ENDROOT
BRANCH   1   2
ATOM      2  N   LIG    1       -2.558  -0.093   0.847  0.00  0.00    -0.700 N 
ATOM      3  H   LIG    1       -2.748   0.856   0.784  0.00  0.00    +0.410 HD
ATOM      4  C   LIG    1       -1.347  -0.511   1.266  0.00  0.00    +0.610 C 
ATOM      5  O   LIG    1       -1.108  -1.702   1.346  0.00  0.00    -0.550 OA
BRANCH   4   6
ATOM      6  C   LIG    1       -0.320   0.466   1.626  0.00  0.00    +0.070 A 
ATOM      7  N   LIG    1       -0.459   1.783   1.581  0.00  0.00    -0.400 NA
ATOM      8  C   LIG    1        0.659   2.367   1.972  0.00  0.00    +0.180 A 
ATOM      9  C   LIG    1        1.577   1.367   2.288  0.00  0.00    +0.030 A 
ATOM     10  C   LIG    1        2.903   1.385   2.748  0.00  0.00    +0.070 A 
ATOM     11  C   LIG    1        3.547   0.203   2.968  0.00  0.00    +0.030 A 
ATOM     12  C   LIG    1        2.876  -1.006   2.731  0.00  0.00    +0.030 A 
ATOM     13  C   LIG    1        1.599  -1.004   2.287  0.00  0.00    +0.240 A 
ATOM     14  N   LIG    1        0.944   0.169   2.064  0.00  0.00    -0.320 N 
ENDBRANCH   4   6
ENDBRANCH   1   2
BRANCH   1  16
ATOM     15  C   LIG    1       -5.363   0.535   1.197  0.00  0.00    +0.050 C 
ATOM     16  C   LIG    1       -4.856  -0.339   0.049  0.00  0.00    -0.050 C 
ATOM     17  C   LIG    1       -4.544   0.542  -1.163  0.00  0.00    +0.030 C 
BRANCH  16  18
ATOM     18  C   LIG    1       -5.931  -1.361  -0.328  0.00  0.00    -0.020 C 
ATOM     19  C   LIG    1       -6.409  -2.132   0.925  0.00  0.00    +0.220 C 
ATOM     20  O   LIG    1       -7.831  -2.310   0.726  0.00  0.00    -0.360 OA
ATOM     21  C   LIG    1       -8.300  -1.066   0.158  0.00  0.00    +0.210 C 
ATOM     22  C   LIG    1       -7.199  -0.651  -0.833  0.00  0.00    +0.240 C 
ATOM     23  O   LIG    1       -7.525  -1.089  -2.156  0.00  0.00    -0.360 OA
ATOM     24  C   LIG    1       -8.092   0.080  -2.798  0.00  0.00    +0.200 C 
ATOM     25  C   LIG    1       -7.251   1.224  -2.177  0.00  0.00    +0.200 C 
ATOM     26  O   LIG    1       -7.021   0.765  -0.827  0.00  0.00    -0.350 OA
ENDBRANCH  16  18
ENDBRANCH   1  16
TORSDOF 4
