REMARK  Name = ZINCnE000001ShMw.1
REMARK                            x       y       z     vdW  Elec       q    Type
REMARK                         _______ _______ _______ _____ _____    ______ ____
ROOT
ATOM      1  O   LIG    1        5.926   3.534   0.355  0.00  0.00    -0.600 OA
ATOM      2  C   LIG    1        5.367   3.300   1.405  0.00  0.00    +0.450 C 
ATOM      3  N   LIG    1        5.907   3.725   2.565  0.00  0.00    -0.660 NA
ENDROOT
BRANCH   3   4
ATOM      4  C   LIG    1        7.103   4.432   2.557  0.00  0.00    +0.380 A 
ATOM      5  N   LIG    1        7.710   4.887   3.608  0.00  0.00    -0.550 NA
ATOM      6  C   LIG    1        8.847   5.541   3.410  0.00  0.00    +0.130 A 
ATOM      7  C   LIG    1        9.233   5.651   2.126  0.00  0.00    -0.190 A 
ATOM      8  S   LIG    1        8.033   4.842   1.120  0.00  0.00    -0.010 S 
BRANCH   6   9
ATOM      9  C   LIG    1        9.639   6.111   4.527  0.00  0.00    -0.040 A 
ATOM     10  C   LIG    1        9.203   5.975   5.848  0.00  0.00    +0.090 A 
ATOM     11  C   LIG    1        9.978   6.524   6.855  0.00  0.00    -0.050 A 
ATOM     12  C   LIG    1       11.148   7.184   6.525  0.00  0.00    +0.230 A 
ATOM     13  N   LIG    1       11.534   7.296   5.269  0.00  0.00    -0.490 NA
ATOM     14  C   LIG    1       10.832   6.786   4.277  0.00  0.00    +0.250 A 
ENDBRANCH   6   9
ENDBRANCH   3   4
BRANCH   2  15
ATOM     15  C   LIG    1        4.070   2.533   1.413  0.00  0.00    +0.050 C 
BRANCH  15  16
ATOM     16  C   LIG    1        3.682   2.172  -0.022  0.00  0.00    +0.090 C 
BRANCH  16  17
ATOM     17  C   LIG    1        2.385   1.405  -0.014  0.00  0.00    -0.100 A 
ATOM     18  C   LIG    1        2.398   0.024  -0.020  0.00  0.00    +0.030 A 
ATOM     19  C   LIG    1        1.208  -0.680  -0.013  0.00  0.00    -0.010 A 
ATOM     20  C   LIG    1        0.002  -0.004   0.002  0.00  0.00    +0.000 A 
ATOM     21  C   LIG    1       -0.017   1.377   0.010  0.00  0.00    -0.030 A 
ATOM     22  C   LIG    1        1.176   2.086   0.002  0.00  0.00    +0.110 A 
BRANCH  22  23
ATOM     23  O   LIG    1        1.160   3.445   0.009  0.00  0.00    -0.500 OA
ATOM     24  H   LIG    1        1.164   3.834   0.894  0.00  0.00    +0.390 HD
ENDBRANCH  22  23
ENDBRANCH  16  17
ENDBRANCH  15  16
ENDBRANCH   2  15
TORSDOF 6
