REMARK  Name = ZINCnE000001PsuM.0
REMARK                            x       y       z     vdW  Elec       q    Type
REMARK                         _______ _______ _______ _____ _____    ______ ____
ROOT
ATOM      1  C   LIG    1        0.002  -0.004   0.002  0.00  0.00    -0.090 A 
ATOM      2  C   LIG    1        0.786  -0.686  -0.927  0.00  0.00    +0.050 A 
ATOM      3  C   LIG    1        0.807  -2.065  -0.929  0.00  0.00    +0.000 A 
ATOM      4  C   LIG    1        0.039  -2.774  -0.013  0.00  0.00    +0.180 A 
ATOM      5  C   LIG    1       -0.747  -2.096   0.910  0.00  0.00    -0.030 A 
ATOM      6  C   LIG    1       -0.767  -0.718   0.920  0.00  0.00    +0.050 A 
ENDROOT
BRANCH   1  12
ATOM      7  C   LIG    1       -2.558   4.282   0.013  0.00  0.00    +0.090 C 
ATOM      8  C   LIG    1       -1.245   3.542   0.015  0.00  0.00    -0.090 A 
ATOM      9  C   LIG    1       -0.056   4.247   0.024  0.00  0.00    +0.000 A 
ATOM     10  C   LIG    1        1.153   3.575   0.025  0.00  0.00    +0.000 A 
ATOM     11  C   LIG    1        1.178   2.195   0.018  0.00  0.00    -0.080 A 
ATOM     12  C   LIG    1       -0.018   1.479   0.010  0.00  0.00    -0.030 A 
ATOM     13  C   LIG    1        2.495   1.464   0.020  0.00  0.00    +0.080 C 
ATOM     14  C   LIG    1       -1.233   2.162   0.004  0.00  0.00    +0.010 A 
ENDBRANCH   1  12
BRANCH   4  15
ATOM     15  N   LIG    1        0.058  -4.172  -0.021  0.00  0.00    -0.560 N 
ATOM     16  C   LIG    1       -0.616  -5.015   0.974  0.00  0.00    +0.290 C 
ATOM     17  C   LIG    1       -0.694  -6.421   0.338  0.00  0.00    -0.090 C 
ATOM     18  C   LIG    1        0.497  -6.388  -0.647  0.00  0.00    +0.080 C 
ATOM     19  C   LIG    1        0.691  -4.917  -0.944  0.00  0.00    +0.520 C 
ATOM     20  O   LIG    1        1.328  -4.475  -1.877  0.00  0.00    -0.530 OA
BRANCH  17  21
ATOM     21  C   LIG    1       -0.505  -7.495   1.378  0.00  0.00    +0.510 C 
ATOM     22  O   LIG    1        0.324  -7.350   2.260  0.00  0.00    -0.690 OA
ATOM     23  O   LIG    1       -1.181  -8.508   1.337  0.00  0.00    -0.690 OA
ENDBRANCH  17  21
ENDBRANCH   4  15
TORSDOF 3
