REMARK  Name = ZINCpe000000Xhh8.0
REMARK                            x       y       z     vdW  Elec       q    Type
REMARK                         _______ _______ _______ _____ _____    ______ ____
ROOT
ATOM      1  C   LIG    1        0.312   4.289   2.099  0.00  0.00    +0.520 C 
ATOM      2  N   LIG    1        0.551   5.104   1.053  0.00  0.00    -0.570 N 
ATOM      3  O   LIG    1        0.228   3.091   1.927  0.00  0.00    -0.510 OA
ENDROOT
BRANCH   2   4
ATOM      4  C   LIG    1        1.119   4.562  -0.184  0.00  0.00    +0.270 C 
ATOM      5  C   LIG    1        2.496   3.921   0.087  0.00  0.00    +0.080 C 
ATOM      6  C   LIG    1        2.294   2.471  -0.297  0.00  0.00    +0.540 C 
ATOM      7  N   LIG    1        1.035   2.299  -0.719  0.00  0.00    -0.670 N 
ATOM      8  H   LIG    1        0.694   1.441  -1.018  0.00  0.00    +0.420 HD
ATOM      9  O   LIG    1        3.139   1.604  -0.237  0.00  0.00    -0.480 OA
ATOM     10  C   LIG    1        0.284   3.407  -0.692  0.00  0.00    +0.530 C 
ATOM     11  O   LIG    1       -0.879   3.475  -1.027  0.00  0.00    -0.470 OA
ENDBRANCH   2   4
BRANCH   2  12
ATOM     12  C   LIG    1        0.242   6.533   1.152  0.00  0.00    +0.220 C 
ATOM     13  C   LIG    1        0.563   7.234   2.473  0.00  0.00    +0.020 C 
ATOM     14  C   LIG    1       -0.891   6.947   2.092  0.00  0.00    +0.030 C 
ENDBRANCH   2  12
BRANCH   1  16
ATOM     15  C   LIG    1        1.527   5.154   4.080  0.00  0.00    +0.070 C 
ATOM     16  C   LIG    1        0.148   4.865   3.481  0.00  0.00    +0.240 C 
BRANCH  16  17
ATOM     17  N   LIG    1       -0.561   3.905   4.330  0.00  0.00    -0.720 N 
ATOM     18  H   LIG    1       -0.529   2.958   4.123  0.00  0.00    +0.410 HD
ATOM     19  C   LIG    1       -1.258   4.337   5.399  0.00  0.00    +0.520 C 
ATOM     20  O   LIG    1       -1.299   5.521   5.659  0.00  0.00    -0.530 OA
BRANCH  19  21
ATOM     21  C   LIG    1       -1.988   3.349   6.272  0.00  0.00    +0.060 C 
BRANCH  21  22
ATOM     22  C   LIG    1       -2.694   4.095   7.407  0.00  0.00    +0.010 C 
ATOM     23  C   LIG    1       -1.650   4.745   8.317  0.00  0.00    +0.010 C 
ATOM     24  C   LIG    1       -2.356   5.491   9.451  0.00  0.00    +0.000 C 
ATOM     25  C   LIG    1       -3.197   4.505  10.264  0.00  0.00    +0.000 C 
ATOM     26  C   LIG    1       -4.241   3.855   9.354  0.00  0.00    +0.000 C 
ATOM     27  C   LIG    1       -3.535   3.109   8.220  0.00  0.00    +0.000 C 
ENDBRANCH  21  22
ENDBRANCH  19  21
ENDBRANCH  16  17
ENDBRANCH   1  16
TORSDOF 6
