REMARK  Name = ZINCrH000004nbJr.0
REMARK                            x       y       z     vdW  Elec       q    Type
REMARK                         _______ _______ _______ _____ _____    ______ ____
ROOT
ATOM      1  C   LIG    1        0.987   1.734   0.026  0.00  0.00    +0.120 A 
ATOM      2  C   LIG    1       -0.071   1.175  -0.675  0.00  0.00    -0.050 A 
ATOM      3  C   LIG    1        0.111   0.011  -1.398  0.00  0.00    +0.060 A 
ATOM      4  C   LIG    1        1.353  -0.604  -1.426  0.00  0.00    +0.060 A 
ATOM      5  O   LIG    1        1.518  -1.753  -2.135  0.00  0.00    -0.300 OA
ATOM      6  C   LIG    1        2.848  -2.120  -2.508  0.00  0.00    +0.160 C 
ATOM      7  C   LIG    1        3.751  -2.038  -1.269  0.00  0.00    +0.270 C 
ATOM      8  N   LIG    1        3.677  -0.659  -0.756  0.00  0.00    -0.550 N 
ATOM      9  C   LIG    1        4.781  -0.013  -0.331  0.00  0.00    +0.580 C 
ATOM     10  O   LIG    1        4.718   1.161  -0.025  0.00  0.00    -0.490 OA
ATOM     11  C   LIG    1        2.852  -3.551  -3.051  0.00  0.00    +0.080 C 
ATOM     12  C   LIG    1        2.416  -0.041  -0.725  0.00  0.00    +0.120 A 
ATOM     13  C   LIG    1        2.233   1.125   0.001  0.00  0.00    +0.030 A 
ENDROOT
BRANCH   9  14
ATOM     14  C   LIG    1        6.067  -0.733  -0.237  0.00  0.00    -0.210 A 
ATOM     15  C   LIG    1        6.096  -2.102   0.053  0.00  0.00    +0.370 A 
ATOM     16  N   LIG    1        7.230  -2.763   0.137  0.00  0.00    -0.450 NA
ATOM     17  C   LIG    1        8.398  -2.168  -0.039  0.00  0.00    +0.230 A 
ATOM     18  O   LIG    1        9.682  -2.567  -0.013  0.00  0.00    +0.090 OA
ATOM     19  N   LIG    1       10.461  -1.671  -0.234  0.00  0.00    -0.300 NA
ATOM     20  C   LIG    1        9.887  -0.524  -0.449  0.00  0.00    +0.080 A 
ATOM     21  C   LIG    1        8.449  -0.787  -0.331  0.00  0.00    -0.220 A 
ATOM     22  C   LIG    1        7.276  -0.055  -0.432  0.00  0.00    +0.230 A 
BRANCH  20  23
ATOM     23  C   LIG    1       10.555   0.791  -0.753  0.00  0.00    +0.080 C 
ATOM     24  C   LIG    1       11.373   0.662  -2.040  0.00  0.00    +0.040 C 
ATOM     25  C   LIG    1       11.481   1.173   0.403  0.00  0.00    +0.040 C 
ENDBRANCH  20  23
ENDBRANCH   9  14
BRANCH   1  27
ATOM     26  C   LIG    1       -0.506   3.450   0.719  0.00  0.00    +0.250 C 
ATOM     27  O   LIG    1        0.803   2.878   0.738  0.00  0.00    -0.310 OA
ENDBRANCH   1  27
TORSDOF 3
