REMARK  Name = ZINCkj000018RENM.0
REMARK                            x       y       z     vdW  Elec       q    Type
REMARK                         _______ _______ _______ _____ _____    ______ ____
ROOT
ATOM      1  N   LIG    1        1.462   1.995   0.022  0.00  0.00    -0.550 NA
ATOM      2  C   LIG    1        2.167   1.723  -1.238  0.00  0.00    +0.210 C 
ENDROOT
BRANCH   1   3
ATOM      3  C   LIG    1        0.129   1.379   0.024  0.00  0.00    +0.220 C 
BRANCH   3   5
ATOM      4  C   LIG    1       -0.320  -0.852   0.945  0.00  0.00    +0.050 C 
ATOM      5  C   LIG    1        0.269  -0.122   0.008  0.00  0.00    -0.050 C 
BRANCH   4  11
ATOM      6  C   LIG    1       -0.799  -3.098   1.921  0.00  0.00    +0.140 A 
ATOM      7  C   LIG    1       -0.668  -4.476   1.895  0.00  0.00    -0.080 A 
ATOM      8  C   LIG    1        0.076  -5.084   0.901  0.00  0.00    +0.060 A 
ATOM      9  C   LIG    1        0.690  -4.321  -0.077  0.00  0.00    -0.020 A 
ATOM     10  C   LIG    1        0.565  -2.947  -0.068  0.00  0.00    +0.060 A 
ATOM     11  C   LIG    1       -0.183  -2.323   0.930  0.00  0.00    -0.100 A 
BRANCH   6  13
ATOM     12  C   LIG    1       -2.124  -3.353   3.878  0.00  0.00    +0.240 C 
ATOM     13  O   LIG    1       -1.525  -2.499   2.901  0.00  0.00    -0.320 OA
ENDBRANCH   6  13
ENDBRANCH   4  11
ENDBRANCH   3   5
ENDBRANCH   1   3
BRANCH   1  14
ATOM     14  C   LIG    1        1.375   3.439   0.275  0.00  0.00    +0.210 C 
BRANCH  14  15
ATOM     15  C   LIG    1        1.100   3.682   1.760  0.00  0.00    +0.180 C 
ATOM     16  C   LIG    1        1.112   5.194   2.071  0.00  0.00    +0.090 C 
ATOM     17  C   LIG    1        1.772   5.313   3.460  0.00  0.00    +0.190 C 
ATOM     18  C   LIG    1        2.103   3.863   3.872  0.00  0.00    +0.240 C 
ATOM     19  N   LIG    1        2.199   3.121   2.588  0.00  0.00    -0.500 N 
ATOM     20  H   LIG    1        3.092   3.289   2.150  0.00  0.00    +0.430 HD
ATOM     21  H   LIG    1        2.058   2.134   2.740  0.00  0.00    +0.440 HD
BRANCH  17  22
ATOM     22  O   LIG    1        0.862   5.899   4.393  0.00  0.00    -0.540 OA
ATOM     23  H   LIG    1        1.223   5.998   5.285  0.00  0.00    +0.400 HD
ENDBRANCH  17  22
ENDBRANCH  14  15
ENDBRANCH   1  14
TORSDOF 7
