REMARK  Name = ZINCkj000005jPTr.0
REMARK                            x       y       z     vdW  Elec       q    Type
REMARK                         _______ _______ _______ _____ _____    ______ ____
ROOT
ATOM      1  N   LIG    1        0.035   0.332  -0.659  0.00  0.00    -1.000 NA
ATOM      2  C   LIG    1       -0.172  -1.124  -0.753  0.00  0.00    +0.220 C 
ATOM      3  C   LIG    1        1.198  -1.744  -0.384  0.00  0.00    +0.040 C 
ATOM      4  C   LIG    1        2.184  -0.740  -1.031  0.00  0.00    +0.010 C 
ATOM      5  C   LIG    1        3.464  -0.676  -0.184  0.00  0.00    +0.020 C 
ATOM      6  C   LIG    1        3.517   0.736   0.432  0.00  0.00    +0.040 C 
ATOM      7  C   LIG    1        2.038   1.190   0.466  0.00  0.00    +0.010 C 
ATOM      8  C   LIG    1        1.462   0.622  -0.854  0.00  0.00    +0.260 C 
ENDROOT
BRANCH   1   9
ATOM      9  S   LIG    1       -1.148   1.458  -0.385  0.00  0.00    +2.790 S 
ATOM     10  O   LIG    1       -0.493   2.715  -0.294  0.00  0.00    -0.940 OA
ATOM     11  O   LIG    1       -1.970   0.933   0.648  0.00  0.00    -0.980 OA
BRANCH   9  18
ATOM     12  C   LIG    1       -0.288   2.904  -2.661  0.00  0.00    +0.050 C 
ATOM     13  C   LIG    1       -1.689   2.337  -2.898  0.00  0.00    +0.240 C 
ATOM     14  C   LIG    1       -1.683   1.448  -4.151  0.00  0.00    +0.020 C 
ATOM     15  C   LIG    1       -3.051   0.779  -4.301  0.00  0.00    +0.020 C 
ATOM     16  C   LIG    1       -3.324  -0.107  -3.083  0.00  0.00    +0.010 C 
ATOM     17  C   LIG    1       -3.347   0.761  -1.821  0.00  0.00    +0.270 C 
ATOM     18  N   LIG    1       -2.091   1.519  -1.746  0.00  0.00    -1.000 NA
ENDBRANCH   9  18
ENDBRANCH   1   9
BRANCH   2  19
ATOM     19  C   LIG    1       -1.248  -1.575   0.237  0.00  0.00    +0.260 C 
BRANCH  19  20
ATOM     20  N   LIG    1       -1.512  -3.008   0.055  0.00  0.00    -0.630 N 
ATOM     21  H   LIG    1       -0.689  -3.536   0.303  0.00  0.00    +0.440 HD
ATOM     22  H   LIG    1       -1.748  -3.187  -0.910  0.00  0.00    +0.430 HD
ATOM     23  H   LIG    1       -2.281  -3.286   0.646  0.00  0.00    +0.440 HD
ENDBRANCH  19  20
ENDBRANCH   2  19
TORSDOF 4
