REMARK  Name = ZINCpe000000ZCSa.0
REMARK                            x       y       z     vdW  Elec       q    Type
REMARK                         _______ _______ _______ _____ _____    ______ ____
ROOT
ATOM      1  N   LIG    1       -2.756   1.039  -2.746  0.00  0.00    -0.730 N 
ATOM      2  H   LIG    1       -2.713   2.004  -2.835  0.00  0.00    +0.400 HD
ATOM      3  C   LIG    1       -2.053   0.419  -1.777  0.00  0.00    +0.710 C 
ATOM      4  N   LIG    1       -1.374   1.146  -0.868  0.00  0.00    -0.630 N 
ATOM      5  C   LIG    1       -0.697   0.489   0.260  0.00  0.00    +0.300 C 
ATOM      6  C   LIG    1       -1.200   1.112   1.568  0.00  0.00    +0.260 C 
ATOM      7  N   LIG    1       -1.127   2.576   1.448  0.00  0.00    -0.600 N 
ATOM      8  C   LIG    1       -1.804   3.232   0.321  0.00  0.00    +0.290 C 
ATOM      9  C   LIG    1       -0.448   3.302   2.358  0.00  0.00    +0.570 C 
ATOM     10  O   LIG    1       -0.449   4.516   2.290  0.00  0.00    -0.520 OA
ATOM     11  C   LIG    1       -1.297   2.608  -0.985  0.00  0.00    +0.270 C 
ATOM     12  O   LIG    1       -2.032  -0.795  -1.724  0.00  0.00    -0.570 OA
ENDROOT
BRANCH   9  13
ATOM     13  C   LIG    1        0.296   2.624   3.438  0.00  0.00    -0.160 A 
ATOM     14  C   LIG    1       -0.349   1.700   4.262  0.00  0.00    +0.100 A 
ATOM     15  C   LIG    1        0.352   1.066   5.265  0.00  0.00    +0.030 A 
ATOM     16  C   LIG    1        1.694   1.351   5.465  0.00  0.00    +0.010 A 
ATOM     17  C   LIG    1        2.341   2.270   4.656  0.00  0.00    +0.010 A 
ATOM     18 CL   LIG    1        2.567   0.553   6.736  0.00  0.00    -0.040 Cl
ATOM     19  C   LIG    1        1.651   2.909   3.643  0.00  0.00    +0.160 A 
ATOM     20  F   LIG    1        2.282   3.805   2.854  0.00  0.00    -0.120 F 
ENDBRANCH   9  13
BRANCH   1  27
ATOM     21  O   LIG    1       -1.655  -0.666  -4.801  0.00  0.00    -0.510 OA
ATOM     22  C   LIG    1       -2.770  -0.194  -4.859  0.00  0.00    +0.500 C 
ATOM     23  N   LIG    1       -3.466   0.009  -5.994  0.00  0.00    -0.740 N 
ATOM     24  H   LIG    1       -3.137  -0.199  -6.882  0.00  0.00    +0.410 HD
ATOM     25  C   LIG    1       -4.787   0.584  -5.714  0.00  0.00    +0.270 C 
ATOM     26  C   LIG    1       -4.700   1.136  -4.274  0.00  0.00    +0.050 C 
ATOM     27  C   LIG    1       -3.584   0.255  -3.666  0.00  0.00    +0.260 C 
ENDBRANCH   1  27
TORSDOF 2
