REMARK  Name = ZINCnE000001Ogt0.0
REMARK                            x       y       z     vdW  Elec       q    Type
REMARK                         _______ _______ _______ _____ _____    ______ ____
ROOT
ATOM      1  C   LIG    1        0.623   6.529  -1.222  0.00  0.00    +0.030 C 
ATOM      2  C   LIG    1       -0.079   6.003   0.032  0.00  0.00    -0.090 C 
ENDROOT
BRANCH   2   3
ATOM      3  C   LIG    1       -0.059   4.497   0.025  0.00  0.00    -0.010 A 
ATOM      4  C   LIG    1        1.148   3.822   0.011  0.00  0.00    +0.030 A 
ATOM      5  C   LIG    1        1.167   2.440   0.004  0.00  0.00    +0.020 A 
ATOM      6  C   LIG    1       -0.021   1.732   0.012  0.00  0.00    -0.050 A 
ATOM      7  C   LIG    1       -1.229   2.407   0.021  0.00  0.00    +0.020 A 
ATOM      8 CL   LIG    1        0.002  -0.004   0.002  0.00  0.00    -0.090 Cl
ATOM      9  C   LIG    1       -1.247   3.789   0.033  0.00  0.00    +0.010 A 
ENDBRANCH   2   3
BRANCH   2  10
ATOM     10  C   LIG    1        0.636   6.510   1.258  0.00  0.00    +0.520 C 
ATOM     11  O   LIG    1        0.233   6.205   2.368  0.00  0.00    -0.700 OA
ATOM     12  O   LIG    1        1.616   7.225   1.140  0.00  0.00    -0.670 OA
ENDBRANCH   2  10
BRANCH   2  13
ATOM     13  C   LIG    1       -1.529   6.494   0.048  0.00  0.00    +0.060 C 
BRANCH  13  14
ATOM     14  C   LIG    1       -1.549   8.001   0.054  0.00  0.00    +0.520 C 
ATOM     15  N   LIG    1       -2.725   8.659   0.068  0.00  0.00    -0.630 N 
ATOM     16  C   LIG    1       -4.059   8.031   0.079  0.00  0.00    +0.240 C 
ATOM     17  C   LIG    1       -5.002   9.096  -0.533  0.00  0.00    +0.030 C 
ATOM     18  C   LIG    1       -4.412  10.408   0.040  0.00  0.00    -0.010 C 
ATOM     19  C   LIG    1       -4.624  11.540  -0.976  0.00  0.00    +0.020 C 
ATOM     20  C   LIG    1       -3.225  11.949  -1.482  0.00  0.00    +0.010 C 
ATOM     21  C   LIG    1       -2.360  10.684  -1.265  0.00  0.00    +0.010 C 
ATOM     22  C   LIG    1       -2.888  10.119   0.082  0.00  0.00    +0.220 C 
ATOM     23  O   LIG    1       -0.507   8.621   0.048  0.00  0.00    -0.490 OA
ENDBRANCH  13  14
ENDBRANCH   2  13
TORSDOF 4
