REMARK  Name = ZINCtV00000L6k2N.0
REMARK                            x       y       z     vdW  Elec       q    Type
REMARK                         _______ _______ _______ _____ _____    ______ ____
ROOT
ATOM      1  C   LIG    1       -0.259   3.622   0.313  0.00  0.00    +0.100 C 
ATOM      2  C   LIG    1        0.268   3.736  -1.119  0.00  0.00    +0.010 C 
ENDROOT
BRANCH   2   3
ATOM      3  C   LIG    1        0.388   5.190  -1.496  0.00  0.00    +0.540 C 
ATOM      4  N   LIG    1       -0.706   5.878  -1.880  0.00  0.00    -0.650 N 
ATOM      5  H   LIG    1       -1.581   5.463  -1.834  0.00  0.00    +0.420 HD
ATOM      6  O   LIG    1        1.468   5.741  -1.455  0.00  0.00    -0.490 OA
BRANCH   4   7
ATOM      7  C   LIG    1       -0.578   7.194  -2.345  0.00  0.00    +0.140 A 
ATOM      8  C   LIG    1        0.651   7.655  -2.798  0.00  0.00    +0.090 A 
ATOM      9  C   LIG    1        0.776   8.952  -3.256  0.00  0.00    +0.050 A 
ATOM     10  C   LIG    1       -0.322   9.795  -3.265  0.00  0.00    +0.080 A 
ATOM     11  C   LIG    1       -1.551   9.339  -2.813  0.00  0.00    +0.060 A 
ATOM     12  F   LIG    1       -2.622  10.163  -2.823  0.00  0.00    -0.110 F 
ATOM     13  F   LIG    1       -0.196  11.062  -3.715  0.00  0.00    -0.120 F 
ATOM     14  C   LIG    1       -1.682   8.038  -2.358  0.00  0.00    +0.060 A 
ATOM     15  F   LIG    1       -2.881   7.591  -1.924  0.00  0.00    -0.120 F 
ENDBRANCH   4   7
ENDBRANCH   2   3
BRANCH   2  16
ATOM     16  S   LIG    1        1.895   2.949  -1.227  0.00  0.00    +0.170 S 
BRANCH  16  17
ATOM     17  C   LIG    1        1.449   1.277  -0.894  0.00  0.00    +0.030 A 
ATOM     18  N   LIG    1        0.260   0.817  -0.649  0.00  0.00    -0.260 NA
ATOM     19  N   LIG    1        0.115  -0.531  -0.411  0.00  0.00    -0.300 N 
ATOM     20  C   LIG    1        1.234  -1.278  -0.453  0.00  0.00    +0.210 A 
ATOM     21  S   LIG    1        1.375  -2.966  -0.202  0.00  0.00    -0.380 S 
ATOM     22  S   LIG    1        2.530  -0.126  -0.825  0.00  0.00    +0.170 S 
BRANCH  19  23
ATOM     23  C   LIG    1       -1.136  -1.097  -0.140  0.00  0.00    +0.140 A 
ATOM     24  C   LIG    1       -1.544  -2.239  -0.818  0.00  0.00    +0.090 A 
ATOM     25  C   LIG    1       -2.776  -2.800  -0.545  0.00  0.00    +0.080 A 
ATOM     26  C   LIG    1       -3.610  -2.219   0.394  0.00  0.00    -0.010 A 
ATOM     27  C   LIG    1       -3.208  -1.077   1.068  0.00  0.00    -0.030 A 
ATOM     28 CL   LIG    1       -4.257  -0.350   2.246  0.00  0.00    -0.030 Cl
ATOM     29 CL   LIG    1       -5.161  -2.922   0.730  0.00  0.00    -0.030 Cl
ATOM     30  C   LIG    1       -1.974  -0.515   0.802  0.00  0.00    +0.080 A 
ENDBRANCH  19  23
ENDBRANCH  16  17
ENDBRANCH   2  16
TORSDOF 5
