REMARK  Name = ZINCah0000001hPE.0
REMARK                            x       y       z     vdW  Elec       q    Type
REMARK                         _______ _______ _______ _____ _____    ______ ____
ROOT
ATOM      1  C   LIG    1        0.002  -0.004   0.002  0.00  0.00    +0.120 A 
ATOM      2  C   LIG    1        1.212  -0.682  -0.019  0.00  0.00    -0.070 A 
ATOM      3  C   LIG    1        1.228  -2.064  -0.020  0.00  0.00    +0.050 A 
ATOM      4  C   LIG    1        0.040  -2.770  -0.013  0.00  0.00    -0.010 A 
ATOM      5  C   LIG    1       -1.168  -2.096   0.002  0.00  0.00    -0.060 A 
ATOM      6  C   LIG    1       -1.189  -0.715   0.010  0.00  0.00    +0.000 A 
ENDROOT
BRANCH   1   8
ATOM      7  C   LIG    1        1.248   2.021   0.001  0.00  0.00    +0.250 C 
ATOM      8  O   LIG    1       -0.016   1.355   0.009  0.00  0.00    -0.320 OA
ENDBRANCH   1   8
BRANCH   5   9
ATOM      9  C   LIG    1       -2.462  -2.869   0.010  0.00  0.00    +0.240 C 
BRANCH   9  10
ATOM     10  O   LIG    1       -2.883  -3.107  -1.334  0.00  0.00    -0.570 OA
ATOM     11  H   LIG    1       -3.711  -3.601  -1.405  0.00  0.00    +0.380 HD
ENDBRANCH   9  10
ENDBRANCH   5   9
TORSDOF 3
