REMARK  Name = ZINCtV00001bB3qp.0
REMARK                            x       y       z     vdW  Elec       q    Type
REMARK                         _______ _______ _______ _____ _____    ______ ____
ROOT
ATOM      1  O   LIG    1       -3.135   4.474  -1.167  0.00  0.00    -0.420 OA
ATOM      2  C   LIG    1       -3.800   3.828  -0.376  0.00  0.00    +0.420 C 
ATOM      3  C   LIG    1       -3.910   2.354  -0.449  0.00  0.00    -0.180 C 
ATOM      4  C   LIG    1       -5.270   1.760  -0.142  0.00  0.00    +0.080 C 
ATOM      5  C   LIG    1       -5.788   2.360   1.168  0.00  0.00    +0.030 C 
ATOM      6  C   LIG    1       -5.919   3.879   1.033  0.00  0.00    +0.090 C 
ATOM      7  C   LIG    1       -2.852   1.577  -0.767  0.00  0.00    +0.100 C 
ATOM      8  C   LIG    1       -4.556   4.463   0.721  0.00  0.00    -0.190 C 
ATOM      9  C   LIG    1       -4.056   5.510   1.414  0.00  0.00    +0.100 C 
ENDROOT
BRANCH   7  10
ATOM     10  C   LIG    1       -1.596   2.194  -1.217  0.00  0.00    -0.110 A 
ATOM     11  C   LIG    1       -1.582   3.008  -2.356  0.00  0.00    +0.110 A 
ATOM     12  C   LIG    1       -0.405   3.588  -2.770  0.00  0.00    -0.010 A 
ATOM     13  C   LIG    1        0.771   3.363  -2.062  0.00  0.00    +0.120 A 
ATOM     14  C   LIG    1        0.763   2.552  -0.933  0.00  0.00    -0.070 A 
ATOM     15  C   LIG    1       -0.409   1.967  -0.510  0.00  0.00    +0.070 A 
BRANCH  13  16
ATOM     16  O   LIG    1        1.929   3.937  -2.475  0.00  0.00    -0.320 OA
BRANCH  16  17
ATOM     17  C   LIG    1        3.077   3.751  -1.644  0.00  0.00    +0.590 C 
ATOM     18  F   LIG    1        3.413   2.394  -1.609  0.00  0.00    -0.200 F 
ATOM     19  F   LIG    1        2.792   4.194  -0.348  0.00  0.00    -0.190 F 
ENDBRANCH  16  17
ENDBRANCH  13  16
ENDBRANCH   7  10
BRANCH   9  20
ATOM     20  C   LIG    1       -2.668   5.940   1.194  0.00  0.00    -0.100 A 
ATOM     21  C   LIG    1       -2.328   7.294   1.301  0.00  0.00    +0.070 A 
ATOM     22  C   LIG    1       -1.025   7.691   1.099  0.00  0.00    -0.050 A 
ATOM     23  C   LIG    1       -0.051   6.752   0.778  0.00  0.00    +0.120 A 
ATOM     24  C   LIG    1       -0.385   5.407   0.666  0.00  0.00    +0.000 A 
ATOM     25  C   LIG    1       -1.683   4.999   0.872  0.00  0.00    +0.070 A 
BRANCH  23  26
ATOM     26  O   LIG    1        1.231   7.150   0.575  0.00  0.00    -0.320 OA
BRANCH  26  27
ATOM     27  C   LIG    1        1.513   8.541   0.743  0.00  0.00    +0.590 C 
ATOM     28  F   LIG    1        1.197   8.926   2.051  0.00  0.00    -0.200 F 
ATOM     29  F   LIG    1        0.746   9.285  -0.160  0.00  0.00    -0.200 F 
ENDBRANCH  26  27
ENDBRANCH  23  26
ENDBRANCH   9  20
TORSDOF 6
