REMARK  Name = ZINCfA000001UVaJ.0
REMARK                            x       y       z     vdW  Elec       q    Type
REMARK                         _______ _______ _______ _____ _____    ______ ____
ROOT
ATOM      1  N   LIG    1       -1.665   2.530   1.423  0.00  0.00    -0.500 N 
ATOM      2  H   LIG    1       -1.063   3.131   1.966  0.00  0.00    +0.430 HD
ATOM      3  H   LIG    1       -1.674   1.606   1.829  0.00  0.00    +0.430 HD
ENDROOT
BRANCH   1   5
ATOM      4  C   LIG    1       -3.020   4.462   0.769  0.00  0.00    +0.100 C 
ATOM      5  C   LIG    1       -3.028   3.077   1.419  0.00  0.00    +0.100 C 
ATOM      6  C   LIG    1       -3.949   2.146   0.627  0.00  0.00    +0.100 C 
BRANCH   5   7
ATOM      7  C   LIG    1       -3.528   3.189   2.837  0.00  0.00    -0.050 C 
ATOM      8  C   LIG    1       -4.707   3.711   3.076  0.00  0.00    +0.130 C 
ATOM      9 CL   LIG    1       -5.755   4.132   1.758  0.00  0.00    -0.050 Cl
ENDBRANCH   5   7
ENDBRANCH   1   5
BRANCH   1  10
ATOM     10  C   LIG    1       -1.164   2.453   0.044  0.00  0.00    +0.320 C 
BRANCH  10  11
ATOM     11  C   LIG    1        0.235   1.892   0.048  0.00  0.00    -0.150 A 
ATOM     12  C   LIG    1        1.320   2.744   0.143  0.00  0.00    +0.040 A 
ATOM     13  C   LIG    1        2.605   2.232   0.141  0.00  0.00    +0.050 A 
ATOM     14  C   LIG    1        2.807   0.870   0.043  0.00  0.00    +0.030 A 
ATOM     15  C   LIG    1        1.720   0.013  -0.053  0.00  0.00    +0.120 A 
ATOM     16  C   LIG    1        0.432   0.528  -0.050  0.00  0.00    +0.020 A 
BRANCH  15  17
ATOM     17  O   LIG    1        1.916  -1.328  -0.149  0.00  0.00    -0.490 OA
ATOM     18  H   LIG    1        1.998  -1.649  -1.058  0.00  0.00    +0.400 HD
ENDBRANCH  15  17
ENDBRANCH  10  11
ENDBRANCH   1  10
TORSDOF 5
