REMARK  Name = ZINCvU0000000H7E.0
REMARK                            x       y       z     vdW  Elec       q    Type
REMARK                         _______ _______ _______ _____ _____    ______ ____
ROOT
ATOM      1  C   LIG    1        3.691   1.821  -0.758  0.00  0.00    -0.010 A 
ATOM      2  C   LIG    1        4.500   0.876  -1.233  0.00  0.00    -0.020 A 
ATOM      3  S   LIG    1        3.839  -0.724  -0.962  0.00  0.00    +0.190 S 
ATOM      4  C   LIG    1        2.408  -0.079  -0.173  0.00  0.00    +0.120 A 
ATOM      5  N   LIG    1        1.343  -0.694   0.359  0.00  0.00    -0.520 NA
ATOM      6  C   LIG    1        0.368  -0.007   0.909  0.00  0.00    +0.570 A 
ATOM      7  N   LIG    1        0.384   1.312   0.965  0.00  0.00    -0.590 NA
ATOM      8  C   LIG    1        1.394   2.008   0.465  0.00  0.00    +0.490 A 
ATOM      9  C   LIG    1        2.473   1.315  -0.139  0.00  0.00    -0.210 A 
ENDROOT
BRANCH   1  13
ATOM     10  C   LIG    1        4.585   5.970  -1.030  0.00  0.00    +0.140 A 
ATOM     11  C   LIG    1        5.473   5.111  -0.397  0.00  0.00    -0.010 A 
ATOM     12  C   LIG    1        5.186   3.764  -0.307  0.00  0.00    +0.080 A 
ATOM     13  C   LIG    1        4.002   3.267  -0.853  0.00  0.00    -0.100 A 
ATOM     14  C   LIG    1        3.116   4.133  -1.492  0.00  0.00    +0.050 A 
ATOM     15  C   LIG    1        3.406   5.479  -1.573  0.00  0.00    -0.050 A 
BRANCH  10  17
ATOM     16  C   LIG    1        3.914   8.124  -1.781  0.00  0.00    +0.240 C 
ATOM     17  O   LIG    1        4.871   7.296  -1.117  0.00  0.00    -0.310 OA
ENDBRANCH  10  17
ENDBRANCH   1  13
BRANCH   8  18
ATOM     18  N   LIG    1        1.397   3.390   0.531  0.00  0.00    -0.500 N 
ATOM     19  H   LIG    1        2.231   3.878   0.447  0.00  0.00    +0.450 HD
BRANCH  18  20
ATOM     20  N   LIG    1        0.194   4.084   0.718  0.00  0.00    -0.510 N 
ATOM     21  H   LIG    1       -0.640   3.596   0.801  0.00  0.00    +0.430 HD
ATOM     22  C   LIG    1        0.197   5.430   0.782  0.00  0.00    +0.560 C 
ATOM     23  O   LIG    1        1.242   6.042   0.677  0.00  0.00    -0.530 OA
BRANCH  22  24
ATOM     24  C   LIG    1       -1.072   6.163   0.980  0.00  0.00    -0.130 A 
ATOM     25  C   LIG    1       -2.275   5.464   1.094  0.00  0.00    +0.050 A 
ATOM     26  C   LIG    1       -3.455   6.154   1.282  0.00  0.00    +0.010 A 
ATOM     27  C   LIG    1       -3.449   7.536   1.348  0.00  0.00    -0.040 A 
ATOM     28  C   LIG    1       -2.261   8.235   1.230  0.00  0.00    +0.010 A 
ATOM     29  C   LIG    1       -1.074   7.557   1.046  0.00  0.00    +0.090 A 
BRANCH  27  30
ATOM     30  C   LIG    1       -4.743   8.283   1.549  0.00  0.00    -0.040 C 
ATOM     31  C   LIG    1       -4.664   9.102   2.838  0.00  0.00    +0.040 C 
ATOM     32  C   LIG    1       -5.898   7.284   1.648  0.00  0.00    +0.030 C 
ATOM     33  C   LIG    1       -4.979   9.220   0.363  0.00  0.00    +0.040 C 
ENDBRANCH  27  30
ENDBRANCH  22  24
ENDBRANCH  18  20
ENDBRANCH   8  18
TORSDOF 6
