REMARK  Name = ZINCvU0000000B71.0
REMARK                            x       y       z     vdW  Elec       q    Type
REMARK                         _______ _______ _______ _____ _____    ______ ____
ROOT
ATOM      1  C   LIG    1        1.662   4.295  -1.072  0.00  0.00    +0.240 A 
ATOM      2  N   LIG    1        1.629   5.617  -1.030  0.00  0.00    -0.540 NA
ATOM      3  C   LIG    1        1.143   6.256   0.025  0.00  0.00    +0.350 A 
ATOM      4  N   LIG    1        0.668   5.608   1.079  0.00  0.00    -0.590 NA
ATOM      5  C   LIG    1        0.661   4.280   1.114  0.00  0.00    +0.470 A 
ATOM      6  C   LIG    1        1.168   3.569   0.010  0.00  0.00    -0.240 A 
ENDROOT
BRANCH   6   7
ATOM      7  C   LIG    1        1.182   2.087   0.002  0.00  0.00    -0.020 A 
ATOM      8  C   LIG    1       -0.017   1.376   0.010  0.00  0.00    +0.030 A 
ATOM      9  C   LIG    1        0.002  -0.004   0.002  0.00  0.00    +0.040 A 
ATOM     10  C   LIG    1        1.209  -0.682  -0.014  0.00  0.00    -0.030 A 
ATOM     11  C   LIG    1        2.402   0.019  -0.022  0.00  0.00    +0.040 A 
ATOM     12 CL   LIG    1        1.226  -2.418  -0.024  0.00  0.00    -0.070 Cl
ATOM     13  C   LIG    1        2.395   1.399  -0.014  0.00  0.00    +0.040 A 
ENDBRANCH   6   7
BRANCH   5  14
ATOM     14  N   LIG    1        0.165   3.608   2.216  0.00  0.00    -0.830 N 
ATOM     15  H   LIG    1       -0.183   4.106   2.972  0.00  0.00    +0.410 HD
ATOM     16  H   LIG    1        0.164   2.638   2.233  0.00  0.00    +0.410 HD
ENDBRANCH   5  14
BRANCH   1  18
ATOM     17  C   LIG    1        1.100   3.333  -3.288  0.00  0.00    +0.050 C 
ATOM     18  C   LIG    1        2.221   3.583  -2.277  0.00  0.00    +0.100 C 
ENDBRANCH   1  18
BRANCH   3  19
ATOM     19  S   LIG    1        1.131   8.018   0.027  0.00  0.00    +0.020 S 
BRANCH  19  20
ATOM     20  C   LIG    1        0.390   8.325   1.650  0.00  0.00    +0.090 C 
BRANCH  20  21
ATOM     21  C   LIG    1        0.275   9.833   1.881  0.00  0.00    +0.060 C 
BRANCH  21  22
ATOM     22  C   LIG    1       -0.351  10.093   3.252  0.00  0.00    +0.210 C 
BRANCH  22  23
ATOM     23  C   LIG    1       -0.464  11.578   3.480  0.00  0.00    +0.190 A 
ATOM     24  N   LIG    1       -1.482  12.339   3.161  0.00  0.00    -0.470 NA
ATOM     25  C   LIG    1       -1.139  13.587   3.551  0.00  0.00    +0.210 A 
ATOM     26  N   LIG    1        0.055  13.512   4.080  0.00  0.00    -0.360 NA
ATOM     27  O   LIG    1        0.452  12.366   4.050  0.00  0.00    +0.090 OA
BRANCH  25  28
ATOM     28  C   LIG    1       -1.964  14.813   3.408  0.00  0.00    +0.020 A 
ATOM     29  C   LIG    1       -3.229  14.761   2.818  0.00  0.00    +0.020 A 
ATOM     30  C   LIG    1       -3.965  15.924   2.710  0.00  0.00    +0.270 A 
ATOM     31  N   LIG    1       -3.484  17.073   3.144  0.00  0.00    -0.470 NA
ATOM     32  C   LIG    1       -2.293  17.165   3.702  0.00  0.00    +0.270 A 
ATOM     33  C   LIG    1       -1.494  16.050   3.855  0.00  0.00    +0.000 A 
ENDBRANCH  25  28
ENDBRANCH  22  23
ENDBRANCH  21  22
ENDBRANCH  20  21
ENDBRANCH  19  20
ENDBRANCH   3  19
TORSDOF 9
