REMARK  Name = ZINCkj00000hcQ2S.0
REMARK                            x       y       z     vdW  Elec       q    Type
REMARK                         _______ _______ _______ _____ _____    ______ ____
ROOT
ATOM      1  C   LIG    1        6.001   1.084  -2.917  0.00  0.00    -0.100 C 
ATOM      2  C   LIG    1        5.323   2.173  -3.776  0.00  0.00    +0.330 C 
ATOM      3  N   LIG    1        6.227   2.322  -4.957  0.00  0.00    -0.520 N 
ATOM      4  C   LIG    1        7.590   2.250  -4.372  0.00  0.00    +0.360 C 
ATOM      5  H   LIG    1        6.088   1.576  -5.622  0.00  0.00    +0.440 HD
ATOM      6  H   LIG    1        6.078   3.218  -5.397  0.00  0.00    +0.450 HD
ATOM      7  C   LIG    1        6.667  -0.102  -3.619  0.00  0.00    +0.180 C 
ATOM      8  C   LIG    1        7.495   1.144  -3.299  0.00  0.00    -0.250 C 
ENDROOT
BRANCH   8   9
ATOM      9  C   LIG    1        8.600   1.065  -2.243  0.00  0.00    +0.510 C 
ATOM     10  F   LIG    1        8.461   2.126  -1.342  0.00  0.00    -0.170 F 
ATOM     11  F   LIG    1        9.848   1.144  -2.869  0.00  0.00    -0.170 F 
ATOM     12  F   LIG    1        8.499  -0.148  -1.554  0.00  0.00    -0.160 F 
ENDBRANCH   8   9
BRANCH   1  13
ATOM     13  C   LIG    1        5.545   0.941  -1.464  0.00  0.00    +0.250 C 
BRANCH  13  14
ATOM     14  N   LIG    1        4.078   0.911  -1.411  0.00  0.00    -0.680 NA
ATOM     15  H   LIG    1        3.684   1.730  -1.850  0.00  0.00    +0.340 HD
BRANCH  14  16
ATOM     16  C   LIG    1        3.603   0.775  -0.028  0.00  0.00    +0.290 C 
BRANCH  16  20
ATOM     17  C   LIG    1       -1.203  -0.909   0.009  0.00  0.00    +0.140 C 
ATOM     18  C   LIG    1        0.002  -0.004   0.002  0.00  0.00    +0.090 A 
ATOM     19  C   LIG    1        1.296  -0.399  -0.013  0.00  0.00    -0.110 A 
ATOM     20  C   LIG    1        2.096   0.748  -0.014  0.00  0.00    +0.070 A 
ATOM     21  N   LIG    1        1.311   1.794  -0.001  0.00  0.00    -0.300 NA
ATOM     22  N   LIG    1       -0.016   1.345   0.009  0.00  0.00    -0.370 N 
ATOM     23  C   LIG    1       -1.212   2.191   0.020  0.00  0.00    +0.360 C 
ENDBRANCH  16  20
ENDBRANCH  14  16
ENDBRANCH  13  14
ENDBRANCH   1  13
TORSDOF 5
