REMARK  Name = ZINCpe000015CTtc.0
REMARK                            x       y       z     vdW  Elec       q    Type
REMARK                         _______ _______ _______ _____ _____    ______ ____
ROOT
ATOM      1  C   LIG    1       -0.437  -4.527   1.708  0.00  0.00    -0.060 C 
ATOM      2  C   LIG    1       -1.481  -3.615   2.374  0.00  0.00    +0.070 C 
ATOM      3  C   LIG    1       -1.612  -4.693   3.463  0.00  0.00    -0.080 C 
ATOM      4  C   LIG    1       -1.135  -5.705   2.409  0.00  0.00    +0.050 C 
ENDROOT
BRANCH   1   5
ATOM      5  C   LIG    1       -0.541  -4.571   0.206  0.00  0.00    -0.060 A 
ATOM      6  C   LIG    1       -0.769  -5.774  -0.437  0.00  0.00    +0.000 A 
ATOM      7  C   LIG    1       -0.868  -5.813  -1.815  0.00  0.00    +0.000 A 
ATOM      8  C   LIG    1       -0.732  -4.651  -2.551  0.00  0.00    +0.000 A 
ATOM      9  C   LIG    1       -0.500  -3.449  -1.909  0.00  0.00    +0.000 A 
ATOM     10  C   LIG    1       -0.404  -3.409  -0.531  0.00  0.00    +0.010 A 
ENDBRANCH   1   5
BRANCH   1  11
ATOM     11  C   LIG    1        0.992  -4.283   2.198  0.00  0.00    +0.310 C 
BRANCH  11  19
ATOM     12  O   LIG    1        3.498  -4.557   3.155  0.00  0.00    -0.540 OA
ATOM     13  C   LIG    1        2.897  -5.596   2.962  0.00  0.00    +0.710 C 
ATOM     14  N   LIG    1        3.490  -6.777   3.225  0.00  0.00    -0.630 N 
ATOM     15  C   LIG    1        2.879  -8.106   3.037  0.00  0.00    +0.240 C 
ATOM     16  C   LIG    1        4.078  -9.073   2.867  0.00  0.00    +0.040 C 
ATOM     17  C   LIG    1        5.106  -8.472   3.862  0.00  0.00    +0.040 C 
ATOM     18  C   LIG    1        4.853  -6.954   3.747  0.00  0.00    +0.240 C 
ATOM     19  N   LIG    1        1.637  -5.567   2.484  0.00  0.00    -0.750 N 
ATOM     20  H   LIG    1        1.157  -6.395   2.330  0.00  0.00    +0.390 HD
BRANCH  18  21
ATOM     21  C   LIG    1        4.972  -6.301   5.125  0.00  0.00    +0.150 C 
BRANCH  21  22
ATOM     22  O   LIG    1        4.835  -4.884   4.993  0.00  0.00    -0.530 OA
ATOM     23  H   LIG    1        4.900  -4.403   5.830  0.00  0.00    +0.370 HD
ENDBRANCH  21  22
ENDBRANCH  18  21
ENDBRANCH  11  19
ENDBRANCH   1  11
BRANCH   3  24
ATOM     24  C   LIG    1       -0.636  -4.513   4.627  0.00  0.00    +0.190 C 
BRANCH  24  25
ATOM     25  O   LIG    1       -1.103  -3.470   5.485  0.00  0.00    -0.540 OA
ATOM     26  H   LIG    1       -0.531  -3.300   6.246  0.00  0.00    +0.370 HD
ENDBRANCH  24  25
ENDBRANCH   3  24
BRANCH   3  27
ATOM     27  C   LIG    1       -3.052  -4.923   3.926  0.00  0.00    +0.180 C 
BRANCH  27  28
ATOM     28  O   LIG    1       -3.403  -3.938   4.901  0.00  0.00    -0.540 OA
ATOM     29  H   LIG    1       -4.305  -4.024   5.239  0.00  0.00    +0.370 HD
ENDBRANCH  27  28
ENDBRANCH   3  27
TORSDOF 9
