REMARK  Name = ZINCpk00000KfKxO.0
REMARK                            x       y       z     vdW  Elec       q    Type
REMARK                         _______ _______ _______ _____ _____    ______ ____
ROOT
ATOM      1  O   LIG    1        3.622  -7.973   3.895  0.00  0.00    -0.530 OA
ATOM      2  C   LIG    1        3.378  -7.157   4.758  0.00  0.00    +0.500 C 
ATOM      3  N   LIG    1        2.992  -5.911   4.418  0.00  0.00    -0.730 N 
ATOM      4  H   LIG    1        2.797  -5.258   5.109  0.00  0.00    +0.400 HD
ENDROOT
BRANCH   3   5
ATOM      5  C   LIG    1        2.868  -5.543   3.006  0.00  0.00    +0.260 C 
BRANCH   5   6
ATOM      6  C   LIG    1        2.419  -4.084   2.897  0.00  0.00    +0.030 C 
BRANCH   6   7
ATOM      7  C   LIG    1        2.289  -3.699   1.421  0.00  0.00    +0.190 C 
BRANCH   7   8
ATOM      8  O   LIG    1        1.869  -2.337   1.320  0.00  0.00    -0.380 OA
BRANCH   8   9
ATOM      9  C   LIG    1        1.717  -1.875  -0.024  0.00  0.00    +0.300 C 
BRANCH   9  10
ATOM     10  C   LIG    1        1.274  -0.435  -0.012  0.00  0.00    -0.020 A 
ATOM     11  C   LIG    1        2.086   0.638  -0.014  0.00  0.00    -0.030 A 
ATOM     12  C   LIG    1        1.254   1.781  -0.000  0.00  0.00    -0.070 A 
ATOM     13  C   LIG    1       -0.016   1.339   0.009  0.00  0.00    +0.180 A 
ATOM     14  O   LIG    1        0.002  -0.004   0.002  0.00  0.00    -0.170 OA
ENDBRANCH   9  10
ENDBRANCH   8   9
ENDBRANCH   7   8
ENDBRANCH   6   7
ENDBRANCH   5   6
ENDBRANCH   3   5
BRANCH   2  15
ATOM     15  C   LIG    1        3.506  -7.536   6.212  0.00  0.00    +0.330 C 
BRANCH  15  16
ATOM     16  N   LIG    1        3.936  -8.932   6.316  0.00  0.00    -0.580 N 
ATOM     17  C   LIG    1        3.068  -9.978   6.383  0.00  0.00    +0.550 C 
ATOM     18  C   LIG    1        3.881 -11.165   6.790  0.00  0.00    +0.000 C 
ATOM     19  C   LIG    1        3.524 -12.533   6.249  0.00  0.00    +0.060 C 
ATOM     20  C   LIG    1        4.569 -13.508   6.827  0.00  0.00    +0.020 C 
ATOM     21  C   LIG    1        5.992 -13.101   6.459  0.00  0.00    +0.020 C 
ATOM     22  C   LIG    1        6.292 -11.639   6.837  0.00  0.00    +0.050 C 
ATOM     23  C   LIG    1        5.250 -10.790   6.149  0.00  0.00    +0.000 C 
ATOM     24  O   LIG    1        1.877  -9.953   6.158  0.00  0.00    -0.460 OA
ATOM     25  C   LIG    1        5.242  -9.309   6.361  0.00  0.00    +0.550 C 
ATOM     26  O   LIG    1        6.203  -8.592   6.537  0.00  0.00    -0.470 OA
ENDBRANCH  15  16
ENDBRANCH   2  15
TORSDOF 8
