REMARK  Name = ZINCvU0000000ABY.0
REMARK                            x       y       z     vdW  Elec       q    Type
REMARK                         _______ _______ _______ _____ _____    ______ ____
ROOT
ATOM      1  C   LIG    1        5.628   2.150   0.510  0.00  0.00    +0.270 A 
ATOM      2  N   LIG    1        4.501   1.571   0.152  0.00  0.00    -0.280 NA
ATOM      3  N   LIG    1        3.567   1.833   1.168  0.00  0.00    -0.330 N 
ATOM      4  C   LIG    1        4.215   2.566   2.102  0.00  0.00    +0.300 A 
ATOM      5  N   LIG    1        5.452   2.748   1.692  0.00  0.00    -0.500 NA
ENDROOT
BRANCH   3   6
ATOM      6  C   LIG    1        2.171   1.393   1.211  0.00  0.00    +0.280 C 
ATOM      7  C   LIG    1        1.419   1.953  -0.001  0.00  0.00    +0.010 C 
ATOM      8  C   LIG    1       -0.017   1.425   0.010  0.00  0.00    +0.220 C 
ATOM      9  O   LIG    1        0.002  -0.004   0.002  0.00  0.00    -0.370 OA
ATOM     10  C   LIG    1        0.650  -0.585   1.135  0.00  0.00    +0.120 C 
ATOM     11  C   LIG    1        0.585  -2.110   1.034  0.00  0.00    +0.070 C 
ATOM     12  C   LIG    1       -0.053  -0.128   2.415  0.00  0.00    +0.020 C 
ATOM     13  C   LIG    1        2.114  -0.137   1.170  0.00  0.00    +0.020 C 
ENDBRANCH   3   6
BRANCH   1  17
ATOM     14  C   LIG    1        9.248   2.109  -1.725  0.00  0.00    -0.070 A 
ATOM     15  C   LIG    1        9.194   2.770  -0.503  0.00  0.00    +0.040 A 
ATOM     16  C   LIG    1        8.022   2.785   0.223  0.00  0.00    +0.090 A 
ATOM     17  C   LIG    1        6.890   2.136  -0.270  0.00  0.00    -0.020 A 
ATOM     18  C   LIG    1        6.947   1.470  -1.493  0.00  0.00    +0.070 A 
ATOM     19  C   LIG    1        8.120   1.462  -2.218  0.00  0.00    -0.010 A 
BRANCH  14  21
ATOM     20  C   LIG    1       10.307   1.127  -4.123  0.00  0.00    +0.140 C 
ATOM     21  S   LIG    1       10.747   2.091  -2.651  0.00  0.00    -0.110 S 
ENDBRANCH  14  21
ENDBRANCH   1  17
BRANCH   4  22
ATOM     22  C   LIG    1        3.634   3.074   3.366  0.00  0.00    +0.250 A 
ATOM     23  C   LIG    1        4.410   3.825   4.254  0.00  0.00    +0.040 A 
ATOM     24  C   LIG    1        3.819   4.276   5.421  0.00  0.00    +0.370 A 
ATOM     25  N   LIG    1        2.549   3.985   5.656  0.00  0.00    -0.470 NA
ATOM     26  C   LIG    1        1.844   3.275   4.798  0.00  0.00    +0.250 A 
ATOM     27  N   LIG    1        2.361   2.829   3.673  0.00  0.00    -0.480 NA
BRANCH  26  28
ATOM     28  C   LIG    1        0.401   2.970   5.111  0.00  0.00    +0.550 C 
ATOM     29  F   LIG    1        0.282   1.634   5.509  0.00  0.00    -0.160 F 
ATOM     30  F   LIG    1       -0.380   3.189   3.971  0.00  0.00    -0.160 F 
ATOM     31  F   LIG    1       -0.037   3.805   6.145  0.00  0.00    -0.150 F 
ENDBRANCH  26  28
ENDBRANCH   4  22
TORSDOF 5
