REMARK  Name = ZINCvU0000000Huj.0
REMARK                            x       y       z     vdW  Elec       q    Type
REMARK                         _______ _______ _______ _____ _____    ______ ____
ROOT
ATOM      1  N   LIG    1        2.318   3.345   0.442  0.00  0.00    -0.400 N 
ATOM      2  C   LIG    1        3.112   3.353  -0.694  0.00  0.00    +0.030 A 
ATOM      3  C   LIG    1        4.027   4.344  -0.521  0.00  0.00    +0.200 A 
ATOM      4  N   LIG    1        3.804   4.918   0.667  0.00  0.00    -0.450 NA
ATOM      5  C   LIG    1        2.782   4.338   1.255  0.00  0.00    +0.180 A 
ENDROOT
BRANCH   1  10
ATOM      6  C   LIG    1       -1.106   2.144   1.067  0.00  0.00    +0.150 A 
ATOM      7  C   LIG    1       -0.882   0.783   1.212  0.00  0.00    -0.050 A 
ATOM      8  C   LIG    1        0.400   0.277   1.110  0.00  0.00    +0.070 A 
ATOM      9  C   LIG    1        1.461   1.123   0.854  0.00  0.00    -0.010 A 
ATOM     10  C   LIG    1        1.242   2.486   0.703  0.00  0.00    +0.150 A 
ATOM     11  C   LIG    1       -0.044   2.997   0.809  0.00  0.00    +0.000 A 
BRANCH   6  13
ATOM     12  C   LIG    1       -3.413   1.705   1.439  0.00  0.00    +0.250 C 
ATOM     13  O   LIG    1       -2.367   2.642   1.172  0.00  0.00    -0.310 OA
ENDBRANCH   6  13
ENDBRANCH   1  10
BRANCH   2  14
ATOM     14  C   LIG    1        2.989   2.460  -1.864  0.00  0.00    -0.010 A 
ATOM     15  C   LIG    1        1.933   1.550  -1.943  0.00  0.00    +0.000 A 
ATOM     16  C   LIG    1        1.820   0.723  -3.041  0.00  0.00    +0.010 A 
ATOM     17  C   LIG    1        2.757   0.785  -4.058  0.00  0.00    +0.000 A 
ATOM     18  C   LIG    1        3.809   1.681  -3.983  0.00  0.00    +0.020 A 
ATOM     19  C   LIG    1        3.930   2.518  -2.894  0.00  0.00    +0.030 A 
ENDBRANCH   2  14
BRANCH   5  20
ATOM     20  S   LIG    1        2.123   4.766   2.832  0.00  0.00    +0.040 S 
BRANCH  20  21
ATOM     21  C   LIG    1        3.231   6.128   3.275  0.00  0.00    +0.080 C 
BRANCH  21  22
ATOM     22  C   LIG    1        2.925   6.587   4.678  0.00  0.00    -0.070 A 
ATOM     23  C   LIG    1        3.951   6.755   5.589  0.00  0.00    +0.060 A 
ATOM     24  C   LIG    1        3.672   7.181   6.874  0.00  0.00    +0.040 A 
ATOM     25  C   LIG    1        2.366   7.430   7.251  0.00  0.00    +0.060 A 
ATOM     26  C   LIG    1        1.338   7.257   6.341  0.00  0.00    -0.080 A 
ATOM     27 BR   LIG    1       -0.449   7.597   6.857  0.00  0.00    -0.040 Br
ATOM     28  C   LIG    1        1.619   6.835   5.054  0.00  0.00    +0.050 A 
ENDBRANCH  21  22
BRANCH  21  29
ATOM     29  C   LIG    1        3.029   7.272   2.316  0.00  0.00    +0.530 C 
ATOM     30  O   LIG    1        3.899   7.560   1.523  0.00  0.00    -0.500 OA
ATOM     31  N   LIG    1        1.880   7.977   2.340  0.00  0.00    -0.850 N 
ATOM     32  H   LIG    1        1.716   8.660   1.672  0.00  0.00    +0.410 HD
ATOM     33  H   LIG    1        1.217   7.801   3.026  0.00  0.00    +0.400 HD
ENDBRANCH  21  29
ENDBRANCH  20  21
ENDBRANCH   5  20
TORSDOF 7
