REMARK  Name = ZINCvU0000000Dqe.0
REMARK                            x       y       z     vdW  Elec       q    Type
REMARK                         _______ _______ _______ _____ _____    ______ ____
ROOT
ATOM      1  S   LIG    1        1.681   3.449   0.004  0.00  0.00    +0.100 S 
ENDROOT
BRANCH   1   2
ATOM      2  C   LIG    1        1.212   1.750  -0.000  0.00  0.00    +0.150 A 
ATOM      3  N   LIG    1       -0.015   1.281   0.009  0.00  0.00    -0.290 NA
ATOM      4  N   LIG    1        0.002  -0.004   0.002  0.00  0.00    -0.250 NA
ATOM      5  C   LIG    1        1.244  -0.436  -0.012  0.00  0.00    +0.260 A 
ATOM      6  N   LIG    1        2.057   0.676  -0.014  0.00  0.00    -0.450 N 
BRANCH   6   7
ATOM      7  C   LIG    1        3.522   0.702  -0.028  0.00  0.00    +0.250 C 
ATOM      8  C   LIG    1        4.031   1.426   1.220  0.00  0.00    +0.020 C 
ATOM      9  C   LIG    1        5.561   1.453   1.206  0.00  0.00    +0.040 C 
ATOM     10  C   LIG    1        6.046   2.190  -0.044  0.00  0.00    +0.010 C 
ATOM     11  C   LIG    1        5.537   1.467  -1.292  0.00  0.00    +0.040 C 
ATOM     12  C   LIG    1        4.007   1.439  -1.278  0.00  0.00    +0.020 C 
ENDBRANCH   6   7
BRANCH   5  13
ATOM     13  C   LIG    1        1.682  -1.840  -0.024  0.00  0.00    +0.040 A 
ATOM     14  C   LIG    1        0.901  -2.920  -0.308  0.00  0.00    +0.030 A 
ATOM     15  C   LIG    1        1.726  -4.056  -0.203  0.00  0.00    -0.050 A 
ATOM     16  C   LIG    1        2.957  -3.622   0.135  0.00  0.00    +0.200 A 
ATOM     17  O   LIG    1        2.928  -2.283   0.238  0.00  0.00    -0.180 OA
ENDBRANCH   5  13
ENDBRANCH   1   2
BRANCH   1  18
ATOM     18  C   LIG    1        0.046   4.226   0.025  0.00  0.00    +0.100 C 
BRANCH  18  20
ATOM     19  O   LIG    1        1.310   6.219   0.023  0.00  0.00    -0.520 OA
ATOM     20  C   LIG    1        0.203   5.725   0.032  0.00  0.00    +0.540 C 
ATOM     21  N   LIG    1       -0.888   6.516   0.047  0.00  0.00    -0.710 N 
ATOM     22  H   LIG    1       -1.774   6.121   0.054  0.00  0.00    +0.410 HD
BRANCH  21  23
ATOM     23  C   LIG    1       -0.736   7.973   0.053  0.00  0.00    +0.290 C 
ATOM     24  C   LIG    1       -1.990   8.613  -0.540  0.00  0.00    +0.020 C 
ATOM     25  C   LIG    1       -1.905  10.129  -0.327  0.00  0.00    +0.030 C 
ATOM     26  C   LIG    1       -2.075  10.416   1.164  0.00  0.00    +0.080 C 
ATOM     27  C   LIG    1       -1.132   9.568   1.977  0.00  0.00    -0.070 A 
ATOM     28  C   LIG    1       -0.885   9.951   3.288  0.00  0.00    -0.010 A 
ATOM     29  C   LIG    1       -0.035   9.213   4.086  0.00  0.00    +0.010 A 
ATOM     30  C   LIG    1        0.577   8.083   3.577  0.00  0.00    -0.010 A 
ATOM     31  C   LIG    1        0.334   7.702   2.273  0.00  0.00    +0.020 A 
ATOM     32  C   LIG    1       -0.520   8.444   1.468  0.00  0.00    -0.100 A 
ENDBRANCH  21  23
ENDBRANCH  18  20
ENDBRANCH   1  18
TORSDOF 6
