REMARK  Name = ZINCrD000006fiKK.0
REMARK                            x       y       z     vdW  Elec       q    Type
REMARK                         _______ _______ _______ _____ _____    ______ ____
ROOT
ATOM      1  N   LIG    1        0.373   1.389   0.183  0.00  0.00    -0.670 N 
ATOM      2  H   LIG    1       -0.510   1.781   0.269  0.00  0.00    +0.410 HD
ATOM      3  C   LIG    1        0.519   0.049   0.183  0.00  0.00    +0.570 C 
ATOM      4  O   LIG    1        1.613  -0.445  -0.019  0.00  0.00    -0.510 OA
ENDROOT
BRANCH   3   5
ATOM      5  C   LIG    1       -0.638  -0.812   0.426  0.00  0.00    -0.240 C 
ATOM      6  C   LIG    1       -0.496  -2.161   0.421  0.00  0.00    +0.170 C 
ATOM      7  C   LIG    1       -1.695  -2.980   0.655  0.00  0.00    -0.110 A 
ATOM      8  C   LIG    1       -1.601  -4.327   1.000  0.00  0.00    +0.050 A 
ATOM      9  C   LIG    1       -2.758  -5.059   1.207  0.00  0.00    +0.100 A 
ATOM     10  C   LIG    1       -4.002  -4.455   1.073  0.00  0.00    -0.020 A 
ATOM     11  C   LIG    1       -4.102  -3.119   0.730  0.00  0.00    +0.040 A 
ATOM     12  C   LIG    1       -2.957  -2.374   0.519  0.00  0.00    +0.100 A 
ATOM     13  O   LIG    1       -3.023  -1.061   0.181  0.00  0.00    -0.300 OA
ATOM     14  C   LIG    1       -1.994  -0.205   0.676  0.00  0.00    +0.300 C 
BRANCH   9  15
ATOM     15  O   LIG    1       -2.676  -6.374   1.543  0.00  0.00    -0.310 OA
ATOM     16  C   LIG    1       -3.907  -7.071   1.743  0.00  0.00    +0.250 C 
ENDBRANCH   9  15
ENDBRANCH   3   5
BRANCH   1  19
ATOM     17  C   LIG    1        3.823   2.643   0.467  0.00  0.00    +0.140 A 
ATOM     18  C   LIG    1        2.711   1.824   0.600  0.00  0.00    +0.060 A 
ATOM     19  C   LIG    1        1.496   2.214   0.054  0.00  0.00    +0.160 A 
ATOM     20  C   LIG    1        1.393   3.427  -0.615  0.00  0.00    +0.000 A 
ATOM     21  C   LIG    1        2.501   4.244  -0.742  0.00  0.00    +0.040 A 
ATOM     22  C   LIG    1        3.714   3.857  -0.205  0.00  0.00    +0.050 A 
ATOM     23  F   LIG    1        4.795   4.657  -0.331  0.00  0.00    -0.140 F 
BRANCH  17  25
ATOM     24  C   LIG    1        5.088   1.334   1.999  0.00  0.00    +0.550 C 
ATOM     25  N   LIG    1        5.051   2.250   1.011  0.00  0.00    -0.660 N 
ATOM     26  H   LIG    1        5.875   2.638   0.677  0.00  0.00    +0.420 HD
ATOM     27  O   LIG    1        4.053   0.926   2.489  0.00  0.00    -0.520 OA
BRANCH  24  29
ATOM     28  C   LIG    1        6.418  -0.075   3.459  0.00  0.00    +0.160 C 
ATOM     29  C   LIG    1        6.381   0.829   2.485  0.00  0.00    -0.090 C 
ENDBRANCH  24  29
ENDBRANCH  17  25
ENDBRANCH   1  19
TORSDOF 5
