REMARK  Name = ZINCrD000000BWFK.0
REMARK                            x       y       z     vdW  Elec       q    Type
REMARK                         _______ _______ _______ _____ _____    ______ ____
ROOT
ATOM      1  O   LIG    1       -3.595   1.918  -0.092  0.00  0.00    -0.570 OA
ATOM      2  C   LIG    1       -3.612   3.133  -0.051  0.00  0.00    +0.710 C 
ATOM      3  N   LIG    1       -4.783   3.794  -0.139  0.00  0.00    -0.620 N 
ATOM      4  C   LIG    1       -4.811   5.260  -0.236  0.00  0.00    +0.270 C 
ATOM      5  C   LIG    1       -5.720   5.814   0.859  0.00  0.00    +0.030 C 
ATOM      6  C   LIG    1       -7.096   5.152   0.759  0.00  0.00    +0.020 C 
ATOM      7  C   LIG    1       -6.954   3.642   0.966  0.00  0.00    +0.260 C 
ATOM      8  C   LIG    1       -6.058   3.063  -0.133  0.00  0.00    +0.310 C 
ATOM      9  N   LIG    1       -2.460   3.819   0.082  0.00  0.00    -0.680 N 
ATOM     10  H   LIG    1       -2.480   4.774   0.254  0.00  0.00    +0.410 HD
ENDROOT
BRANCH   7  11
ATOM     11  N   LIG    1       -8.275   3.013   0.903  0.00  0.00    -0.630 N 
ATOM     12  C   LIG    1       -8.903   2.238   1.984  0.00  0.00    +0.250 C 
ATOM     13  C   LIG    1      -10.262   1.815   1.393  0.00  0.00    +0.250 C 
ATOM     14  N   LIG    1      -10.256   2.397   0.043  0.00  0.00    -0.740 N 
ATOM     15  H   LIG    1      -10.973   2.319  -0.606  0.00  0.00    +0.430 HD
ATOM     16  C   LIG    1       -9.106   3.057  -0.147  0.00  0.00    +0.700 C 
ATOM     17  O   LIG    1       -8.838   3.640  -1.180  0.00  0.00    -0.580 OA
ENDBRANCH   7  11
BRANCH   9  18
ATOM     18  C   LIG    1       -1.234   3.155  -0.028  0.00  0.00    +0.170 A 
ATOM     19  C   LIG    1       -1.165   1.784   0.192  0.00  0.00    +0.030 A 
ATOM     20  C   LIG    1        0.043   1.128   0.089  0.00  0.00    +0.040 A 
ATOM     21  C   LIG    1        1.195   1.839  -0.245  0.00  0.00    -0.070 A 
ATOM     22  C   LIG    1        1.123   3.213  -0.469  0.00  0.00    +0.040 A 
ATOM     23  C   LIG    1       -0.087   3.866  -0.360  0.00  0.00    -0.020 A 
BRANCH  21  24
ATOM     24  C   LIG    1        2.495   1.135  -0.361  0.00  0.00    -0.040 A 
ATOM     25  C   LIG    1        2.570  -0.238  -0.131  0.00  0.00    +0.020 A 
ATOM     26  C   LIG    1        3.781  -0.889  -0.246  0.00  0.00    +0.000 A 
ATOM     27  C   LIG    1        4.922  -0.180  -0.578  0.00  0.00    +0.000 A 
ATOM     28  C   LIG    1        4.854   1.183  -0.802  0.00  0.00    +0.000 A 
ATOM     29  C   LIG    1        3.647   1.844  -0.695  0.00  0.00    +0.010 A 
ENDBRANCH  21  24
ENDBRANCH   9  18
TORSDOF 3
