REMARK  Name = ZINCpe000000YXZT.0
REMARK                            x       y       z     vdW  Elec       q    Type
REMARK                         _______ _______ _______ _____ _____    ______ ____
ROOT
ATOM      1  O   LIG    1       -4.643   2.288  -2.285  0.00  0.00    -0.530 OA
ATOM      2  C   LIG    1       -5.406   2.124  -1.357  0.00  0.00    +0.510 C 
ATOM      3  N   LIG    1       -6.706   1.859  -1.592  0.00  0.00    -0.730 N 
ATOM      4  H   LIG    1       -7.316   1.728  -0.849  0.00  0.00    +0.400 HD
ENDROOT
BRANCH   3   5
ATOM      5  C   LIG    1       -7.197   1.768  -2.969  0.00  0.00    +0.330 C 
BRANCH   5   6
ATOM      6  C   LIG    1       -8.674   1.464  -2.956  0.00  0.00    -0.100 A 
ATOM      7  C   LIG    1       -9.107   0.150  -2.965  0.00  0.00    +0.050 A 
ATOM      8  C   LIG    1      -10.458  -0.138  -2.948  0.00  0.00    +0.040 A 
ATOM      9  C   LIG    1      -11.383   0.894  -2.933  0.00  0.00    +0.100 A 
ATOM     10  N   LIG    1      -12.776   0.929  -2.919  0.00  0.00    -0.640 N 
ATOM     11  H   LIG    1      -13.363   0.157  -2.918  0.00  0.00    +0.440 HD
ATOM     12  C   LIG    1      -13.168   2.217  -2.909  0.00  0.00    +0.680 A 
ATOM     13  N   LIG    1      -12.087   3.020  -2.915  0.00  0.00    -0.640 N 
ATOM     14  H   LIG    1      -12.100   3.990  -2.910  0.00  0.00    +0.440 HD
ATOM     15  O   LIG    1      -14.323   2.598  -2.896  0.00  0.00    -0.550 OA
ATOM     16  C   LIG    1      -10.946   2.220  -2.930  0.00  0.00    +0.090 A 
ATOM     17  C   LIG    1       -9.588   2.500  -2.942  0.00  0.00    +0.060 A 
ENDBRANCH   5   6
ENDBRANCH   3   5
BRANCH   2  18
ATOM     18  C   LIG    1       -4.900   2.218   0.060  0.00  0.00    +0.120 C 
BRANCH  18  19
ATOM     19  C   LIG    1       -3.424   2.521   0.048  0.00  0.00    -0.060 A 
ATOM     20  C   LIG    1       -2.991   3.836   0.050  0.00  0.00    +0.040 A 
ATOM     21  C   LIG    1       -1.640   4.124   0.040  0.00  0.00    +0.030 A 
ATOM     22  C   LIG    1       -0.714   3.092   0.025  0.00  0.00    +0.090 A 
ATOM     23  N   LIG    1        0.678   3.057   0.012  0.00  0.00    -0.640 N 
ATOM     24  H   LIG    1        1.266   3.829   0.011  0.00  0.00    +0.440 HD
ATOM     25  C   LIG    1        1.070   1.768   0.001  0.00  0.00    +0.680 A 
ATOM     26  N   LIG    1       -0.011   0.966   0.007  0.00  0.00    -0.640 N 
ATOM     27  H   LIG    1        0.002  -0.004   0.002  0.00  0.00    +0.440 HD
ATOM     28  O   LIG    1        2.225   1.387  -0.012  0.00  0.00    -0.560 OA
ATOM     29  C   LIG    1       -1.151   1.766   0.017  0.00  0.00    +0.090 A 
ATOM     30  C   LIG    1       -2.509   1.486   0.034  0.00  0.00    +0.040 A 
ENDBRANCH  18  19
ENDBRANCH   2  18
TORSDOF 4
