REMARK  Name = ZINCnE000001Qm5c.1
REMARK                            x       y       z     vdW  Elec       q    Type
REMARK                         _______ _______ _______ _____ _____    ______ ____
ROOT
ATOM      1  N   LIG    1       -6.617   4.855   1.763  0.00  0.00    -0.610 N 
ATOM      2  C   LIG    1       -5.359   4.434   1.524  0.00  0.00    +0.510 C 
ATOM      3  O   LIG    1       -4.580   4.299   2.444  0.00  0.00    -0.520 OA
ATOM      4  C   LIG    1       -7.557   5.018   0.652  0.00  0.00    +0.270 C 
ENDROOT
BRANCH   1   5
ATOM      5  C   LIG    1       -7.043   5.149   3.133  0.00  0.00    +0.280 C 
ATOM      6  C   LIG    1       -7.323   6.647   3.270  0.00  0.00    +0.030 C 
BRANCH   5  13
ATOM      7  C   LIG    1       -6.881   2.333   3.758  0.00  0.00    +0.080 C 
ATOM      8  C   LIG    1       -8.219   3.026   3.745  0.00  0.00    -0.060 A 
ATOM      9  C   LIG    1       -9.368   2.315   4.037  0.00  0.00    +0.000 A 
ATOM     10  C   LIG    1      -10.596   2.950   4.020  0.00  0.00    +0.010 A 
ATOM     11  C   LIG    1      -10.675   4.296   3.716  0.00  0.00    -0.010 A 
ATOM     12  C   LIG    1       -9.525   5.008   3.429  0.00  0.00    +0.020 A 
ATOM     13  C   LIG    1       -8.297   4.373   3.446  0.00  0.00    -0.100 A 
ENDBRANCH   5  13
ENDBRANCH   1   5
BRANCH   2  14
ATOM     14  C   LIG    1       -4.920   4.132   0.115  0.00  0.00    +0.110 C 
BRANCH  14  15
ATOM     15  C   LIG    1       -3.481   3.684   0.122  0.00  0.00    -0.090 A 
ATOM     16  C   LIG    1       -3.179   2.340   0.259  0.00  0.00    -0.010 A 
ATOM     17  C   LIG    1       -1.865   1.923   0.267  0.00  0.00    +0.040 A 
ATOM     18  C   LIG    1       -0.837   2.860   0.136  0.00  0.00    -0.130 A 
ATOM     19  C   LIG    1       -1.149   4.215   0.004  0.00  0.00    +0.030 A 
ATOM     20  C   LIG    1       -2.468   4.618  -0.008  0.00  0.00    -0.010 A 
BRANCH  18  21
ATOM     21  C   LIG    1        0.572   2.421   0.144  0.00  0.00    +0.520 C 
ATOM     22  O   LIG    1        1.469   3.243   0.024  0.00  0.00    -0.690 OA
ATOM     23  O   LIG    1        0.842   1.234   0.264  0.00  0.00    -0.690 OA
ENDBRANCH  18  21
ENDBRANCH  14  15
ENDBRANCH   2  14
TORSDOF 5
