REMARK  Name = ZINCvU0000000AnS.0
REMARK                            x       y       z     vdW  Elec       q    Type
REMARK                         _______ _______ _______ _____ _____    ______ ____
ROOT
ATOM      1  C   LIG    1        5.883   0.354   2.595  0.00  0.00    +0.050 C 
ATOM      2  C   LIG    1        5.160   1.501   3.305  0.00  0.00    -0.050 C 
ATOM      3  C   LIG    1        3.743   1.060   3.686  0.00  0.00    +0.050 C 
ATOM      4  C   LIG    1        2.973   0.761   2.428  0.00  0.00    +0.400 C 
ATOM      5  C   LIG    1        3.283   1.409   1.214  0.00  0.00    -0.280 C 
ATOM      6  C   LIG    1        4.261   2.327   1.141  0.00  0.00    +0.160 C 
ATOM      7  O   LIG    1        4.548   2.935  -0.023  0.00  0.00    -0.230 OA
ATOM      8  C   LIG    1        4.240   2.341  -1.188  0.00  0.00    +0.160 C 
ATOM      9  C   LIG    1        3.260   1.422  -1.256  0.00  0.00    -0.280 C 
ATOM     10  C   LIG    1        2.930   0.790  -2.470  0.00  0.00    +0.400 C 
ATOM     11  C   LIG    1        3.679   1.103  -3.738  0.00  0.00    +0.050 C 
ATOM     12  C   LIG    1        5.103   1.539  -3.376  0.00  0.00    -0.050 C 
ATOM     13  C   LIG    1        5.853   1.948  -4.646  0.00  0.00    +0.050 C 
ATOM     14  C   LIG    1        5.836   0.383  -2.692  0.00  0.00    +0.050 C 
ATOM     15  O   LIG    1        2.025  -0.020  -2.495  0.00  0.00    -0.450 OA
ATOM     16  C   LIG    1        5.019   2.732  -2.422  0.00  0.00    +0.140 C 
ATOM     17  C   LIG    1        2.490   1.045  -0.016  0.00  0.00    +0.170 C 
ATOM     18  O   LIG    1        2.069  -0.050   2.459  0.00  0.00    -0.450 OA
ATOM     19  C   LIG    1        5.931   1.896   4.566  0.00  0.00    +0.050 C 
ATOM     20  C   LIG    1        5.059   2.705   2.366  0.00  0.00    +0.140 C 
ENDROOT
BRANCH  17  21
ATOM     21  C   LIG    1        1.176   1.783   0.000  0.00  0.00    -0.070 A 
ATOM     22  C   LIG    1       -0.013   1.076   0.008  0.00  0.00    +0.080 A 
ATOM     23  C   LIG    1       -1.218   1.749   0.017  0.00  0.00    +0.000 A 
ATOM     24  C   LIG    1       -1.236   3.137   0.030  0.00  0.00    +0.130 A 
ATOM     25  C   LIG    1       -0.042   3.845   0.022  0.00  0.00    +0.000 A 
ATOM     26  C   LIG    1        1.161   3.165   0.007  0.00  0.00    +0.030 A 
BRANCH  24  27
ATOM     27  N   LIG    1       -2.459   3.824   0.045  0.00  0.00    -0.410 N 
ATOM     28  C   LIG    1       -3.709   3.262   0.049  0.00  0.00    +0.130 A 
ATOM     29  C   LIG    1       -4.593   4.277   0.068  0.00  0.00    +0.160 A 
ATOM     30  N   LIG    1       -3.908   5.430   0.067  0.00  0.00    -0.480 NA
ATOM     31  C   LIG    1       -2.628   5.172   0.053  0.00  0.00    +0.400 A 
ENDBRANCH  24  27
ENDBRANCH  17  21
TORSDOF 2
