REMARK  Name = ZINCvU00000006xZ.0
REMARK                            x       y       z     vdW  Elec       q    Type
REMARK                         _______ _______ _______ _____ _____    ______ ____
ROOT
ATOM      1  C   LIG    1       -3.275   2.702  -0.231  0.00  0.00    -0.280 A 
ATOM      2  C   LIG    1       -2.106   2.659  -0.964  0.00  0.00    +0.150 A 
ATOM      3  N   LIG    1       -1.083   2.716  -0.093  0.00  0.00    -0.320 N 
ATOM      4  N   LIG    1       -1.607   2.790   1.203  0.00  0.00    -0.280 NA
ATOM      5  C   LIG    1       -1.997   2.565  -2.464  0.00  0.00    +0.170 C 
ATOM      6  C   LIG    1       -2.910   2.788   1.132  0.00  0.00    +0.290 A 
ENDROOT
BRANCH   1  12
ATOM      7  C   LIG    1       -7.064   5.974  -0.480  0.00  0.00    +0.240 C 
ATOM      8  C   LIG    1       -7.343   4.835  -1.464  0.00  0.00    +0.020 C 
ATOM      9  C   LIG    1       -6.947   3.502  -0.821  0.00  0.00    +0.290 C 
ATOM     10  N   LIG    1       -5.549   3.588  -0.378  0.00  0.00    -0.610 N 
ATOM     11  C   LIG    1       -5.153   4.695   0.503  0.00  0.00    +0.290 C 
ATOM     12  C   LIG    1       -4.647   2.665  -0.768  0.00  0.00    +0.600 C 
ATOM     13  O   LIG    1       -4.965   1.802  -1.564  0.00  0.00    -0.530 OA
ATOM     14  C   LIG    1       -5.568   6.018  -0.159  0.00  0.00    +0.010 C 
BRANCH   7  21
ATOM     15  C   LIG    1       -8.958   8.040   0.846  0.00  0.00    +0.130 C 
ATOM     16  C   LIG    1       -8.304   8.164  -0.506  0.00  0.00    +0.010 A 
ATOM     17  C   LIG    1       -8.437   9.201  -1.357  0.00  0.00    -0.070 A 
ATOM     18  C   LIG    1       -7.667   8.911  -2.500  0.00  0.00    -0.070 A 
ATOM     19  C   LIG    1       -7.088   7.709  -2.302  0.00  0.00    +0.020 A 
ATOM     20  C   LIG    1       -6.174   6.999  -3.267  0.00  0.00    +0.120 C 
ATOM     21  N   LIG    1       -7.472   7.247  -1.078  0.00  0.00    -0.440 N 
ENDBRANCH   7  21
ENDBRANCH   1  12
BRANCH   3  22
ATOM     22  C   LIG    1        0.279   2.699  -0.425  0.00  0.00    +0.150 A 
ATOM     23  C   LIG    1        0.722   1.943  -1.502  0.00  0.00    +0.050 A 
ATOM     24  C   LIG    1        2.064   1.932  -1.831  0.00  0.00    +0.060 A 
ATOM     25  C   LIG    1        2.965   2.674  -1.089  0.00  0.00    +0.080 A 
ATOM     26  C   LIG    1        2.526   3.429  -0.017  0.00  0.00    -0.160 A 
ATOM     27  C   LIG    1        1.186   3.443   0.317  0.00  0.00    +0.090 A 
BRANCH  26  28
ATOM     28  C   LIG    1        3.511   4.237   0.788  0.00  0.00    +0.510 C 
ATOM     29  F   LIG    1        3.489   3.807   2.119  0.00  0.00    -0.170 F 
ATOM     30  F   LIG    1        3.162   5.591   0.730  0.00  0.00    -0.170 F 
ATOM     31  F   LIG    1        4.796   4.064   0.263  0.00  0.00    -0.170 F 
ENDBRANCH  26  28
ENDBRANCH   3  22
TORSDOF 4
