REMARK  Name = ZINCvU0000000B9L.0
REMARK                            x       y       z     vdW  Elec       q    Type
REMARK                         _______ _______ _______ _____ _____    ______ ____
ROOT
ATOM      1  C   LIG    1        4.803   1.347  -0.056  0.00  0.00    +0.320 C 
ENDROOT
BRANCH   1   2
ATOM      2  C   LIG    1        4.486   0.302  -1.096  0.00  0.00    -0.170 A 
ATOM      3  C   LIG    1        4.221  -1.005  -0.719  0.00  0.00    +0.070 A 
ATOM      4  C   LIG    1        3.935  -1.932  -1.710  0.00  0.00    -0.010 A 
ATOM      5  C   LIG    1        3.923  -1.525  -3.030  0.00  0.00    +0.270 A 
ATOM      6  N   LIG    1        4.180  -0.272  -3.352  0.00  0.00    -0.470 NA
ATOM      7  C   LIG    1        4.451   0.637  -2.436  0.00  0.00    +0.280 A 
ENDBRANCH   1   2
BRANCH   1   8
ATOM      8  C   LIG    1        3.612   1.530   0.850  0.00  0.00    +0.510 C 
ATOM      9  N   LIG    1        3.144   0.489   1.566  0.00  0.00    -0.670 N 
ATOM     10  H   LIG    1        3.614  -0.359   1.553  0.00  0.00    +0.410 HD
ATOM     11  O   LIG    1        3.076   2.615   0.934  0.00  0.00    -0.480 OA
BRANCH   9  12
ATOM     12  C   LIG    1        1.979   0.632   2.329  0.00  0.00    +0.140 A 
ATOM     13  C   LIG    1        1.095  -0.431   2.454  0.00  0.00    +0.010 A 
ATOM     14  C   LIG    1       -0.057  -0.285   3.203  0.00  0.00    +0.050 A 
ATOM     15  C   LIG    1       -0.325   0.916   3.836  0.00  0.00    -0.050 A 
ATOM     16  C   LIG    1        0.555   1.977   3.713  0.00  0.00    +0.050 A 
ATOM     17 CL   LIG    1       -1.770   1.093   4.781  0.00  0.00    -0.060 Cl
ATOM     18  C   LIG    1        1.706   1.838   2.962  0.00  0.00    +0.040 A 
ENDBRANCH   9  12
ENDBRANCH   1   8
BRANCH   1  20
ATOM     19  C   LIG    1        4.177   3.232  -1.468  0.00  0.00    +0.560 C 
ATOM     20  N   LIG    1        5.113   2.616  -0.718  0.00  0.00    -0.530 N 
ATOM     21  O   LIG    1        4.454   4.251  -2.071  0.00  0.00    -0.500 OA
BRANCH  20  22
ATOM     22  C   LIG    1        6.380   3.191  -0.571  0.00  0.00    +0.170 A 
ATOM     23  C   LIG    1        7.401   2.479   0.057  0.00  0.00    -0.010 A 
ATOM     24  C   LIG    1        8.639   3.023   0.202  0.00  0.00    +0.110 A 
ATOM     25  C   LIG    1        8.914   4.324  -0.271  0.00  0.00    +0.050 A 
ATOM     26  N   LIG    1       10.067   5.019  -0.211  0.00  0.00    -0.460 NA
ATOM     27  C   LIG    1       10.088   6.198  -0.710  0.00  0.00    +0.310 A 
ATOM     28  S   LIG    1        8.514   6.611  -1.376  0.00  0.00    +0.060 S 
ATOM     29  C   LIG    1        7.885   5.037  -0.896  0.00  0.00    -0.140 A 
ATOM     30  C   LIG    1        6.622   4.468  -1.044  0.00  0.00    +0.080 A 
ENDBRANCH  20  22
BRANCH  19  32
ATOM     31  C   LIG    1        1.902   3.268  -2.312  0.00  0.00    +0.160 C 
ATOM     32  C   LIG    1        2.821   2.669  -1.559  0.00  0.00    -0.090 C 
ENDBRANCH  19  32
ENDBRANCH   1  20
TORSDOF 6
