REMARK  Name = ZINCvU0000000Hnt.0
REMARK                            x       y       z     vdW  Elec       q    Type
REMARK                         _______ _______ _______ _____ _____    ______ ____
ROOT
ATOM      1  N   LIG    1       -0.238   1.442  -0.091  0.00  0.00    -0.530 NA
ATOM      2  C   LIG    1        1.013   2.197   0.084  0.00  0.00    +0.430 C 
ATOM      3  O   LIG    1        1.949   1.763  -0.904  0.00  0.00    -0.330 OA
ATOM      4  C   LIG    1        1.511   1.699  -2.190  0.00  0.00    +0.170 A 
ATOM      5  C   LIG    1        2.450   1.628  -3.221  0.00  0.00    +0.010 A 
ATOM      6  C   LIG    1        2.048   1.559  -4.522  0.00  0.00    +0.130 A 
ATOM      7  C   LIG    1        0.687   1.558  -4.833  0.00  0.00    -0.120 A 
ATOM      8  C   LIG    1       -0.270   1.633  -3.797  0.00  0.00    +0.100 A 
ATOM      9  O   LIG    1       -1.500   1.619  -4.356  0.00  0.00    -0.140 OA
ATOM     10  C   LIG    1       -1.426   1.534  -5.686  0.00  0.00    +0.010 A 
ATOM     11  C   LIG    1       -2.497   1.483  -6.702  0.00  0.00    +0.470 C 
ATOM     12  O   LIG    1       -3.661   1.329  -6.386  0.00  0.00    -0.400 OA
ATOM     13  C   LIG    1       -2.095   1.625  -8.126  0.00  0.00    -0.110 A 
ATOM     14  C   LIG    1       -3.074   1.796  -9.101  0.00  0.00    +0.090 A 
ATOM     15  C   LIG    1       -2.710   1.929 -10.431  0.00  0.00    +0.040 A 
ATOM     16  C   LIG    1       -1.379   1.896 -10.798  0.00  0.00    +0.050 A 
ATOM     17  C   LIG    1       -0.392   1.726  -9.841  0.00  0.00    +0.080 A 
ATOM     18  C   LIG    1       -0.741   1.588  -8.502  0.00  0.00    -0.110 A 
ATOM     19  C   LIG    1        0.323   1.402  -7.479  0.00  0.00    +0.460 C 
ATOM     20  O   LIG    1        1.476   1.184  -7.793  0.00  0.00    -0.420 OA
ATOM     21  C   LIG    1       -0.086   1.494  -6.064  0.00  0.00    -0.180 A 
ATOM     22  C   LIG    1        0.159   1.704  -2.477  0.00  0.00    -0.190 A 
ATOM     23  C   LIG    1       -0.865   1.791  -1.373  0.00  0.00    +0.300 C 
ENDROOT
BRANCH   1  25
ATOM     24  C   LIG    1        0.707  -0.320   1.323  0.00  0.00    +0.050 C 
ATOM     25  C   LIG    1        0.002  -0.004   0.002  0.00  0.00    +0.180 C 
BRANCH  25  26
ATOM     26  C   LIG    1       -1.314  -0.737  -0.053  0.00  0.00    -0.080 A 
ATOM     27  C   LIG    1       -2.378  -0.305   0.717  0.00  0.00    +0.040 A 
ATOM     28  C   LIG    1       -3.586  -0.974   0.663  0.00  0.00    +0.000 A 
ATOM     29  C   LIG    1       -3.728  -2.081  -0.153  0.00  0.00    +0.000 A 
ATOM     30  C   LIG    1       -2.662  -2.516  -0.918  0.00  0.00    +0.000 A 
ATOM     31  C   LIG    1       -1.455  -1.844  -0.869  0.00  0.00    +0.010 A 
ENDBRANCH  25  26
ENDBRANCH   1  25
TORSDOF 2
