REMARK  Name = ZINCpk000000oESK.0
REMARK                            x       y       z     vdW  Elec       q    Type
REMARK                         _______ _______ _______ _____ _____    ______ ____
ROOT
ATOM      1  C   LIG    1        0.474   9.409   2.389  0.00  0.00    +0.250 C 
ATOM      2  C   LIG    1        1.895   9.482   2.954  0.00  0.00    +0.080 C 
ENDROOT
BRANCH   1   3
ATOM      3  N   LIG    1       -0.481   9.833   3.415  0.00  0.00    -0.460 N 
ATOM      4  C   LIG    1       -0.672   9.248   4.631  0.00  0.00    +0.500 A 
ATOM      5  N   LIG    1       -1.596   9.884   5.290  0.00  0.00    -0.460 NA
ATOM      6  C   LIG    1       -2.063  10.909   4.537  0.00  0.00    -0.110 A 
ATOM      7  C   LIG    1       -3.038  11.905   4.719  0.00  0.00    +0.510 A 
ATOM      8  N   LIG    1       -3.242  12.777   3.737  0.00  0.00    -0.590 NA
ATOM      9  C   LIG    1       -2.550  12.718   2.615  0.00  0.00    +0.560 A 
ATOM     10  N   LIG    1       -1.627  11.804   2.401  0.00  0.00    -0.560 NA
ATOM     11  C   LIG    1       -1.353  10.889   3.325  0.00  0.00    +0.300 A 
BRANCH   7  12
ATOM     12  N   LIG    1       -3.768  11.975   5.892  0.00  0.00    -0.820 N 
ATOM     13  H   LIG    1       -3.610  11.332   6.601  0.00  0.00    +0.420 HD
ATOM     14  H   LIG    1       -4.438  12.667   6.006  0.00  0.00    +0.410 HD
ENDBRANCH   7  12
ENDBRANCH   1   3
BRANCH   1  16
ATOM     15  N   LIG    1        0.854   7.426   0.960  0.00  0.00    -0.600 N 
ATOM     16  C   LIG    1        0.171   7.992   1.974  0.00  0.00    +0.510 C 
ATOM     17  O   LIG    1       -0.688   7.362   2.554  0.00  0.00    -0.520 OA
BRANCH  15  19
ATOM     18  C   LIG    1        1.139   8.737  -1.085  0.00  0.00    +0.010 C 
ATOM     19  C   LIG    1        1.813   8.221   0.188  0.00  0.00    +0.270 C 
ENDBRANCH  15  19
BRANCH  15  20
ATOM     20  C   LIG    1        0.637   6.015   0.628  0.00  0.00    +0.300 C 
BRANCH  20  21
ATOM     21  C   LIG    1       -0.487   5.901  -0.403  0.00  0.00    +0.080 C 
BRANCH  21  22
ATOM     22  C   LIG    1       -0.711   4.450  -0.744  0.00  0.00    +0.130 A 
ATOM     23  C   LIG    1       -1.972   3.903  -0.610  0.00  0.00    -0.040 A 
ATOM     24  C   LIG    1       -2.168   2.568  -0.931  0.00  0.00    +0.070 A 
ATOM     25  C   LIG    1       -1.080   1.829  -1.368  0.00  0.00    -0.040 A 
ATOM     26  C   LIG    1        0.153   2.444  -1.478  0.00  0.00    +0.260 A 
ATOM     27  N   LIG    1        0.301   3.717  -1.168  0.00  0.00    -0.480 NA
ENDBRANCH  21  22
ENDBRANCH  20  21
ENDBRANCH  15  20
ENDBRANCH   1  16
TORSDOF 7
