REMARK  Name = ZINCrH000004lzRe.0
REMARK                            x       y       z     vdW  Elec       q    Type
REMARK                         _______ _______ _______ _____ _____    ______ ____
ROOT
ATOM      1  C   LIG    1       -1.196   1.589   0.019  0.00  0.00    +0.600 C 
ATOM      2  N   LIG    1       -0.011   0.949  -0.027  0.00  0.00    -0.720 N 
ATOM      3  H   LIG    1        0.015  -0.015  -0.132  0.00  0.00    +0.410 HD
ATOM      4  O   LIG    1       -1.229   2.798   0.151  0.00  0.00    -0.500 OA
ENDROOT
BRANCH   1   6
ATOM      5  C   LIG    1       -3.695   1.364  -0.051  0.00  0.00    -0.080 A 
ATOM      6  C   LIG    1       -2.448   0.828  -0.090  0.00  0.00    -0.010 A 
ATOM      7  O   LIG    1       -2.532  -0.511  -0.238  0.00  0.00    -0.180 OA
ATOM      8  C   LIG    1       -3.818  -0.906  -0.308  0.00  0.00    +0.070 A 
ATOM      9  C   LIG    1       -4.426  -2.147  -0.457  0.00  0.00    +0.030 A 
ATOM     10  C   LIG    1       -5.801  -2.237  -0.495  0.00  0.00    +0.060 A 
ATOM     11  C   LIG    1       -6.590  -1.100  -0.387  0.00  0.00    -0.010 A 
ATOM     12  C   LIG    1       -6.014   0.131  -0.240  0.00  0.00    +0.070 A 
ATOM     13  C   LIG    1       -4.623   0.243  -0.199  0.00  0.00    -0.130 A 
BRANCH   5  14
ATOM     14  C   LIG    1       -4.050   2.820   0.109  0.00  0.00    +0.260 C 
BRANCH  14  16
ATOM     15  C   LIG    1       -4.473   4.822  -1.139  0.00  0.00    +0.210 C 
ATOM     16  O   LIG    1       -4.139   3.433  -1.179  0.00  0.00    -0.380 OA
ENDBRANCH  14  16
ENDBRANCH   5  14
ENDBRANCH   1   6
BRANCH   2  17
ATOM     17  C   LIG    1        1.237   1.709   0.076  0.00  0.00    +0.310 C 
BRANCH  17  18
ATOM     18  C   LIG    1        2.422   0.741   0.109  0.00  0.00    +0.230 C 
BRANCH  18  19
ATOM     19  N   LIG    1        3.662   1.494   0.341  0.00  0.00    -0.500 NA
ATOM     20  C   LIG    1        3.603   2.233   1.628  0.00  0.00    +0.170 C 
ATOM     21  C   LIG    1        5.095   2.502   1.951  0.00  0.00    +0.040 C 
ATOM     22  C   LIG    1        5.791   1.207   1.474  0.00  0.00    +0.020 C 
ATOM     23  C   LIG    1        4.822   0.582   0.452  0.00  0.00    +0.170 C 
ENDBRANCH  18  19
BRANCH  18  24
ATOM     24  C   LIG    1        2.514   0.015  -1.209  0.00  0.00    -0.010 A 
ATOM     25  C   LIG    1        2.072  -1.231  -1.453  0.00  0.00    -0.060 A 
ATOM     26  C   LIG    1        2.360  -1.510  -2.808  0.00  0.00    -0.060 A 
ATOM     27  C   LIG    1        2.961  -0.417  -3.312  0.00  0.00    +0.160 A 
ATOM     28  O   LIG    1        3.047   0.506  -2.340  0.00  0.00    -0.150 OA
ENDBRANCH  18  24
ENDBRANCH  17  18
ENDBRANCH   2  17
TORSDOF 7
