REMARK  Name = ZINCkj00000hatz9.0
REMARK                            x       y       z     vdW  Elec       q    Type
REMARK                         _______ _______ _______ _____ _____    ______ ____
ROOT
ATOM      1  C   LIG    1       -1.443   2.158  -5.510  0.00  0.00    +0.750 C 
ENDROOT
BRANCH   1   5
ATOM      2  C   LIG    1       -3.038   3.151  -8.770  0.00  0.00    +0.010 C 
ATOM      3  C   LIG    1       -4.224   2.663  -7.896  0.00  0.00    +0.060 C 
ATOM      4  C   LIG    1       -3.672   2.893  -6.467  0.00  0.00    +0.280 C 
ATOM      5  N   LIG    1       -2.239   2.556  -6.557  0.00  0.00    -0.620 NA
ATOM      6  C   LIG    1       -1.802   2.722  -7.951  0.00  0.00    +0.280 C 
BRANCH   2   7
ATOM      7  C   LIG    1       -3.052   2.462 -10.136  0.00  0.00    +0.000 C 
BRANCH   7   9
ATOM      8  C   LIG    1       -4.374   4.314 -11.166  0.00  0.00    +0.010 C 
ATOM      9  C   LIG    1       -4.347   2.813 -10.872  0.00  0.00    +0.010 C 
ENDBRANCH   7   9
BRANCH   7  10
ATOM     10  C   LIG    1       -1.853   2.936 -10.959  0.00  0.00    +0.000 C 
ATOM     11  C   LIG    1       -1.793   2.151 -12.272  0.00  0.00    +0.010 C 
ENDBRANCH   7  10
ENDBRANCH   2   7
ENDBRANCH   1   5
BRANCH   1  12
ATOM     12  N   LIG    1       -1.604   2.688  -4.330  0.00  0.00    -0.650 NA
ATOM     13  C   LIG    1       -2.690   3.644  -4.099  0.00  0.00    +0.360 C 
ATOM     14  H   LIG    1       -1.005   2.450  -3.605  0.00  0.00    +0.440 HD
ENDBRANCH   1  12
BRANCH   1  15
ATOM     15  N   LIG    1       -0.476   1.201  -5.707  0.00  0.00    -0.690 NA
ATOM     16  H   LIG    1       -0.356   0.806  -6.585  0.00  0.00    +0.440 HD
BRANCH  15  17
ATOM     17  C   LIG    1        0.373   0.776  -4.591  0.00  0.00    +0.330 C 
BRANCH  17  18
ATOM     18  C   LIG    1        1.358  -0.290  -5.075  0.00  0.00    -0.350 C 
BRANCH  18  19
ATOM     19  S   LIG    1        2.409  -0.815  -3.694  0.00  0.00    +2.430 S 
ATOM     20  O   LIG    1        1.595  -1.466  -2.728  0.00  0.00    -0.920 OA
ATOM     21  O   LIG    1        3.214   0.285  -3.294  0.00  0.00    -0.920 OA
ATOM     22  C   LIG    1        3.474  -2.054  -4.482  0.00  0.00    -0.250 C 
ENDBRANCH  18  19
ENDBRANCH  17  18
ENDBRANCH  15  17
ENDBRANCH   1  15
TORSDOF 9
