REMARK  Name = ZINCrD0000071FaS.0
REMARK                            x       y       z     vdW  Elec       q    Type
REMARK                         _______ _______ _______ _____ _____    ______ ____
ROOT
ATOM      1  N   LIG    1        1.132   3.122  -1.369  0.00  0.00    -0.530 N 
ATOM      2  C   LIG    1        0.345   2.698  -2.366  0.00  0.00    +0.520 C 
ATOM      3  C   LIG    1       -0.738   1.806  -1.801  0.00  0.00    +0.120 C 
ATOM      4  C   LIG    1       -0.438   1.786  -0.288  0.00  0.00    +0.210 C 
ATOM      5  O   LIG    1        0.480   2.984  -3.536  0.00  0.00    -0.460 OA
ATOM      6  C   LIG    1        0.783   2.671  -0.157  0.00  0.00    +0.490 C 
ATOM      7  O   LIG    1        1.355   2.929   0.880  0.00  0.00    -0.460 OA
ENDROOT
BRANCH   1  11
ATOM      8  C   LIG    1        4.399   5.642  -1.986  0.00  0.00    +0.150 A 
ATOM      9  C   LIG    1        4.562   4.266  -2.049  0.00  0.00    +0.000 A 
ATOM     10  C   LIG    1        3.482   3.432  -1.845  0.00  0.00    +0.070 A 
ATOM     11  C   LIG    1        2.231   3.970  -1.576  0.00  0.00    +0.060 A 
ATOM     12  C   LIG    1        2.066   5.347  -1.517  0.00  0.00    +0.070 A 
ATOM     13  C   LIG    1        3.149   6.181  -1.716  0.00  0.00    -0.060 A 
BRANCH   8  14
ATOM     14  O   LIG    1        5.463   6.463  -2.187  0.00  0.00    -0.310 OA
BRANCH  14  15
ATOM     15  C   LIG    1        5.222   7.870  -2.107  0.00  0.00    +0.190 C 
BRANCH  15  17
ATOM     16  C   LIG    1        6.270  10.132  -2.273  0.00  0.00    +0.040 C 
ATOM     17  C   LIG    1        6.528   8.626  -2.359  0.00  0.00    +0.030 C 
ENDBRANCH  15  17
ENDBRANCH  14  15
ENDBRANCH   8  14
ENDBRANCH   1  11
BRANCH   4  18
ATOM     18  N   LIG    1       -1.564   2.344   0.472  0.00  0.00    -0.480 NA
BRANCH  18  19
ATOM     19  C   LIG    1       -1.312   2.269   1.918  0.00  0.00    +0.090 C 
ATOM     20  C   LIG    1       -1.882   1.066   2.672  0.00  0.00    +0.040 C 
ATOM     21  C   LIG    1       -2.509   2.450   2.854  0.00  0.00    +0.050 C 
ENDBRANCH  18  19
BRANCH  18  22
ATOM     22  C   LIG    1       -1.846   3.725   0.059  0.00  0.00    +0.280 C 
BRANCH  22  23
ATOM     23  C   LIG    1       -3.219   4.122   0.537  0.00  0.00    -0.010 A 
ATOM     24  C   LIG    1       -3.493   4.807   1.662  0.00  0.00    -0.040 A 
ATOM     25  C   LIG    1       -4.897   4.961   1.716  0.00  0.00    -0.070 A 
ATOM     26  C   LIG    1       -5.398   4.354   0.625  0.00  0.00    +0.170 A 
ATOM     27  O   LIG    1       -4.377   3.848  -0.086  0.00  0.00    -0.170 OA
ENDBRANCH  22  23
ENDBRANCH  18  22
ENDBRANCH   4  18
TORSDOF 8
