REMARK  Name = ZINCrD00000hQ4XG.0
REMARK                            x       y       z     vdW  Elec       q    Type
REMARK                         _______ _______ _______ _____ _____    ______ ____
ROOT
ATOM      1  S   LIG    1       -5.229   3.890   0.026  0.00  0.00    +2.670 S 
ATOM      2  O   LIG    1       -6.159   2.833  -0.172  0.00  0.00    -0.940 OA
ATOM      3  O   LIG    1       -5.200   5.060  -0.780  0.00  0.00    -0.910 OA
ENDROOT
BRANCH   1  10
ATOM      4  O   LIG    1        2.357   1.743  -0.503  0.00  0.00    -0.510 OA
ATOM      5  C   LIG    1        1.261   2.252  -0.408  0.00  0.00    +0.520 C 
ATOM      6  C   LIG    1        1.138   3.751  -0.361  0.00  0.00    +0.090 C 
ATOM      7  C   LIG    1       -0.134   4.192  -1.085  0.00  0.00    +0.110 C 
ATOM      8  C   LIG    1       -1.300   3.367  -0.604  0.00  0.00    -0.140 A 
ATOM      9  C   LIG    1       -2.557   3.930  -0.511  0.00  0.00    +0.170 A 
ATOM     10  C   LIG    1       -3.625   3.170  -0.085  0.00  0.00    -0.700 A 
ATOM     11  C   LIG    1       -3.438   1.845   0.266  0.00  0.00    +0.150 A 
ATOM     12  C   LIG    1       -2.182   1.277   0.182  0.00  0.00    -0.030 A 
ATOM     13  C   LIG    1       -1.107   2.038  -0.257  0.00  0.00    +0.220 A 
ATOM     14  N   LIG    1        0.168   1.470  -0.345  0.00  0.00    -0.670 N 
ATOM     15  H   LIG    1        0.264   0.504  -0.365  0.00  0.00    +0.420 HD
ENDBRANCH   1  10
BRANCH   1  16
ATOM     16  N   LIG    1       -5.430   4.403   1.588  0.00  0.00    -1.030 N 
ATOM     17  H   LIG    1       -6.100   3.986   2.153  0.00  0.00    +0.430 HD
BRANCH  16  18
ATOM     18  C   LIG    1       -4.638   5.432   2.090  0.00  0.00    +0.330 A 
ATOM     19  C   LIG    1       -4.600   6.715   1.636  0.00  0.00    -0.220 A 
ATOM     20  C   LIG    1       -3.676   7.419   2.415  0.00  0.00    +0.300 A 
ATOM     21  N   LIG    1       -3.173   6.599   3.303  0.00  0.00    -0.250 NA
ATOM     22 BR   LIG    1       -5.618   7.421   0.207  0.00  0.00    +0.040 Br
ATOM     23  N   LIG    1       -3.762   5.341   3.128  0.00  0.00    -0.310 N 
BRANCH  23  24
ATOM     24  C   LIG    1       -3.495   4.192   3.885  0.00  0.00    +0.150 A 
ATOM     25  C   LIG    1       -4.513   3.290   4.163  0.00  0.00    +0.000 A 
ATOM     26  C   LIG    1       -4.246   2.155   4.904  0.00  0.00    +0.040 A 
ATOM     27  C   LIG    1       -2.968   1.924   5.380  0.00  0.00    +0.020 A 
ATOM     28  C   LIG    1       -1.953   2.823   5.110  0.00  0.00    +0.030 A 
ATOM     29  C   LIG    1       -2.213   3.956   4.364  0.00  0.00    +0.040 A 
ENDBRANCH  23  24
ENDBRANCH  16  18
ENDBRANCH   1  16
TORSDOF 4
