REMARK  Name = ZINCrH000004lCm9.0
REMARK                            x       y       z     vdW  Elec       q    Type
REMARK                         _______ _______ _______ _____ _____    ______ ____
ROOT
ATOM      1  N   LIG    1       -2.456   3.823   0.046  0.00  0.00    -0.690 N 
ATOM      2  H   LIG    1       -3.289   3.332  -0.030  0.00  0.00    +0.400 HD
ATOM      3  C   LIG    1       -2.473   5.167   0.156  0.00  0.00    +0.710 C 
ATOM      4  N   LIG    1       -3.647   5.818   0.273  0.00  0.00    -0.600 N 
ATOM      5  O   LIG    1       -1.429   5.790   0.150  0.00  0.00    -0.560 OA
ENDROOT
BRANCH   1  11
ATOM      6  C   LIG    1       -1.140   1.892  -0.565  0.00  0.00    -0.130 A 
ATOM      7  C   LIG    1        0.063   1.215  -0.561  0.00  0.00    +0.060 A 
ATOM      8  C   LIG    1        1.174   1.779   0.039  0.00  0.00    -0.020 A 
ATOM      9  C   LIG    1        1.083   3.020   0.641  0.00  0.00    +0.030 A 
ATOM     10  C   LIG    1       -0.119   3.701   0.645  0.00  0.00    +0.020 A 
ATOM     11  C   LIG    1       -1.237   3.137   0.044  0.00  0.00    +0.170 A 
BRANCH   6  12
ATOM     12  C   LIG    1       -2.348   1.279  -1.225  0.00  0.00    +0.230 C 
BRANCH  12  14
ATOM     13  C   LIG    1       -3.080  -0.665  -2.421  0.00  0.00    +0.200 C 
ATOM     14  O   LIG    1       -1.999   0.005  -1.769  0.00  0.00    -0.380 OA
ENDBRANCH  12  14
ENDBRANCH   6  12
ENDBRANCH   1  11
BRANCH   4  15
ATOM     15  C   LIG    1       -4.904   5.067   0.281  0.00  0.00    +0.280 C 
BRANCH  15  16
ATOM     16  C   LIG    1       -5.264   4.689   1.719  0.00  0.00    +0.140 C 
ATOM     17  C   LIG    1       -6.522   3.795   1.726  0.00  0.00    +0.010 C 
ATOM     18  C   LIG    1       -7.292   4.322   2.970  0.00  0.00    +0.010 C 
ATOM     19  C   LIG    1       -6.928   5.827   2.926  0.00  0.00    +0.200 C 
ATOM     20  O   LIG    1       -5.566   5.870   2.470  0.00  0.00    -0.370 OA
ENDBRANCH  15  16
ENDBRANCH   4  15
BRANCH   4  21
ATOM     21  C   LIG    1       -3.665   7.278   0.392  0.00  0.00    +0.370 C 
BRANCH  21  22
ATOM     22  C   LIG    1       -3.749   7.893  -0.982  0.00  0.00    -0.140 A 
ATOM     23  C   LIG    1       -2.610   8.385  -1.589  0.00  0.00    +0.050 A 
ATOM     24  C   LIG    1       -2.686   8.949  -2.849  0.00  0.00    +0.000 A 
ATOM     25  C   LIG    1       -3.901   9.023  -3.504  0.00  0.00    +0.030 A 
ATOM     26  C   LIG    1       -5.043   8.533  -2.901  0.00  0.00    -0.020 A 
ATOM     27  C   LIG    1       -4.969   7.961  -1.639  0.00  0.00    +0.120 A 
BRANCH  27  28
ATOM     28  O   LIG    1       -6.090   7.473  -1.046  0.00  0.00    -0.500 OA
ATOM     29  H   LIG    1       -6.566   8.123  -0.511  0.00  0.00    +0.390 HD
ENDBRANCH  27  28
ENDBRANCH  21  22
ENDBRANCH   4  21
TORSDOF 8
