REMARK  Name = ZINCqH0000008WOj.0
REMARK                            x       y       z     vdW  Elec       q    Type
REMARK                         _______ _______ _______ _____ _____    ______ ____
ROOT
ATOM      1  C   LIG    1        2.582  -0.287  -0.056  0.00  0.00    +0.420 A 
ATOM      2  N   LIG    1        2.739   0.949   0.359  0.00  0.00    -0.330 NA
ATOM      3  N   LIG    1        1.659   1.662   0.883  0.00  0.00    -0.270 N 
ATOM      4  C   LIG    1        0.422   1.074   0.970  0.00  0.00    +0.120 A 
ATOM      5  C   LIG    1        0.255  -0.251   0.526  0.00  0.00    +0.190 A 
ATOM      6  N   LIG    1       -0.400   1.973   1.494  0.00  0.00    -0.240 NA
ATOM      7  N   LIG    1        0.247   3.058   1.738  0.00  0.00    -0.250 NA
ATOM      8  C   LIG    1        1.511   2.923   1.380  0.00  0.00    +0.250 A 
ATOM      9  C   LIG    1        1.326  -0.919   0.019  0.00  0.00    -0.020 A 
ENDROOT
BRANCH   8  10
ATOM     10  C   LIG    1        2.568   3.949   1.496  0.00  0.00    -0.030 A 
ATOM     11  C   LIG    1        3.913   3.582   1.411  0.00  0.00    +0.050 A 
ATOM     12  C   LIG    1        4.895   4.545   1.515  0.00  0.00    +0.010 A 
ATOM     13  C   LIG    1        4.551   5.870   1.714  0.00  0.00    +0.030 A 
ATOM     14  C   LIG    1        3.220   6.240   1.804  0.00  0.00    +0.010 A 
ATOM     15  C   LIG    1        2.228   5.287   1.696  0.00  0.00    +0.070 A 
ENDBRANCH   8  10
BRANCH   1  16
ATOM     16  N   LIG    1        3.670  -0.981  -0.575  0.00  0.00    -0.610 N 
ATOM     17  H   LIG    1        3.583  -1.920  -0.802  0.00  0.00    +0.430 HD
BRANCH  16  20
ATOM     18  N   LIG    1        7.023   0.072  -1.136  0.00  0.00    -0.360 N 
ATOM     19  C   LIG    1        6.096  -0.913  -1.006  0.00  0.00    +0.210 A 
ATOM     20  C   LIG    1        4.898  -0.320  -0.770  0.00  0.00    -0.000 A 
ATOM     21  C   LIG    1        5.100   1.068  -0.760  0.00  0.00    +0.250 A 
ATOM     22  N   LIG    1        6.369   1.301  -0.974  0.00  0.00    -0.270 NA
BRANCH  18  24
ATOM     23  C   LIG    1        8.646  -1.323  -2.318  0.00  0.00    +0.070 C 
ATOM     24  C   LIG    1        8.451  -0.116  -1.399  0.00  0.00    +0.300 C 
BRANCH  24  25
ATOM     25  C   LIG    1        9.185  -0.358  -0.078  0.00  0.00    -0.060 C 
ATOM     26  C   LIG    1       10.139   0.734   0.411  0.00  0.00    +0.030 C 
ATOM     27  C   LIG    1       10.698  -0.580  -0.140  0.00  0.00    +0.030 C 
ENDBRANCH  24  25
ENDBRANCH  18  24
ENDBRANCH  16  20
ENDBRANCH   1  16
TORSDOF 5
