REMARK  Name = ZINCkj000005eWuf.0
REMARK                            x       y       z     vdW  Elec       q    Type
REMARK                         _______ _______ _______ _____ _____    ______ ____
ROOT
ATOM      1  N   LIG    1        0.021  -0.501   1.384  0.00  0.00    -0.400 N 
ATOM      2  C   LIG    1        1.333  -0.211   2.022  0.00  0.00    +0.270 C 
ATOM      3  C   LIG    1        1.445  -1.240   3.172  0.00  0.00    +0.090 C 
ATOM      4  C   LIG    1        0.526  -2.388   2.751  0.00  0.00    -0.100 C 
ATOM      5  C   LIG    1        1.278  -3.719   2.663  0.00  0.00    +0.310 C 
ATOM      6  N   LIG    1        1.035  -4.385   3.952  0.00  0.00    -0.730 N 
ATOM      7  H   LIG    1        1.548  -5.137   4.285  0.00  0.00    +0.420 HD
ATOM      8  C   LIG    1        0.007  -3.817   4.610  0.00  0.00    +0.520 C 
ATOM      9  O   LIG    1       -0.408  -4.174   5.692  0.00  0.00    -0.510 OA
ATOM     10  C   LIG    1       -0.556  -2.665   3.800  0.00  0.00    +0.080 C 
ATOM     11  C   LIG    1       -0.080  -1.986   1.404  0.00  0.00    +0.290 C 
ATOM     12  H   LIG    1       -0.730  -0.090   1.917  0.00  0.00    +0.430 HD
ENDROOT
BRANCH   1  13
ATOM     13  C   LIG    1        0.002  -0.004   0.002  0.00  0.00    +0.350 C 
BRANCH  13  16
ATOM     14  N   LIG    1       -0.717   3.571   0.027  0.00  0.00    -0.340 N 
ATOM     15  C   LIG    1       -1.123   2.284   0.019  0.00  0.00    +0.280 A 
ATOM     16  C   LIG    1       -0.018   1.503   0.010  0.00  0.00    -0.320 A 
ATOM     17  C   LIG    1        1.101   2.341   0.004  0.00  0.00    +0.260 A 
ATOM     18  N   LIG    1        0.684   3.581   0.014  0.00  0.00    -0.270 NA
BRANCH  14  20
ATOM     19  C   LIG    1       -2.178   4.930   1.441  0.00  0.00    +0.060 C 
ATOM     20  C   LIG    1       -1.587   4.749   0.041  0.00  0.00    +0.170 C 
ATOM     21  C   LIG    1       -2.720   4.559  -0.970  0.00  0.00    +0.070 C 
ATOM     22  C   LIG    1       -0.773   5.989  -0.333  0.00  0.00    +0.070 C 
ENDBRANCH  14  20
ENDBRANCH  13  16
ENDBRANCH   1  13
TORSDOF 3
