REMARK  Name = ZINCkj000005eWuf.1
REMARK                            x       y       z     vdW  Elec       q    Type
REMARK                         _______ _______ _______ _____ _____    ______ ____
ROOT
ATOM      1  N   LIG    1        0.901   2.367   2.723  0.00  0.00    -0.390 N 
ATOM      2  C   LIG    1        0.332   1.156   3.357  0.00  0.00    +0.260 C 
ATOM      3  C   LIG    1       -0.742   0.604   2.394  0.00  0.00    +0.090 C 
ATOM      4  C   LIG    1       -0.770   1.600   1.233  0.00  0.00    -0.100 C 
ATOM      5  C   LIG    1       -0.013   1.086   0.008  0.00  0.00    +0.280 C 
ATOM      6  N   LIG    1       -0.764   1.593  -1.151  0.00  0.00    -0.740 N 
ATOM      7  H   LIG    1       -0.420   1.619  -2.058  0.00  0.00    +0.420 HD
ATOM      8  C   LIG    1       -1.991   2.015  -0.792  0.00  0.00    +0.510 C 
ATOM      9  O   LIG    1       -2.817   2.474  -1.552  0.00  0.00    -0.510 OA
ATOM     10  C   LIG    1       -2.189   1.834   0.700  0.00  0.00    +0.110 C 
ATOM     11  C   LIG    1       -0.148   2.881   1.801  0.00  0.00    +0.290 C 
ATOM     12  H   LIG    1        1.733   2.128   2.204  0.00  0.00    +0.420 HD
ENDROOT
BRANCH   1  13
ATOM     13  C   LIG    1        1.214   3.373   3.746  0.00  0.00    +0.360 C 
BRANCH  13  16
ATOM     14  N   LIG    1        4.318   2.447   5.422  0.00  0.00    -0.340 N 
ATOM     15  C   LIG    1        3.654   3.053   4.415  0.00  0.00    +0.280 A 
ATOM     16  C   LIG    1        2.330   2.867   4.623  0.00  0.00    -0.320 A 
ATOM     17  C   LIG    1        2.179   2.126   5.801  0.00  0.00    +0.260 A 
ATOM     18  N   LIG    1        3.370   1.869   6.277  0.00  0.00    -0.270 NA
BRANCH  14  20
ATOM     19  C   LIG    1        6.271   3.763   6.079  0.00  0.00    +0.060 C 
ATOM     20  C   LIG    1        5.772   2.402   5.591  0.00  0.00    +0.170 C 
ATOM     21  C   LIG    1        6.431   2.068   4.251  0.00  0.00    +0.070 C 
ATOM     22  C   LIG    1        6.133   1.328   6.619  0.00  0.00    +0.080 C 
ENDBRANCH  14  20
ENDBRANCH  13  16
ENDBRANCH   1  13
TORSDOF 3
