REMARK  Name = ZINCvU0000000HDi.0
REMARK                            x       y       z     vdW  Elec       q    Type
REMARK                         _______ _______ _______ _____ _____    ______ ____
ROOT
ATOM      1  C   LIG    1        7.245  -2.686  -4.681  0.00  0.00    -0.210 A 
ATOM      2  C   LIG    1        6.561  -2.310  -5.822  0.00  0.00    +0.280 A 
ATOM      3  N   LIG    1        7.284  -2.709  -6.885  0.00  0.00    -0.310 N 
ATOM      4  N   LIG    1        8.443  -3.357  -6.449  0.00  0.00    -0.270 NA
ATOM      5  C   LIG    1        8.463  -3.368  -5.135  0.00  0.00    +0.160 A 
ENDROOT
BRANCH   3   6
ATOM      6  C   LIG    1        6.926  -2.509  -8.224  0.00  0.00    +0.150 A 
ATOM      7  C   LIG    1        5.743  -1.853  -8.538  0.00  0.00    -0.010 A 
ATOM      8  C   LIG    1        5.396  -1.652  -9.860  0.00  0.00    +0.050 A 
ATOM      9  C   LIG    1        6.220  -2.114 -10.870  0.00  0.00    +0.010 A 
ATOM     10  C   LIG    1        7.396  -2.773 -10.561  0.00  0.00    +0.040 A 
ATOM     11  C   LIG    1        7.751  -2.972  -9.241  0.00  0.00    +0.020 A 
ENDBRANCH   3   6
BRANCH   5  12
ATOM     12  C   LIG    1        9.516  -3.956  -4.274  0.00  0.00    -0.030 A 
ATOM     13  C   LIG    1        9.855  -3.347  -3.067  0.00  0.00    +0.040 A 
ATOM     14  C   LIG    1       10.832  -3.903  -2.267  0.00  0.00    +0.010 A 
ATOM     15  C   LIG    1       11.484  -5.056  -2.666  0.00  0.00    +0.030 A 
ATOM     16  C   LIG    1       11.156  -5.662  -3.866  0.00  0.00    +0.010 A 
ATOM     17  C   LIG    1       10.176  -5.119  -4.671  0.00  0.00    +0.040 A 
ENDBRANCH   5  12
BRANCH   1  19
ATOM     18  C   LIG    1        5.675  -1.807  -3.029  0.00  0.00    -0.130 C 
ATOM     19  C   LIG    1        6.832  -2.455  -3.292  0.00  0.00    +0.190 C 
BRANCH  18  22
ATOM     20  N   LIG    1        4.123  -0.938  -1.425  0.00  0.00    -0.730 N 
ATOM     21  H   LIG    1        3.566  -0.626  -2.155  0.00  0.00    +0.400 HD
ATOM     22  C   LIG    1        5.277  -1.584  -1.687  0.00  0.00    +0.560 C 
ATOM     23  O   LIG    1        5.976  -1.976  -0.771  0.00  0.00    -0.550 OA
BRANCH  20  24
ATOM     24  C   LIG    1        3.711  -0.707  -0.039  0.00  0.00    +0.320 C 
BRANCH  24  28
ATOM     25  C   LIG    1        1.155   3.595   0.010  0.00  0.00    +0.100 C 
ATOM     26  C   LIG    1        1.174   2.088   0.002  0.00  0.00    -0.120 A 
ATOM     27  C   LIG    1        2.379   1.412  -0.013  0.00  0.00    +0.070 A 
ATOM     28  C   LIG    1        2.396   0.029  -0.021  0.00  0.00    -0.120 A 
ATOM     29  C   LIG    1        1.209  -0.678  -0.013  0.00  0.00    +0.060 A 
ATOM     30  C   LIG    1        0.002  -0.004   0.002  0.00  0.00    -0.010 A 
ATOM     31  C   LIG    1       -0.017   1.380   0.010  0.00  0.00    +0.100 A 
ATOM     32  F   LIG    1       -1.195   2.040   0.019  0.00  0.00    -0.140 F 
ENDBRANCH  24  28
ENDBRANCH  20  24
ENDBRANCH  18  22
ENDBRANCH   1  19
TORSDOF 6
