REMARK  Name = ZINCqH0000003E2k.0
REMARK                            x       y       z     vdW  Elec       q    Type
REMARK                         _______ _______ _______ _____ _____    ______ ____
ROOT
ATOM      1  N   LIG    1       -3.505   3.487  -1.287  0.00  0.00    -0.710 N 
ATOM      2  H   LIG    1       -3.724   2.907  -2.033  0.00  0.00    +0.400 HD
ATOM      3  C   LIG    1       -3.376   4.815  -1.480  0.00  0.00    +0.520 C 
ATOM      4  O   LIG    1       -3.102   5.540  -0.548  0.00  0.00    -0.540 OA
ENDROOT
BRANCH   1   7
ATOM      5  C   LIG    1       -4.383   1.089   0.052  0.00  0.00    +0.150 C 
ATOM      6  C   LIG    1       -4.621   2.456   0.716  0.00  0.00    +0.000 C 
ATOM      7  C   LIG    1       -3.313   2.920   0.051  0.00  0.00    +0.240 C 
ATOM      8  C   LIG    1       -2.891   1.446   0.039  0.00  0.00    -0.080 C 
ATOM      9  C   LIG    1       -2.175   1.028  -1.244  0.00  0.00    +0.030 C 
ATOM     10  C   LIG    1       -0.751   1.592  -1.233  0.00  0.00    +0.000 C 
ATOM     11  C   LIG    1       -0.013   1.086   0.008  0.00  0.00    +0.000 C 
ATOM     12  C   LIG    1       -0.727   1.578   1.268  0.00  0.00    +0.000 C 
ATOM     13  C   LIG    1       -2.149   1.014   1.302  0.00  0.00    +0.060 C 
BRANCH   5  14
ATOM     14  O   LIG    1       -4.699  -0.021   0.895  0.00  0.00    -0.370 OA
BRANCH  14  16
ATOM     15  C   LIG    1       -6.070  -1.938   1.428  0.00  0.00    +0.040 C 
ATOM     16  C   LIG    1       -5.825  -0.783   0.455  0.00  0.00    +0.160 C 
ENDBRANCH  14  16
ENDBRANCH   5  14
ENDBRANCH   1   7
BRANCH   3  17
ATOM     17  C   LIG    1       -3.573   5.398  -2.856  0.00  0.00    +0.080 C 
BRANCH  17  18
ATOM     18  C   LIG    1       -3.372   6.914  -2.801  0.00  0.00    +0.180 C 
BRANCH  18  19
ATOM     19  C   LIG    1       -3.568   7.497  -4.176  0.00  0.00    +0.290 A 
ATOM     20  N   LIG    1       -2.924   7.124  -5.243  0.00  0.00    -0.490 NA
ATOM     21  C   LIG    1       -3.347   7.851  -6.309  0.00  0.00    +0.050 A 
ATOM     22  C   LIG    1       -3.004   7.863  -7.664  0.00  0.00    +0.070 A 
ATOM     23  C   LIG    1       -3.618   8.739  -8.513  0.00  0.00    +0.000 A 
ATOM     24  C   LIG    1       -4.582   9.621  -8.046  0.00  0.00    +0.030 A 
ATOM     25  C   LIG    1       -4.936   9.626  -6.713  0.00  0.00    +0.010 A 
ATOM     26  C   LIG    1       -4.323   8.743  -5.835  0.00  0.00    +0.050 A 
ATOM     27  N   LIG    1       -4.441   8.495  -4.482  0.00  0.00    -0.600 N 
ATOM     28  H   LIG    1       -5.036   8.948  -3.864  0.00  0.00    +0.420 HD
ENDBRANCH  18  19
ENDBRANCH  17  18
ENDBRANCH   3  17
TORSDOF 6
