REMARK  Name = ZINCpe00000MJKNr.0
REMARK                            x       y       z     vdW  Elec       q    Type
REMARK                         _______ _______ _______ _____ _____    ______ ____
ROOT
ATOM      1  C   LIG    1       -1.147  -2.162   0.209  0.00  0.00    +0.220 C 
ATOM      2  C   LIG    1       -1.384  -1.416  -1.104  0.00  0.00    +0.320 C 
ATOM      3  N   LIG    1       -2.623  -0.647  -1.004  0.00  0.00    -0.470 N 
ATOM      4  C   LIG    1       -3.373  -0.127  -1.996  0.00  0.00    +0.190 A 
ATOM      5  N   LIG    1       -4.381   0.489  -1.434  0.00  0.00    -0.290 NA
ATOM      6  N   LIG    1       -4.300   0.378  -0.152  0.00  0.00    -0.270 NA
ATOM      7  C   LIG    1       -3.101  -0.234  -3.474  0.00  0.00    +0.200 C 
ATOM      8  C   LIG    1       -3.245  -0.312   0.155  0.00  0.00    +0.150 A 
ATOM      9  C   LIG    1       -2.742  -0.708   1.522  0.00  0.00    +0.440 C 
ATOM     10  N   LIG    1       -1.383  -1.252   1.340  0.00  0.00    -0.610 N 
ATOM     11  C   LIG    1       -0.384  -0.919   2.182  0.00  0.00    +0.570 C 
ATOM     12  O   LIG    1        0.724  -1.395   2.029  0.00  0.00    -0.470 OA
ENDROOT
BRANCH  11  13
ATOM     13  C   LIG    1       -0.636   0.024   3.292  0.00  0.00    -0.190 A 
ATOM     14  C   LIG    1       -0.615   1.406   3.070  0.00  0.00    +0.100 A 
ATOM     15  C   LIG    1       -0.858   2.246   4.143  0.00  0.00    -0.020 A 
ATOM     16  C   LIG    1       -1.112   1.699   5.388  0.00  0.00    +0.160 A 
ATOM     17  N   LIG    1       -1.125   0.392   5.567  0.00  0.00    -0.480 NA
ATOM     18  C   LIG    1       -0.906  -0.449   4.577  0.00  0.00    +0.310 A 
BRANCH  16  19
ATOM     19  C   LIG    1       -1.377   2.610   6.558  0.00  0.00    +0.040 C 
ATOM     20  C   LIG    1       -2.144   3.845   6.080  0.00  0.00    +0.040 C 
ATOM     21  C   LIG    1       -0.047   3.045   7.177  0.00  0.00    +0.050 C 
ENDBRANCH  16  19
ENDBRANCH  11  13
BRANCH   1  25
ATOM     22  C   LIG    1        1.917  -4.408   0.682  0.00  0.00    +0.290 C 
ATOM     23  N   LIG    1        0.535  -3.924   0.640  0.00  0.00    -0.730 N 
ATOM     24  H   LIG    1       -0.193  -4.513   0.892  0.00  0.00    +0.400 HD
ATOM     25  C   LIG    1        0.275  -2.660   0.252  0.00  0.00    +0.540 C 
ATOM     26  O   LIG    1        1.185  -1.923  -0.064  0.00  0.00    -0.510 OA
ENDBRANCH   1  25
TORSDOF 3
