REMARK  Name = ZINCrH000004poRA.0
REMARK                            x       y       z     vdW  Elec       q    Type
REMARK                         _______ _______ _______ _____ _____    ______ ____
ROOT
ATOM      1  C   LIG    1        3.281  -4.358  -2.415  0.00  0.00    +0.170 C 
ATOM      2  C   LIG    1        4.613  -4.395  -1.663  0.00  0.00    +0.020 C 
ENDROOT
BRANCH   1   3
ATOM      3  N   LIG    1        2.951  -5.706  -2.895  0.00  0.00    -0.520 NA
ATOM      4  C   LIG    1        2.862  -6.656  -1.777  0.00  0.00    +0.190 C 
ATOM      5  C   LIG    1        2.440  -8.028  -2.309  0.00  0.00    +0.180 C 
ATOM      6  N   LIG    1        3.417  -8.484  -3.308  0.00  0.00    -0.530 NA
ATOM      7  C   LIG    1        3.506  -7.535  -4.426  0.00  0.00    +0.190 C 
ATOM      8  C   LIG    1        3.928  -6.163  -3.894  0.00  0.00    +0.190 C 
BRANCH   6   9
ATOM      9  C   LIG    1        3.087  -9.833  -3.788  0.00  0.00    +0.230 C 
BRANCH   9  10
ATOM     10  C   LIG    1        2.764 -10.720  -2.613  0.00  0.00    -0.070 A 
ATOM     11  C   LIG    1        1.462 -10.815  -2.157  0.00  0.00    +0.020 A 
ATOM     12  C   LIG    1        1.165 -11.628  -1.079  0.00  0.00    +0.020 A 
ATOM     13  C   LIG    1        2.168 -12.346  -0.458  0.00  0.00    +0.020 A 
ATOM     14  C   LIG    1        3.471 -12.252  -0.914  0.00  0.00    -0.030 A 
ATOM     15 CL   LIG    1        4.732 -13.154  -0.134  0.00  0.00    -0.070 Cl
ATOM     16  C   LIG    1        3.768 -11.442  -1.995  0.00  0.00    +0.040 A 
ENDBRANCH   9  10
ENDBRANCH   6   9
ENDBRANCH   1   3
BRANCH   1  19
ATOM     17  N   LIG    1        2.285  -2.655  -0.923  0.00  0.00    -0.730 N 
ATOM     18  H   LIG    1        3.048  -2.087  -1.113  0.00  0.00    +0.400 HD
ATOM     19  C   LIG    1        2.195  -3.875  -1.488  0.00  0.00    +0.520 C 
ATOM     20  O   LIG    1        1.241  -4.585  -1.251  0.00  0.00    -0.520 OA
BRANCH  17  22
ATOM     21  C   LIG    1        1.500  -2.700   1.393  0.00  0.00    +0.040 C 
ATOM     22  C   LIG    1        1.229  -2.186  -0.022  0.00  0.00    +0.290 C 
BRANCH  22  23
ATOM     23  C   LIG    1        1.208  -0.679  -0.014  0.00  0.00    -0.090 A 
ATOM     24  C   LIG    1        0.002  -0.004   0.002  0.00  0.00    +0.010 A 
ATOM     25  C   LIG    1       -0.017   1.378   0.010  0.00  0.00    +0.020 A 
ATOM     26  C   LIG    1        1.171   2.086   0.002  0.00  0.00    +0.000 A 
ATOM     27  C   LIG    1        2.377   1.411  -0.014  0.00  0.00    +0.000 A 
ATOM     28  C   LIG    1        2.396   0.029  -0.021  0.00  0.00    +0.000 A 
ENDBRANCH  22  23
ENDBRANCH  17  22
ENDBRANCH   1  19
TORSDOF 6
