REMARK  Name = ZINCpk00000j9txM.0
REMARK                            x       y       z     vdW  Elec       q    Type
REMARK                         _______ _______ _______ _____ _____    ______ ____
ROOT
ATOM      1  C   LIG    1       -1.253   3.020   0.771  0.00  0.00    +0.270 C 
ATOM      2  C   LIG    1       -1.209   2.972  -0.768  0.00  0.00    +0.210 C 
ATOM      3  N   LIG    1       -0.788   1.606  -1.147  0.00  0.00    -0.440 N 
ATOM      4  C   LIG    1       -0.013   1.086   0.008  0.00  0.00    +0.270 C 
ATOM      5  C   LIG    1       -0.798   1.615   1.234  0.00  0.00    +0.090 C 
ENDROOT
BRANCH   3   6
ATOM      6  C   LIG    1       -0.015   1.626  -2.294  0.00  0.00    +0.490 A 
ATOM      7  N   LIG    1       -0.556   2.063  -3.414  0.00  0.00    -0.510 NA
ATOM      8  C   LIG    1        0.165   2.096  -4.543  0.00  0.00    +0.180 A 
ATOM      9  C   LIG    1       -0.373   2.553  -5.754  0.00  0.00    +0.030 A 
ATOM     10  C   LIG    1        0.404   2.566  -6.873  0.00  0.00    +0.070 A 
ATOM     11  C   LIG    1        1.727   2.132  -6.835  0.00  0.00    +0.000 A 
ATOM     12  C   LIG    1        2.283   1.681  -5.675  0.00  0.00    +0.070 A 
ATOM     13  C   LIG    1        1.512   1.654  -4.505  0.00  0.00    -0.190 A 
ATOM     14  C   LIG    1        2.033   1.199  -3.278  0.00  0.00    +0.400 A 
ATOM     15  N   LIG    1        1.248   1.209  -2.221  0.00  0.00    -0.550 NA
ENDBRANCH   3   6
BRANCH   5  16
ATOM     16  C   LIG    1        0.099   1.712   2.441  0.00  0.00    +0.210 A 
ATOM     17  N   LIG    1        1.192   2.421   2.521  0.00  0.00    -0.480 NA
ATOM     18  C   LIG    1        1.730   2.268   3.740  0.00  0.00    +0.150 A 
ATOM     19  C   LIG    1        0.941   1.433   4.442  0.00  0.00    +0.130 A 
ATOM     20  N   LIG    1       -0.097   1.085   3.620  0.00  0.00    -0.460 N 
ATOM     21  C   LIG    1       -1.211   0.194   3.956  0.00  0.00    +0.330 C 
ENDBRANCH   5  16
BRANCH   1  24
ATOM     22  C   LIG    1       -4.446   4.853   1.821  0.00  0.00    +0.100 C 
ATOM     23  C   LIG    1       -3.044   4.569   1.347  0.00  0.00    +0.510 C 
ATOM     24  N   LIG    1       -2.616   3.296   1.232  0.00  0.00    -0.720 N 
ATOM     25  H   LIG    1       -3.210   2.563   1.456  0.00  0.00    +0.400 HD
ATOM     26  O   LIG    1       -2.301   5.486   1.067  0.00  0.00    -0.540 OA
ENDBRANCH   1  24
TORSDOF 3
