REMARK  Name = ZINCtV00000L6ksC.0
REMARK                            x       y       z     vdW  Elec       q    Type
REMARK                         _______ _______ _______ _____ _____    ______ ____
ROOT
ATOM      1  C   LIG    1        3.448  -3.334  -0.393  0.00  0.00    +0.000 C 
ATOM      2  C   LIG    1        2.813  -4.574  -0.232  0.00  0.00    -0.110 C 
ATOM      3  S   LIG    1        1.102  -4.909  -0.460  0.00  0.00    +0.250 S 
ATOM      4  C   LIG    1        1.046  -6.619  -0.095  0.00  0.00    -0.140 C 
ATOM      5  C   LIG    1        2.205  -7.168   0.238  0.00  0.00    -0.120 C 
ATOM      6  S   LIG    1        3.578  -6.085   0.245  0.00  0.00    +0.130 S 
ENDROOT
BRANCH   1   7
ATOM      7  C   LIG    1        2.669  -2.159  -0.798  0.00  0.00    +0.350 A 
ATOM      8  N   LIG    1        1.374  -2.152  -1.035  0.00  0.00    -0.480 NA
ATOM      9  C   LIG    1        0.982  -0.901  -1.386  0.00  0.00    +0.060 A 
ATOM     10  C   LIG    1       -0.253  -0.348  -1.736  0.00  0.00    +0.070 A 
ATOM     11  C   LIG    1       -0.339   0.991  -2.050  0.00  0.00    +0.000 A 
ATOM     12  C   LIG    1        0.791   1.793  -2.024  0.00  0.00    +0.030 A 
ATOM     13  C   LIG    1        2.019   1.262  -1.681  0.00  0.00    +0.010 A 
ATOM     14  C   LIG    1        2.124  -0.082  -1.361  0.00  0.00    +0.060 A 
ATOM     15  N   LIG    1        3.179  -0.898  -0.986  0.00  0.00    -0.600 N 
ATOM     16  H   LIG    1        4.105  -0.630  -0.878  0.00  0.00    +0.420 HD
ENDBRANCH   1   7
BRANCH   5  17
ATOM     17  C   LIG    1        2.329  -8.599   0.580  0.00  0.00    -0.030 A 
ATOM     18  C   LIG    1        1.452  -9.179   1.500  0.00  0.00    +0.050 A 
ATOM     19  C   LIG    1        1.571 -10.518   1.811  0.00  0.00    +0.010 A 
ATOM     20  C   LIG    1        2.562 -11.283   1.222  0.00  0.00    +0.030 A 
ATOM     21  C   LIG    1        3.438 -10.714   0.315  0.00  0.00    +0.010 A 
ATOM     22  C   LIG    1        3.328  -9.378  -0.010  0.00  0.00    +0.030 A 
ENDBRANCH   5  17
BRANCH   4  23
ATOM     23  C   LIG    1       -0.208  -7.396  -0.149  0.00  0.00    -0.030 A 
ATOM     24  C   LIG    1       -0.250  -8.612  -0.835  0.00  0.00    +0.040 A 
ATOM     25  C   LIG    1       -1.424  -9.335  -0.876  0.00  0.00    +0.010 A 
ATOM     26  C   LIG    1       -2.560  -8.853  -0.251  0.00  0.00    +0.030 A 
ATOM     27  C   LIG    1       -2.527  -7.646   0.425  0.00  0.00    +0.010 A 
ATOM     28  C   LIG    1       -1.358  -6.915   0.480  0.00  0.00    +0.030 A 
ENDBRANCH   4  23
BRANCH   1  30
ATOM     29  N   LIG    1        5.974  -3.121   0.019  0.00  0.00    -0.390 NA
ATOM     30  C   LIG    1        4.856  -3.215  -0.163  0.00  0.00    +0.250 C 
ENDBRANCH   1  30
TORSDOF 4
