REMARK  Name = ZINCkj000005knOn.0
REMARK                            x       y       z     vdW  Elec       q    Type
REMARK                         _______ _______ _______ _____ _____    ______ ____
ROOT
ATOM      1  N   LIG    1       -2.096   1.433   1.299  0.00  0.00    -1.110 NA
ATOM      2  H   LIG    1       -2.492   1.062   0.495  0.00  0.00    +0.420 HD
ENDROOT
BRANCH   1   3
ATOM      3  S   LIG    1       -2.974   1.500   2.701  0.00  0.00    +2.690 S 
ATOM      4  O   LIG    1       -2.142   0.967   3.722  0.00  0.00    -0.930 OA
ATOM      5  O   LIG    1       -4.259   0.976   2.395  0.00  0.00    -0.940 OA
BRANCH   3  11
ATOM      6  C   LIG    1       -6.053   5.670   3.372  0.00  0.00    +0.110 C 
ATOM      7  C   LIG    1       -4.666   5.080   3.383  0.00  0.00    -0.090 A 
ATOM      8  C   LIG    1       -3.580   5.874   3.698  0.00  0.00    +0.100 A 
ATOM      9  C   LIG    1       -2.308   5.334   3.709  0.00  0.00    +0.030 A 
ATOM     10  C   LIG    1       -2.123   3.996   3.409  0.00  0.00    +0.030 A 
ATOM     11  C   LIG    1       -3.210   3.202   3.089  0.00  0.00    -0.670 A 
ATOM     12 CL   LIG    1       -0.526   3.314   3.429  0.00  0.00    -0.050 Cl
ATOM     13  C   LIG    1       -4.481   3.744   3.079  0.00  0.00    +0.150 A 
ENDBRANCH   3  11
ENDBRANCH   1   3
BRANCH   1  14
ATOM     14  C   LIG    1       -0.720   1.935   1.272  0.00  0.00    +0.330 C 
BRANCH  14  15
ATOM     15  C   LIG    1       -0.017   1.431   0.010  0.00  0.00    +0.160 C 
ATOM     16  C   LIG    1        1.419   1.900  -0.001  0.00  0.00    +0.260 C 
ATOM     17  N   LIG    1        1.889   2.184  -1.367  0.00  0.00    -0.510 N 
ATOM     18  C   LIG    1        1.429   1.178  -2.348  0.00  0.00    +0.260 C 
ATOM     19  C   LIG    1        1.522  -0.241  -1.839  0.00  0.00    +0.030 C 
ATOM     20  C   LIG    1        0.168  -0.633  -1.198  0.00  0.00    +0.240 C 
ATOM     21  H   LIG    1        1.546   3.092  -1.646  0.00  0.00    +0.430 HD
ATOM     22  H   LIG    1        2.898   2.203  -1.368  0.00  0.00    +0.430 HD
ATOM     23  O   LIG    1        0.002  -0.004   0.002  0.00  0.00    -0.350 OA
ENDBRANCH  14  15
ENDBRANCH   1  14
TORSDOF 4
