REMARK  Name = ZINCrH00000tj1o8.0
REMARK                            x       y       z     vdW  Elec       q    Type
REMARK                         _______ _______ _______ _____ _____    ______ ____
ROOT
ATOM      1  N   LIG    1       -1.696  -1.292   1.298  0.00  0.00    -0.600 N 
ATOM      2  C   LIG    1       -2.579  -0.577   2.022  0.00  0.00    +0.570 C 
ATOM      3  O   LIG    1       -2.788   0.589   1.746  0.00  0.00    -0.500 OA
ENDROOT
BRANCH   2   4
ATOM      4  C   LIG    1       -3.292  -1.208   3.149  0.00  0.00    -0.110 A 
ATOM      5  C   LIG    1       -4.675  -1.056   3.277  0.00  0.00    +0.120 A 
ATOM      6  C   LIG    1       -5.339  -1.646   4.331  0.00  0.00    -0.030 A 
ATOM      7  C   LIG    1       -4.637  -2.393   5.269  0.00  0.00    +0.070 A 
ATOM      8  O   LIG    1       -5.053  -3.063   6.381  0.00  0.00    -0.290 OA
ATOM      9  C   LIG    1       -3.982  -3.968   6.709  0.00  0.00    +0.440 C 
ATOM     10  O   LIG    1       -2.811  -3.317   6.184  0.00  0.00    -0.300 OA
ATOM     11  C   LIG    1       -3.256  -2.548   5.147  0.00  0.00    +0.040 A 
ATOM     12 CL   LIG    1       -7.057  -1.455   4.487  0.00  0.00    -0.040 Cl
ATOM     13  C   LIG    1       -2.586  -1.964   4.089  0.00  0.00    +0.080 A 
ENDBRANCH   2   4
BRANCH   1  14
ATOM     14  C   LIG    1       -1.342  -2.653   1.710  0.00  0.00    +0.280 C 
BRANCH  14  16
ATOM     15  C   LIG    1        0.280  -4.020   3.030  0.00  0.00    +0.030 C 
ATOM     16  C   LIG    1       -0.017  -2.626   2.475  0.00  0.00    -0.010 C 
ENDBRANCH  14  16
ENDBRANCH   1  14
BRANCH   1  17
ATOM     17  C   LIG    1       -1.090  -0.710   0.098  0.00  0.00    +0.470 C 
BRANCH  17  18
ATOM     18  C   LIG    1        0.182   0.005   0.474  0.00  0.00    +0.150 A 
ATOM     19  N   LIG    1        1.376  -0.516   0.511  0.00  0.00    -0.260 NA
ATOM     20  N   LIG    1        2.227   0.378   0.873  0.00  0.00    -0.260 NA
ATOM     21  C   LIG    1        1.598   1.514   1.082  0.00  0.00    +0.250 A 
ATOM     22  O   LIG    1        0.290   1.297   0.833  0.00  0.00    -0.200 OA
BRANCH  21  23
ATOM     23  C   LIG    1        2.206   2.784   1.508  0.00  0.00    +0.030 A 
ATOM     24  C   LIG    1        3.530   2.993   1.757  0.00  0.00    +0.060 A 
ATOM     25  C   LIG    1        3.662   4.342   2.134  0.00  0.00    -0.060 A 
ATOM     26  C   LIG    1        2.429   4.887   2.098  0.00  0.00    +0.230 A 
ATOM     27  O   LIG    1        1.553   3.945   1.713  0.00  0.00    -0.160 OA
ENDBRANCH  21  23
ENDBRANCH  17  18
ENDBRANCH   1  17
TORSDOF 6
