REMARK  Name = ZINCpe000000RDWh.0
REMARK                            x       y       z     vdW  Elec       q    Type
REMARK                         _______ _______ _______ _____ _____    ______ ____
ROOT
ATOM      1  N   LIG    1       -2.219   1.522  -3.503  0.00  0.00    -0.520 NA
ATOM      2  C   LIG    1       -0.876   2.103  -3.359  0.00  0.00    +0.190 C 
ATOM      3  C   LIG    1       -0.262   1.638  -2.037  0.00  0.00    +0.190 C 
ATOM      4  N   LIG    1       -1.131   2.047  -0.925  0.00  0.00    -0.520 NA
ATOM      5  C   LIG    1       -2.474   1.467  -1.069  0.00  0.00    +0.200 C 
ATOM      6  C   LIG    1       -3.088   1.932  -2.391  0.00  0.00    +0.190 C 
ENDROOT
BRANCH   1   7
ATOM      7  C   LIG    1       -2.813   1.884  -4.797  0.00  0.00    +0.220 C 
BRANCH   7   9
ATOM      8  O   LIG    1       -4.435   0.287  -4.175  0.00  0.00    -0.490 OA
ATOM      9  C   LIG    1       -4.070   1.082  -5.015  0.00  0.00    +0.520 C 
ATOM     10  N   LIG    1       -4.788   1.248  -6.143  0.00  0.00    -0.680 N 
ATOM     11  H   LIG    1       -4.540   1.937  -6.779  0.00  0.00    +0.420 HD
BRANCH  10  12
ATOM     12  C   LIG    1       -5.892   0.426  -6.396  0.00  0.00    +0.210 A 
ATOM     13  C   LIG    1       -5.887  -0.896  -5.972  0.00  0.00    -0.010 A 
ATOM     14  C   LIG    1       -6.981  -1.705  -6.220  0.00  0.00    +0.150 A 
ATOM     15  C   LIG    1       -8.078  -1.200  -6.899  0.00  0.00    -0.060 A 
ATOM     16  C   LIG    1       -8.083   0.117  -7.327  0.00  0.00    +0.150 A 
ATOM     17  F   LIG    1       -9.153   0.607  -7.990  0.00  0.00    -0.130 F 
ATOM     18  F   LIG    1       -6.979  -2.990  -5.803  0.00  0.00    -0.130 F 
ATOM     19  C   LIG    1       -6.992   0.931  -7.077  0.00  0.00    -0.050 A 
ENDBRANCH  10  12
ENDBRANCH   7   9
ENDBRANCH   1   7
BRANCH   4  20
ATOM     20  C   LIG    1       -0.537   1.685   0.369  0.00  0.00    +0.220 C 
BRANCH  20  21
ATOM     21  C   LIG    1       -1.324   2.330   1.481  0.00  0.00    +0.520 C 
ATOM     22  N   LIG    1       -0.960   2.136   2.764  0.00  0.00    -0.710 N 
ATOM     23  H   LIG    1       -0.191   1.582   2.972  0.00  0.00    +0.400 HD
ATOM     24  O   LIG    1       -2.285   3.023   1.221  0.00  0.00    -0.520 OA
BRANCH  22  25
ATOM     25  C   LIG    1       -1.724   2.763   3.845  0.00  0.00    +0.220 C 
ATOM     26  C   LIG    1       -0.936   3.416   4.982  0.00  0.00    +0.010 C 
ATOM     27  C   LIG    1       -1.677   2.098   5.222  0.00  0.00    +0.010 C 
ENDBRANCH  22  25
ENDBRANCH  20  21
ENDBRANCH   4  20
TORSDOF 6
