REMARK  Name = ZINCvU0000000EYS.0
REMARK                            x       y       z     vdW  Elec       q    Type
REMARK                         _______ _______ _______ _____ _____    ______ ____
ROOT
ATOM      1  N   LIG    1       -1.259   8.548  -0.253  0.00  0.00    -0.730 N 
ATOM      2  H   LIG    1       -2.067   8.161   0.117  0.00  0.00    +0.410 HD
ENDROOT
BRANCH   1   3
ATOM      3  C   LIG    1       -1.302   9.804  -0.864  0.00  0.00    +0.220 A 
ATOM      4  C   LIG    1       -0.143  10.362  -1.389  0.00  0.00    -0.080 A 
ATOM      5  C   LIG    1       -0.190  11.601  -1.997  0.00  0.00    +0.070 A 
ATOM      6  C   LIG    1       -1.387  12.291  -2.072  0.00  0.00    -0.150 A 
ATOM      7  C   LIG    1       -2.540  11.741  -1.545  0.00  0.00    +0.060 A 
ATOM      8  C   LIG    1       -2.502  10.499  -0.941  0.00  0.00    -0.070 A 
BRANCH   6   9
ATOM      9  C   LIG    1       -1.433  13.646  -2.731  0.00  0.00    +0.200 C 
BRANCH   9  10
ATOM     10  C   LIG    1       -1.172  14.714  -1.701  0.00  0.00    +0.110 A 
ATOM     11  N   LIG    1       -0.010  15.160  -1.405  0.00  0.00    -0.470 NA
ATOM     12  C   LIG    1        0.075  16.121  -0.465  0.00  0.00    +0.080 A 
ATOM     13  C   LIG    1        1.209  16.784   0.044  0.00  0.00    +0.060 A 
ATOM     14  C   LIG    1        1.075  17.735   1.011  0.00  0.00    +0.030 A 
ATOM     15  C   LIG    1       -0.175  18.069   1.510  0.00  0.00    +0.040 A 
ATOM     16  C   LIG    1       -1.301  17.438   1.031  0.00  0.00    +0.060 A 
ATOM     17  C   LIG    1       -1.184  16.463   0.043  0.00  0.00    -0.190 A 
ATOM     18  S   LIG    1       -2.389  15.477  -0.780  0.00  0.00    +0.100 S 
ENDBRANCH   9  10
ENDBRANCH   6   9
ENDBRANCH   1   3
BRANCH   1  20
ATOM     19  C   LIG    1        0.787   8.280   1.060  0.00  0.00    +0.050 C 
ATOM     20  C   LIG    1        0.008   7.816  -0.172  0.00  0.00    +0.250 C 
BRANCH  20  21
ATOM     21  C   LIG    1       -0.272   6.339  -0.063  0.00  0.00    +0.510 C 
ATOM     22  N   LIG    1        0.750   5.465   0.024  0.00  0.00    -0.670 N 
ATOM     23  H   LIG    1        1.661   5.789   0.094  0.00  0.00    +0.420 HD
ATOM     24  O   LIG    1       -1.417   5.938  -0.054  0.00  0.00    -0.510 OA
BRANCH  22  25
ATOM     25  C   LIG    1        0.495   4.087   0.014  0.00  0.00    +0.160 A 
ATOM     26  C   LIG    1        1.301   3.227   0.746  0.00  0.00    +0.010 A 
ATOM     27  C   LIG    1        1.048   1.868   0.742  0.00  0.00    +0.060 A 
ATOM     28  C   LIG    1       -0.004   1.360  -0.002  0.00  0.00    +0.020 A 
ATOM     29  O   LIG    1       -0.455   0.082  -0.175  0.00  0.00    -0.310 OA
ATOM     30  C   LIG    1       -1.293   0.125  -1.345  0.00  0.00    +0.430 C 
ATOM     31  O   LIG    1       -1.773   1.483  -1.372  0.00  0.00    -0.310 OA
ATOM     32  C   LIG    1       -0.815   2.221  -0.738  0.00  0.00    +0.050 A 
ATOM     33  C   LIG    1       -0.564   3.582  -0.729  0.00  0.00    +0.050 A 
ENDBRANCH  22  25
ENDBRANCH  20  21
ENDBRANCH   1  20
TORSDOF 6
