REMARK  Name = ZINCpe00000gLR6p.0
REMARK                            x       y       z     vdW  Elec       q    Type
REMARK                         _______ _______ _______ _____ _____    ______ ____
ROOT
ATOM      1  C   LIG    1       -2.811  -2.782  -2.846  0.00  0.00    +0.170 C 
ATOM      2  C   LIG    1       -3.587  -4.114  -2.916  0.00  0.00    +0.010 C 
ATOM      3  C   LIG    1       -2.912  -4.851  -4.103  0.00  0.00    +0.180 C 
ATOM      4  C   LIG    1       -1.435  -4.409  -3.946  0.00  0.00    +0.170 C 
ATOM      5  F   LIG    1       -3.037  -6.237  -3.969  0.00  0.00    -0.210 F 
ATOM      6  N   LIG    1       -1.508  -3.001  -3.500  0.00  0.00    -0.510 NA
ENDROOT
BRANCH   1   7
ATOM      7  C   LIG    1       -2.600  -2.379  -1.386  0.00  0.00    +0.180 C 
BRANCH   7   8
ATOM      8  N   LIG    1       -1.895  -1.091  -1.330  0.00  0.00    -0.520 NA
ATOM      9  C   LIG    1       -2.729  -0.011  -1.874  0.00  0.00    +0.200 C 
BRANCH   8  10
ATOM     10  C   LIG    1       -1.465  -0.785   0.040  0.00  0.00    +0.320 C 
BRANCH  10  15
ATOM     11  N   LIG    1       -0.897   1.700   0.132  0.00  0.00    -0.300 N 
ATOM     12  N   LIG    1        0.186   2.398   0.070  0.00  0.00    -0.090 NA
ATOM     13  N   LIG    1        1.186   1.600  -0.072  0.00  0.00    -0.070 NA
ATOM     14  N   LIG    1        0.763   0.384  -0.103  0.00  0.00    -0.280 NA
ATOM     15  C   LIG    1       -0.542   0.406   0.023  0.00  0.00    +0.190 A 
BRANCH  11  16
ATOM     16  C   LIG    1       -2.259   2.218   0.287  0.00  0.00    +0.330 C 
BRANCH  16  18
ATOM     17  C   LIG    1       -4.024   2.855   1.936  0.00  0.00    +0.040 C 
ATOM     18  C   LIG    1       -2.602   2.313   1.775  0.00  0.00    +0.010 C 
ENDBRANCH  16  18
ENDBRANCH  11  16
ENDBRANCH  10  15
ENDBRANCH   8  10
ENDBRANCH   7   8
ENDBRANCH   1   7
BRANCH   6  19
ATOM     19  C   LIG    1       -0.401  -2.681  -2.588  0.00  0.00    +0.290 C 
BRANCH  19  20
ATOM     20  C   LIG    1        0.904  -3.089  -3.220  0.00  0.00    -0.230 A 
ATOM     21  C   LIG    1        1.508  -4.293  -3.093  0.00  0.00    +0.210 A 
ATOM     22  N   LIG    1        2.651  -4.258  -3.811  0.00  0.00    -0.380 N 
ATOM     23  N   LIG    1        2.756  -2.987  -4.391  0.00  0.00    -0.300 NA
ATOM     24  C   LIG    1        3.613  -5.354  -3.954  0.00  0.00    +0.350 C 
ATOM     25  C   LIG    1        1.710  -2.287  -4.036  0.00  0.00    +0.250 A 
ENDBRANCH  19  20
ENDBRANCH   6  19
TORSDOF 8
