REMARK  Name = ZINCrD0000073kWz.0
REMARK                            x       y       z     vdW  Elec       q    Type
REMARK                         _______ _______ _______ _____ _____    ______ ____
ROOT
ATOM      1  C   LIG    1       -2.486   1.004   0.020  0.00  0.00    +0.510 C 
ATOM      2  O   LIG    1       -3.546   1.597   0.028  0.00  0.00    -0.480 OA
ENDROOT
BRANCH   1  12
ATOM      3  C   LIG    1       -1.243   3.169   0.030  0.00  0.00    +0.190 A 
ATOM      4  C   LIG    1       -0.082   3.884   0.023  0.00  0.00    -0.090 A 
ATOM      5  C   LIG    1        1.155   3.217   0.008  0.00  0.00    +0.020 A 
ATOM      6  C   LIG    1        2.363   3.934   0.001  0.00  0.00    +0.000 A 
ATOM      7  C   LIG    1        3.547   3.261  -0.015  0.00  0.00    +0.040 A 
ATOM      8  C   LIG    1        3.581   1.868  -0.022  0.00  0.00    +0.000 A 
ATOM      9  C   LIG    1        2.432   1.139  -0.015  0.00  0.00    +0.050 A 
ATOM     10  C   LIG    1        1.189   1.798   0.000  0.00  0.00    -0.100 A 
ATOM     11  C   LIG    1       -0.013   1.076   0.008  0.00  0.00    +0.170 A 
ATOM     12  C   LIG    1       -1.219   1.757   0.017  0.00  0.00    -0.150 A 
BRANCH   3  14
ATOM     13  C   LIG    1       -2.391   5.249   0.052  0.00  0.00    +0.240 C 
ATOM     14  O   LIG    1       -2.433   3.821   0.045  0.00  0.00    -0.290 OA
ENDBRANCH   3  14
ENDBRANCH   1  12
BRANCH   1  15
ATOM     15  O   LIG    1       -2.469  -0.344   0.013  0.00  0.00    -0.330 OA
BRANCH  15  16
ATOM     16  C   LIG    1       -3.754  -1.020   0.016  0.00  0.00    +0.250 C 
BRANCH  16  17
ATOM     17  C   LIG    1       -3.537  -2.511   0.007  0.00  0.00    +0.520 C 
ATOM     18  N   LIG    1       -4.595  -3.346   0.008  0.00  0.00    -0.730 N 
ATOM     19  H   LIG    1       -5.496  -2.987   0.014  0.00  0.00    +0.400 HD
ATOM     20  O   LIG    1       -2.410  -2.960  -0.001  0.00  0.00    -0.510 OA
BRANCH  18  21
ATOM     21  C   LIG    1       -4.384  -4.796  -0.001  0.00  0.00    +0.270 C 
BRANCH  21  22
ATOM     22  C   LIG    1       -5.738  -5.508   0.003  0.00  0.00    +0.070 C 
BRANCH  22  23
ATOM     23  C   LIG    1       -5.521  -6.999  -0.006  0.00  0.00    -0.090 A 
ATOM     24  C   LIG    1       -5.433  -7.678  -1.207  0.00  0.00    +0.010 A 
ATOM     25  C   LIG    1       -5.230  -9.045  -1.215  0.00  0.00    +0.000 A 
ATOM     26  C   LIG    1       -5.124  -9.735  -0.022  0.00  0.00    +0.000 A 
ATOM     27  C   LIG    1       -5.218  -9.057   1.179  0.00  0.00    +0.000 A 
ATOM     28  C   LIG    1       -5.416  -7.689   1.187  0.00  0.00    +0.010 A 
ENDBRANCH  22  23
ENDBRANCH  21  22
ENDBRANCH  18  21
ENDBRANCH  16  17
ENDBRANCH  15  16
ENDBRANCH   1  15
TORSDOF 8
