REMARK  Name = ZINCkj000005lqHO.0
REMARK                            x       y       z     vdW  Elec       q    Type
REMARK                         _______ _______ _______ _____ _____    ______ ____
ROOT
ATOM      1  C   LIG    1       -0.921   5.891  -1.147  0.00  0.00    +0.170 C 
ATOM      2  C   LIG    1       -1.373   7.266  -0.596  0.00  0.00    +0.290 C 
ATOM      3  N   LIG    1       -1.614   7.036   0.840  0.00  0.00    -0.620 N 
ATOM      4  C   LIG    1       -0.820   5.876   1.272  0.00  0.00    +0.290 C 
ATOM      5  C   LIG    1       -2.426   7.769   1.628  0.00  0.00    +0.540 C 
ATOM      6  O   LIG    1       -2.548   7.488   2.801  0.00  0.00    -0.500 OA
ATOM      7  C   LIG    1       -0.070   5.347   0.031  0.00  0.00    +0.060 C 
ENDROOT
BRANCH   5   8
ATOM      8  C   LIG    1       -3.183   8.937   1.050  0.00  0.00    -0.010 C 
ATOM      9  C   LIG    1       -2.192   9.966   0.498  0.00  0.00    +0.000 C 
ATOM     10  C   LIG    1       -2.966  11.184  -0.015  0.00  0.00    +0.210 C 
ATOM     11  O   LIG    1       -3.753  11.728   1.046  0.00  0.00    -0.380 OA
ATOM     12  C   LIG    1       -4.729  10.826   1.571  0.00  0.00    +0.220 C 
ATOM     13  C   LIG    1       -4.026   9.594   2.147  0.00  0.00    +0.030 C 
ENDBRANCH   5   8
BRANCH   7  14
ATOM     14  C   LIG    1       -0.050   3.840   0.022  0.00  0.00    -0.120 A 
ATOM     15  C   LIG    1        1.156   3.165   0.008  0.00  0.00    +0.020 A 
ATOM     16  C   LIG    1        1.175   1.783   0.000  0.00  0.00    +0.020 A 
ATOM     17  C   LIG    1       -0.013   1.076   0.008  0.00  0.00    +0.030 A 
ATOM     18  C   LIG    1       -1.219   1.751   0.017  0.00  0.00    +0.020 A 
ATOM     19  C   LIG    1       -1.238   3.133   0.029  0.00  0.00    +0.010 A 
ENDBRANCH   7  14
BRANCH   1  20
ATOM     20  N   LIG    1       -0.103   6.052  -2.357  0.00  0.00    -0.630 N 
ATOM     21  H   LIG    1        0.646   6.701  -2.172  0.00  0.00    +0.440 HD
ATOM     22  H   LIG    1       -0.678   6.406  -3.107  0.00  0.00    +0.440 HD
ATOM     23  H   LIG    1        0.283   5.158  -2.623  0.00  0.00    +0.440 HD
ENDBRANCH   1  20
TORSDOF 3
