REMARK  Name = ZINCfA000000Jm6N.0
REMARK                            x       y       z     vdW  Elec       q    Type
REMARK                         _______ _______ _______ _____ _____    ______ ____
ROOT
ATOM      1  C   LIG    1       -3.485  -0.656  -1.224  0.00  0.00    +0.220 C 
ENDROOT
BRANCH   1   2
ATOM      2  C   LIG    1       -2.050  -0.126  -1.234  0.00  0.00    +0.300 C 
BRANCH   2   3
ATOM      3  N   LIG    1       -1.376  -0.512   0.012  0.00  0.00    -0.510 N 
ATOM      4  H   LIG    1       -1.873  -0.121   0.799  0.00  0.00    +0.430 HD
ATOM      5  H   LIG    1       -1.363  -1.518   0.090  0.00  0.00    +0.430 HD
BRANCH   3   6
ATOM      6  C   LIG    1        0.002  -0.004   0.002  0.00  0.00    +0.170 C 
ATOM      7  C   LIG    1       -0.019   1.526   0.010  0.00  0.00    +0.080 C 
BRANCH   6   9
ATOM      8  C   LIG    1        0.872  -2.034   1.171  0.00  0.00    +0.030 C 
ATOM      9  C   LIG    1        0.742  -0.511   1.242  0.00  0.00    +0.050 C 
ENDBRANCH   6   9
ENDBRANCH   3   6
ENDBRANCH   2   3
ENDBRANCH   1   2
BRANCH   1  10
ATOM     10  O   LIG    1       -4.222  -0.014  -0.181  0.00  0.00    -0.320 OA
BRANCH  10  11
ATOM     11  C   LIG    1       -5.524  -0.373  -0.034  0.00  0.00    +0.150 A 
ATOM     12  C   LIG    1       -6.082  -1.324  -0.876  0.00  0.00    -0.060 A 
ATOM     13  C   LIG    1       -7.406  -1.689  -0.724  0.00  0.00    +0.080 A 
ATOM     14  C   LIG    1       -8.176  -1.106   0.265  0.00  0.00    +0.000 A 
ATOM     15  C   LIG    1       -7.623  -0.157   1.106  0.00  0.00    +0.090 A 
ATOM     16  C   LIG    1       -6.298   0.206   0.963  0.00  0.00    -0.130 A 
ATOM     17  I   LIG    1       -5.458   1.637   2.242  0.00  0.00    -0.020 I 
ENDBRANCH  10  11
ENDBRANCH   1  10
TORSDOF 6
