REMARK  Name = ZINCrD00000hQ5KK.0
REMARK                            x       y       z     vdW  Elec       q    Type
REMARK                         _______ _______ _______ _____ _____    ______ ____
ROOT
ATOM      1  C   LIG    1       -2.946   3.170  -0.359  0.00  0.00    -0.020 C 
ATOM      2  C   LIG    1       -2.918   2.586   1.056  0.00  0.00    +0.030 C 
ATOM      3  C   LIG    1       -2.751   1.066   0.982  0.00  0.00    +0.020 C 
ATOM      4  C   LIG    1       -1.423   0.736   0.292  0.00  0.00    +0.260 C 
ATOM      5  N   LIG    1       -1.382   1.414  -1.010  0.00  0.00    -0.610 N 
ATOM      6  C   LIG    1       -1.132   0.720  -2.138  0.00  0.00    +0.600 C 
ATOM      7  O   LIG    1       -1.212   1.269  -3.221  0.00  0.00    -0.540 OA
ATOM      8  C   LIG    1       -1.619   2.863  -1.060  0.00  0.00    +0.280 C 
ENDROOT
BRANCH   6   9
ATOM      9  C   LIG    1       -0.760  -0.705  -2.060  0.00  0.00    -0.280 A 
ATOM     10  C   LIG    1       -1.016  -1.672  -3.012  0.00  0.00    +0.320 A 
ATOM     11  N   LIG    1       -0.512  -2.831  -2.551  0.00  0.00    -0.310 N 
ATOM     12  N   LIG    1        0.066  -2.597  -1.299  0.00  0.00    -0.280 NA
ATOM     13  C   LIG    1       -0.070  -1.334  -1.000  0.00  0.00    +0.290 A 
BRANCH  11  14
ATOM     14  C   LIG    1       -0.560  -4.066  -3.214  0.00  0.00    +0.150 A 
ATOM     15  C   LIG    1       -1.173  -4.165  -4.456  0.00  0.00    +0.020 A 
ATOM     16  C   LIG    1       -1.214  -5.381  -5.109  0.00  0.00    +0.070 A 
ATOM     17  C   LIG    1       -0.655  -6.503  -4.521  0.00  0.00    -0.040 A 
ATOM     18  C   LIG    1       -0.049  -6.407  -3.281  0.00  0.00    +0.060 A 
ATOM     19 CL   LIG    1       -0.714  -8.031  -5.342  0.00  0.00    -0.060 Cl
ATOM     20  C   LIG    1       -0.000  -5.192  -2.626  0.00  0.00    +0.050 A 
ENDBRANCH  11  14
ENDBRANCH   6   9
BRANCH   1  21
ATOM     21  C   LIG    1       -3.144   4.685  -0.282  0.00  0.00    +0.180 C 
BRANCH  21  25
ATOM     22  C   LIG    1       -5.034   6.275  -4.638  0.00  0.00    +0.240 C 
ATOM     23  C   LIG    1       -4.103   5.913  -3.510  0.00  0.00    +0.180 A 
ATOM     24  N   LIG    1       -4.441   5.396  -2.353  0.00  0.00    -0.480 NA
ATOM     25  C   LIG    1       -3.291   5.244  -1.673  0.00  0.00    +0.170 A 
ATOM     26  N   LIG    1       -2.329   5.673  -2.435  0.00  0.00    -0.380 NA
ATOM     27  O   LIG    1       -2.774   6.056  -3.497  0.00  0.00    +0.080 OA
ENDBRANCH  21  25
ENDBRANCH   1  21
TORSDOF 4
