REMARK  Name = ZINCkj000005iUct.0
REMARK                            x       y       z     vdW  Elec       q    Type
REMARK                         _______ _______ _______ _____ _____    ______ ____
ROOT
ATOM      1  C   LIG    1       -2.502   1.008   0.019  0.00  0.00    +0.570 C 
ATOM      2  N   LIG    1       -2.492  -0.336  -0.090  0.00  0.00    -0.610 N 
ATOM      3  C   LIG    1       -1.223  -1.076  -0.102  0.00  0.00    +0.280 C 
ATOM      4  C   LIG    1       -1.274  -2.159   0.981  0.00  0.00    +0.060 C 
ATOM      5  C   LIG    1       -2.513  -3.032   0.766  0.00  0.00    +0.050 C 
ATOM      6  C   LIG    1       -3.772  -2.171   0.884  0.00  0.00    +0.160 C 
ATOM      7  C   LIG    1       -3.750  -1.088  -0.193  0.00  0.00    +0.300 C 
ATOM      8  O   LIG    1       -3.558   1.600   0.133  0.00  0.00    -0.500 OA
ENDROOT
BRANCH   1  13
ATOM      9  C   LIG    1        0.853   2.298  -1.065  0.00  0.00    -0.660 A 
ATOM     10  C   LIG    1        1.150   3.175  -0.036  0.00  0.00    +0.180 A 
ATOM     11  C   LIG    1        0.265   3.347   1.012  0.00  0.00    +0.030 A 
ATOM     12  C   LIG    1       -0.923   2.643   1.039  0.00  0.00    +0.050 A 
ATOM     13  C   LIG    1       -1.231   1.760   0.001  0.00  0.00    -0.150 A 
ATOM     14 CL   LIG    1       -2.033   2.860   2.356  0.00  0.00    -0.030 Cl
ATOM     15  C   LIG    1       -0.329   1.588  -1.051  0.00  0.00    +0.180 A 
BRANCH   9  17
ATOM     16  C   LIG    1        1.491   3.331  -3.617  0.00  0.00    -0.240 C 
ATOM     17  S   LIG    1        1.989   2.087  -2.395  0.00  0.00    +2.500 S 
ATOM     18  O   LIG    1        1.722   0.778  -2.879  0.00  0.00    -0.930 OA
ATOM     19  O   LIG    1        3.252   2.417  -1.834  0.00  0.00    -0.920 OA
ENDBRANCH   9  17
ENDBRANCH   1  13
BRANCH   6  20
ATOM     20  N   LIG    1       -4.962  -3.015   0.710  0.00  0.00    -0.630 N 
ATOM     21  H   LIG    1       -4.936  -3.448  -0.201  0.00  0.00    +0.440 HD
ATOM     22  H   LIG    1       -5.792  -2.447   0.788  0.00  0.00    +0.440 HD
ATOM     23  H   LIG    1       -4.975  -3.729   1.422  0.00  0.00    +0.440 HD
ENDBRANCH   6  20
TORSDOF 3
