REMARK  Name = ZINCrD000000C3xe.0
REMARK                            x       y       z     vdW  Elec       q    Type
REMARK                         _______ _______ _______ _____ _____    ______ ____
ROOT
ATOM      1  O   LIG    1       -2.388   0.046  -0.881  0.00  0.00    -0.550 OA
ATOM      2  C   LIG    1       -1.948   0.995  -1.501  0.00  0.00    +0.700 C 
ATOM      3  N   LIG    1       -0.872   1.662  -1.038  0.00  0.00    -0.730 N 
ATOM      4  H   LIG    1       -0.520   2.419  -1.532  0.00  0.00    +0.400 HD
ATOM      5  N   LIG    1       -2.535   1.380  -2.651  0.00  0.00    -0.680 N 
ATOM      6  H   LIG    1       -2.233   2.182  -3.105  0.00  0.00    +0.410 HD
ENDROOT
BRANCH   5   7
ATOM      7  C   LIG    1       -3.581   0.623  -3.190  0.00  0.00    +0.160 A 
ATOM      8  C   LIG    1       -3.593  -0.757  -3.036  0.00  0.00    +0.020 A 
ATOM      9  C   LIG    1       -4.630  -1.499  -3.565  0.00  0.00    +0.030 A 
ATOM     10  C   LIG    1       -5.654  -0.874  -4.259  0.00  0.00    -0.110 A 
ATOM     11  C   LIG    1       -6.880  -1.456  -4.929  0.00  0.00    +0.070 C 
ATOM     12  C   LIG    1       -7.381  -0.351  -5.883  0.00  0.00    +0.030 C 
ATOM     13  C   LIG    1       -6.859   0.934  -5.206  0.00  0.00    +0.080 C 
ATOM     14  C   LIG    1       -5.642   0.500  -4.418  0.00  0.00    -0.080 A 
ATOM     15  C   LIG    1       -4.607   1.248  -3.884  0.00  0.00    -0.010 A 
ENDBRANCH   5   7
BRANCH   3  16
ATOM     16  C   LIG    1       -0.233   1.243   0.213  0.00  0.00    +0.270 C 
ATOM     17  C   LIG    1        1.238   1.720   0.255  0.00  0.00    +0.080 C 
ATOM     18  C   LIG    1        1.113   3.060   1.013  0.00  0.00    +0.270 C 
ATOM     19  N   LIG    1       -0.102   2.938   1.827  0.00  0.00    -0.580 N 
ATOM     20  C   LIG    1       -0.879   1.929   1.396  0.00  0.00    +0.510 C 
ATOM     21  O   LIG    1       -1.943   1.614   1.885  0.00  0.00    -0.490 OA
BRANCH  19  22
ATOM     22  C   LIG    1       -0.412   3.767   2.914  0.00  0.00    +0.070 A 
ATOM     23  C   LIG    1        0.000   3.419   4.195  0.00  0.00    +0.140 A 
ATOM     24  C   LIG    1       -0.304   4.242   5.264  0.00  0.00    -0.010 A 
ATOM     25  C   LIG    1       -1.026   5.404   5.062  0.00  0.00    +0.100 A 
ATOM     26  C   LIG    1       -1.443   5.750   3.790  0.00  0.00    -0.010 A 
ATOM     27  F   LIG    1        0.701   2.282   4.394  0.00  0.00    -0.120 F 
ATOM     28  C   LIG    1       -1.138   4.935   2.715  0.00  0.00    +0.140 A 
ATOM     29  F   LIG    1       -1.546   5.274   1.472  0.00  0.00    -0.120 F 
ENDBRANCH  19  22
ENDBRANCH   3  16
TORSDOF 3
