REMARK  Name = ZINCpk00000K6jPY.0
REMARK                            x       y       z     vdW  Elec       q    Type
REMARK                         _______ _______ _______ _____ _____    ______ ____
ROOT
ATOM      1  C   LIG    1       -0.713   1.580  -1.216  0.00  0.00    +0.030 C 
ATOM      2  C   LIG    1        0.023   1.082   0.030  0.00  0.00    +0.230 C 
ATOM      3  C   LIG    1        1.455   1.625   0.031  0.00  0.00    +0.020 C 
ATOM      4  C   LIG    1        1.419   3.148   0.171  0.00  0.00    +0.060 C 
ATOM      5  C   LIG    1        0.758   3.524   1.500  0.00  0.00    -0.020 C 
ATOM      6  C   LIG    1       -0.682   3.003   1.515  0.00  0.00    +0.290 C 
ATOM      7  N   LIG    1       -0.665   1.560   1.236  0.00  0.00    -0.610 N 
ATOM      8  C   LIG    1       -1.270   0.693   2.071  0.00  0.00    +0.520 C 
ATOM      9  O   LIG    1       -1.250  -0.496   1.830  0.00  0.00    -0.520 OA
ENDROOT
BRANCH   5  10
ATOM     10  C   LIG    1        0.752   5.024   1.652  0.00  0.00    +0.520 C 
ATOM     11  O   LIG    1        1.229   5.723   0.783  0.00  0.00    -0.530 OA
ATOM     12  N   LIG    1        0.217   5.587   2.753  0.00  0.00    -0.860 N 
ATOM     13  H   LIG    1        0.213   6.552   2.850  0.00  0.00    +0.400 HD
ATOM     14  H   LIG    1       -0.165   5.028   3.447  0.00  0.00    +0.400 HD
ENDBRANCH   5  10
BRANCH   8  15
ATOM     15  C   LIG    1       -1.972   1.199   3.305  0.00  0.00    +0.100 C 
BRANCH  15  16
ATOM     16  C   LIG    1       -2.561   0.036   4.061  0.00  0.00    -0.100 A 
ATOM     17  C   LIG    1       -3.850  -0.384   3.788  0.00  0.00    +0.050 A 
ATOM     18  C   LIG    1       -4.390  -1.452   4.476  0.00  0.00    +0.000 A 
ATOM     19  C   LIG    1       -3.641  -2.099   5.451  0.00  0.00    +0.170 A 
ATOM     20  C   LIG    1       -2.349  -1.671   5.727  0.00  0.00    -0.030 A 
ATOM     21  C   LIG    1       -1.813  -0.605   5.031  0.00  0.00    +0.040 A 
BRANCH  19  22
ATOM     22  N   LIG    1       -4.188  -3.178   6.154  0.00  0.00    -0.560 N 
ATOM     23  C   LIG    1       -3.444  -4.003   7.113  0.00  0.00    +0.260 C 
ATOM     24  C   LIG    1       -4.285  -5.287   7.290  0.00  0.00    +0.060 C 
ATOM     25  C   LIG    1       -5.704  -4.787   6.933  0.00  0.00    +0.070 C 
ATOM     26  C   LIG    1       -5.463  -3.589   6.042  0.00  0.00    +0.510 C 
ATOM     27  O   LIG    1       -6.298  -3.075   5.328  0.00  0.00    -0.510 OA
ENDBRANCH  19  22
ENDBRANCH  15  16
ENDBRANCH   8  15
TORSDOF 4
