REMARK  Name = ZINCpk00000ebsSv.0
REMARK                            x       y       z     vdW  Elec       q    Type
REMARK                         _______ _______ _______ _____ _____    ______ ____
ROOT
ATOM      1  O   LIG    1       -4.550  -4.549   0.034  0.00  0.00    -0.510 OA
ATOM      2  C   LIG    1       -3.490  -5.138   0.011  0.00  0.00    +0.520 C 
ATOM      3  N   LIG    1       -3.469  -6.486   0.002  0.00  0.00    -0.670 N 
ATOM      4  H   LIG    1       -2.625  -6.957  -0.084  0.00  0.00    +0.420 HD
ENDROOT
BRANCH   3   5
ATOM      5  C   LIG    1       -4.664  -7.206   0.115  0.00  0.00    +0.160 A 
ATOM      6  C   LIG    1       -4.685  -8.413   0.801  0.00  0.00    +0.020 A 
ATOM      7  C   LIG    1       -5.864  -9.121   0.917  0.00  0.00    +0.040 A 
ATOM      8  C   LIG    1       -7.028  -8.630   0.340  0.00  0.00    +0.110 A 
ATOM      9  C   LIG    1       -7.006  -7.425  -0.351  0.00  0.00    +0.070 A 
ATOM     10  C   LIG    1       -5.828  -6.715  -0.462  0.00  0.00    +0.050 A 
BRANCH   8  11
ATOM     11  N   LIG    1       -8.226  -9.351   0.454  0.00  0.00    -0.330 N 
ATOM     12  C   LIG    1       -8.415 -10.532   1.081  0.00  0.00    +0.460 A 
ATOM     13  N   LIG    1       -9.678 -10.844   0.948  0.00  0.00    -0.330 NA
ATOM     14  N   LIG    1      -10.298  -9.945   0.272  0.00  0.00    -0.030 NA
ATOM     15  N   LIG    1       -9.485  -9.003  -0.066  0.00  0.00    -0.080 NA
ENDBRANCH   8  11
ENDBRANCH   3   5
BRANCH   2  16
ATOM     16  C   LIG    1       -2.197  -4.364  -0.006  0.00  0.00    +0.070 C 
BRANCH  16  17
ATOM     17  C   LIG    1       -2.501  -2.864   0.009  0.00  0.00    +0.290 C 
BRANCH  17  18
ATOM     18  N   LIG    1       -1.244  -2.112  -0.008  0.00  0.00    -0.730 N 
ATOM     19  H   LIG    1       -0.397  -2.583  -0.026  0.00  0.00    +0.400 HD
ATOM     20  C   LIG    1       -1.266  -0.764   0.002  0.00  0.00    +0.560 C 
ATOM     21  O   LIG    1       -2.328  -0.173   0.024  0.00  0.00    -0.530 OA
BRANCH  20  22
ATOM     22  C   LIG    1        0.003  -0.004  -0.015  0.00  0.00    -0.140 A 
ATOM     23  C   LIG    1       -0.016   1.391  -0.006  0.00  0.00    +0.080 A 
ATOM     24  C   LIG    1        1.171   2.094  -0.021  0.00  0.00    +0.000 A 
ATOM     25  C   LIG    1        2.378   1.419  -0.047  0.00  0.00    +0.040 A 
ATOM     26  C   LIG    1        2.404   0.035  -0.056  0.00  0.00    +0.000 A 
ATOM     27  C   LIG    1        1.224  -0.680  -0.041  0.00  0.00    +0.030 A 
ENDBRANCH  20  22
ENDBRANCH  17  18
ENDBRANCH  16  17
ENDBRANCH   2  16
TORSDOF 6
