REMARK  Name = ZINCrg000000rA5T.0
REMARK                            x       y       z     vdW  Elec       q    Type
REMARK                         _______ _______ _______ _____ _____    ______ ____
ROOT
ATOM      1  N   LIG    1       -0.747   5.185  -2.071  0.00  0.00    -0.740 N 
ATOM      2  H   LIG    1       -1.112   5.571  -1.260  0.00  0.00    +0.400 HD
ATOM      3  C   LIG    1       -0.520   3.859  -2.144  0.00  0.00    +0.710 C 
ATOM      4  N   LIG    1       -0.895   3.054  -1.129  0.00  0.00    -0.630 N 
ATOM      5  C   LIG    1       -1.453   3.614   0.111  0.00  0.00    +0.280 C 
ATOM      6  C   LIG    1       -2.768   2.890   0.422  0.00  0.00    +0.200 C 
ATOM      7  N   LIG    1       -2.532   1.441   0.446  0.00  0.00    -0.450 N 
ATOM      8  C   LIG    1       -2.098   0.950  -0.869  0.00  0.00    +0.200 C 
ATOM      9  C   LIG    1       -0.756   1.594  -1.233  0.00  0.00    +0.320 C 
ATOM     10  O   LIG    1        0.023   3.388  -3.124  0.00  0.00    -0.590 OA
ENDROOT
BRANCH   7  11
ATOM     11  C   LIG    1       -3.670   0.755   0.887  0.00  0.00    +0.260 A 
ATOM     12  N   LIG    1       -4.808   1.300   1.246  0.00  0.00    -0.320 NA
ATOM     13  N   LIG    1       -5.687   0.274   1.617  0.00  0.00    -0.470 N 
ATOM     14  H   LIG    1       -6.600   0.389   1.924  0.00  0.00    +0.440 HD
ATOM     15  C   LIG    1       -5.039  -0.902   1.478  0.00  0.00    +0.140 A 
ATOM     16  C   LIG    1       -3.791  -0.637   1.029  0.00  0.00    -0.110 A 
BRANCH  15  17
ATOM     17  C   LIG    1       -5.605  -2.267   1.771  0.00  0.00    +0.030 C 
ATOM     18  C   LIG    1       -7.095  -2.486   1.501  0.00  0.00    +0.030 C 
ATOM     19  C   LIG    1       -6.584  -2.390   2.941  0.00  0.00    +0.030 C 
ENDBRANCH  15  17
ENDBRANCH   7  11
BRANCH   1  20
ATOM     20  C   LIG    1       -0.442   6.045  -3.218  0.00  0.00    +0.270 C 
BRANCH  20  22
ATOM     21  C   LIG    1        0.121   7.985  -1.748  0.00  0.00    +0.040 C 
ATOM     22  C   LIG    1       -0.790   7.495  -2.875  0.00  0.00    -0.020 C 
BRANCH  22  23
ATOM     23  C   LIG    1       -0.589   8.373  -4.112  0.00  0.00    +0.180 C 
BRANCH  23  24
ATOM     24  N   LIG    1       -1.036   9.741  -3.818  0.00  0.00    -0.530 NA
ATOM     25  C   LIG    1       -2.489   9.785  -3.598  0.00  0.00    +0.140 C 
ATOM     26  C   LIG    1       -2.902  11.214  -3.238  0.00  0.00    +0.220 C 
ATOM     27  O   LIG    1       -2.485  12.103  -4.278  0.00  0.00    -0.390 OA
ATOM     28  C   LIG    1       -1.075  12.086  -4.519  0.00  0.00    +0.220 C 
ATOM     29  C   LIG    1       -0.644  10.665  -4.892  0.00  0.00    +0.150 C 
ENDBRANCH  23  24
ENDBRANCH  22  23
ENDBRANCH  20  22
ENDBRANCH   1  20
TORSDOF 6
