REMARK  Name = ZINCnE000001FJaH.1
REMARK                            x       y       z     vdW  Elec       q    Type
REMARK                         _______ _______ _______ _____ _____    ______ ____
ROOT
ATOM      1  C   LIG    1       -2.569   4.140   0.252  0.00  0.00    +0.100 C 
ENDROOT
BRANCH   1   2
ATOM      2  C   LIG    1       -1.255   3.412   0.128  0.00  0.00    +0.530 C 
ATOM      3  N   LIG    1       -1.237   2.069   0.019  0.00  0.00    -0.670 N 
ATOM      4  H   LIG    1       -2.070   1.577  -0.057  0.00  0.00    +0.410 HD
ATOM      5  O   LIG    1       -0.215   4.035   0.127  0.00  0.00    -0.500 OA
BRANCH   3   6
ATOM      6  C   LIG    1       -0.017   1.384   0.015  0.00  0.00    +0.160 A 
ATOM      7  C   LIG    1        0.126   0.222  -0.732  0.00  0.00    -0.030 A 
ATOM      8  C   LIG    1        1.330  -0.455  -0.729  0.00  0.00    -0.070 A 
ATOM      9  C   LIG    1        2.392   0.023   0.017  0.00  0.00    -0.020 A 
ATOM     10  C   LIG    1        2.252   1.180   0.762  0.00  0.00    -0.060 A 
ATOM     11  C   LIG    1        3.412   1.697   1.574  0.00  0.00    +0.100 C 
ATOM     12  C   LIG    1        1.487  -1.716  -1.539  0.00  0.00    +0.100 C 
ATOM     13  C   LIG    1        1.051   1.861   0.763  0.00  0.00    +0.010 A 
ENDBRANCH   3   6
ENDBRANCH   1   2
BRANCH   1  14
ATOM     14  S   LIG    1       -2.263   5.920   0.380  0.00  0.00    +0.030 S 
BRANCH  14  19
ATOM     15  C   LIG    1       -6.181   6.045   0.584  0.00  0.00    +0.180 A 
ATOM     16  C   LIG    1       -6.471   7.373   0.706  0.00  0.00    -0.270 A 
ATOM     17  C   LIG    1       -5.415   8.300   0.728  0.00  0.00    +0.490 A 
ATOM     18  N   LIG    1       -4.148   7.844   0.628  0.00  0.00    -0.640 NA
ATOM     19  C   LIG    1       -3.919   6.507   0.509  0.00  0.00    +0.320 A 
ATOM     20  O   LIG    1       -5.639   9.495   0.836  0.00  0.00    -0.620 OA
ATOM     21  N   LIG    1       -4.917   5.644   0.484  0.00  0.00    -0.630 NA
BRANCH  15  22
ATOM     22  C   LIG    1       -7.296   5.031   0.557  0.00  0.00    +0.080 C 
BRANCH  22  24
ATOM     23  C   LIG    1       -8.791   3.682  -0.921  0.00  0.00    +0.000 C 
ATOM     24  C   LIG    1       -7.659   4.711  -0.894  0.00  0.00    +0.010 C 
ENDBRANCH  22  24
ENDBRANCH  15  22
ENDBRANCH  14  19
ENDBRANCH   1  14
TORSDOF 6
