REMARK  Name = ZINCvU0000000846.0
REMARK                            x       y       z     vdW  Elec       q    Type
REMARK                         _______ _______ _______ _____ _____    ______ ____
ROOT
ATOM      1  C   LIG    1       -2.489   1.477   1.187  0.00  0.00    +0.160 A 
ATOM      2  N   LIG    1       -2.880   0.801   0.131  0.00  0.00    -0.280 NA
ATOM      3  N   LIG    1       -4.128   0.513   0.233  0.00  0.00    -0.240 NA
ATOM      4  C   LIG    1       -4.609   0.990   1.345  0.00  0.00    +0.190 A 
ATOM      5  N   LIG    1       -3.583   1.622   1.996  0.00  0.00    -0.400 N 
ENDROOT
BRANCH   5   6
ATOM      6  C   LIG    1       -3.640   2.281   3.232  0.00  0.00    +0.090 A 
ATOM      7  C   LIG    1       -3.917   1.566   4.389  0.00  0.00    +0.030 A 
ATOM      8  C   LIG    1       -3.968   2.216   5.607  0.00  0.00    +0.040 A 
ATOM      9  C   LIG    1       -3.755   3.581   5.672  0.00  0.00    +0.040 A 
ATOM     10  C   LIG    1       -3.485   4.298   4.520  0.00  0.00    +0.040 A 
ATOM     11  C   LIG    1       -3.427   3.651   3.301  0.00  0.00    +0.040 A 
ENDBRANCH   5   6
BRANCH   1  12
ATOM     12  S   LIG    1       -0.866   2.087   1.500  0.00  0.00    +0.060 S 
BRANCH  12  13
ATOM     13  C   LIG    1       -0.018   1.503   0.010  0.00  0.00    +0.050 C 
BRANCH  13  14
ATOM     14  C   LIG    1        1.395   2.024  -0.000  0.00  0.00    -0.080 A 
ATOM     15  C   LIG    1        2.259   1.701   1.029  0.00  0.00    +0.020 A 
ATOM     16  C   LIG    1        3.557   2.176   1.017  0.00  0.00    +0.020 A 
ATOM     17  C   LIG    1        3.989   2.982  -0.020  0.00  0.00    +0.030 A 
ATOM     18  C   LIG    1        3.124   3.309  -1.047  0.00  0.00    +0.020 A 
ATOM     19  C   LIG    1        1.827   2.831  -1.037  0.00  0.00    +0.040 A 
ENDBRANCH  13  14
BRANCH  13  21
ATOM     20  C   LIG    1        0.138  -0.763   1.297  0.00  0.00    +0.080 C 
ATOM     21  C   LIG    1        0.002  -0.004   0.002  0.00  0.00    +0.370 C 
ATOM     22  O   LIG    1       -0.091  -0.603  -1.042  0.00  0.00    -0.420 OA
ENDBRANCH  13  21
ENDBRANCH  12  13
ENDBRANCH   1  12
BRANCH   4  23
ATOM     23  C   LIG    1       -6.032   0.868   1.828  0.00  0.00    +0.350 C 
BRANCH  23  24
ATOM     24  O   LIG    1       -6.793   1.981   1.354  0.00  0.00    -0.300 OA
BRANCH  24  25
ATOM     25  C   LIG    1       -8.106   2.024   1.703  0.00  0.00    +0.100 A 
ATOM     26  C   LIG    1       -8.650   1.017   2.485  0.00  0.00    -0.040 A 
ATOM     27  C   LIG    1       -9.986   1.063   2.838  0.00  0.00    +0.050 A 
ATOM     28  C   LIG    1      -10.780   2.112   2.413  0.00  0.00    +0.020 A 
ATOM     29  C   LIG    1      -10.241   3.118   1.632  0.00  0.00    +0.030 A 
ATOM     30  C   LIG    1       -8.904   3.080   1.281  0.00  0.00    +0.070 A 
ATOM     31  F   LIG    1       -8.376   4.066   0.523  0.00  0.00    -0.130 F 
ENDBRANCH  24  25
ENDBRANCH  23  24
ENDBRANCH   4  23
TORSDOF 8
