REMARK  Name = ZINCrD000006fiNH.0
REMARK                            x       y       z     vdW  Elec       q    Type
REMARK                         _______ _______ _______ _____ _____    ______ ____
ROOT
ATOM      1  C   LIG    1       -2.445  -0.245   0.489  0.00  0.00    +0.560 C 
ATOM      2  N   LIG    1       -2.411   1.018   0.021  0.00  0.00    -0.670 N 
ATOM      3  H   LIG    1       -3.222   1.435  -0.310  0.00  0.00    +0.410 HD
ATOM      4  O   LIG    1       -1.451  -0.735   0.989  0.00  0.00    -0.520 OA
ENDROOT
BRANCH   2   5
ATOM      5  C   LIG    1       -1.204   1.729   0.013  0.00  0.00    +0.130 A 
ATOM      6  C   LIG    1       -0.006   1.061  -0.202  0.00  0.00    +0.050 A 
ATOM      7  C   LIG    1        1.183   1.763  -0.216  0.00  0.00    +0.000 A 
ATOM      8  C   LIG    1        1.181   3.136  -0.011  0.00  0.00    +0.150 A 
ATOM      9  C   LIG    1       -0.017   3.803   0.209  0.00  0.00    -0.100 A 
ATOM     10  C   LIG    1       -0.015   5.294   0.431  0.00  0.00    +0.090 C 
ATOM     11  C   LIG    1        1.254   5.697   1.182  0.00  0.00    +0.070 C 
ATOM     12  C   LIG    1        2.457   5.076   0.525  0.00  0.00    +0.520 C 
ATOM     13  O   LIG    1        3.504   5.688   0.491  0.00  0.00    -0.520 OA
ATOM     14  N   LIG    1        2.385   3.850  -0.025  0.00  0.00    -0.550 N 
ATOM     15  C   LIG    1       -1.206   3.103   0.223  0.00  0.00    +0.020 A 
BRANCH  14  16
ATOM     16  C   LIG    1        3.574   3.259  -0.643  0.00  0.00    +0.280 C 
ATOM     17  C   LIG    1        3.624   3.642  -2.123  0.00  0.00    +0.020 C 
ENDBRANCH  14  16
ENDBRANCH   2   5
BRANCH   1  21
ATOM     18  C   LIG    1       -6.025  -2.513   0.219  0.00  0.00    +0.180 A 
ATOM     19  C   LIG    1       -4.888  -3.076   0.791  0.00  0.00    +0.020 A 
ATOM     20  C   LIG    1       -3.726  -2.343   0.880  0.00  0.00    +0.110 A 
ATOM     21  C   LIG    1       -3.689  -1.033   0.395  0.00  0.00    -0.160 A 
ATOM     22  C   LIG    1       -4.834  -0.469  -0.174  0.00  0.00    +0.070 A 
ATOM     23  C   LIG    1       -5.992  -1.208  -0.265  0.00  0.00    -0.010 A 
BRANCH  18  25
ATOM     24  C   LIG    1       -7.529  -4.116   1.115  0.00  0.00    +0.540 C 
ATOM     25  N   LIG    1       -7.200  -3.257   0.131  0.00  0.00    -0.670 N 
ATOM     26  H   LIG    1       -7.781  -3.157  -0.640  0.00  0.00    +0.420 HD
ATOM     27  O   LIG    1       -6.762  -4.304   2.040  0.00  0.00    -0.520 OA
BRANCH  24  29
ATOM     28  C   LIG    1       -9.142  -5.674   2.044  0.00  0.00    +0.160 C 
ATOM     29  C   LIG    1       -8.816  -4.826   1.072  0.00  0.00    -0.090 C 
ENDBRANCH  24  29
ENDBRANCH  18  25
ENDBRANCH   1  21
TORSDOF 5
