REMARK  Name = ZINCqH0000003QeV.0
REMARK                            x       y       z     vdW  Elec       q    Type
REMARK                         _______ _______ _______ _____ _____    ______ ____
ROOT
ATOM      1  C   LIG    1        5.337  -1.954  -1.466  0.00  0.00    +0.520 C 
ATOM      2  N   LIG    1        5.927  -2.212  -2.650  0.00  0.00    -0.680 N 
ATOM      3  H   LIG    1        5.467  -2.001  -3.477  0.00  0.00    +0.410 HD
ATOM      4  O   LIG    1        5.870  -2.305  -0.434  0.00  0.00    -0.520 OA
ENDROOT
BRANCH   2   5
ATOM      5  C   LIG    1        7.203  -2.785  -2.686  0.00  0.00    +0.180 A 
ATOM      6  C   LIG    1        8.130  -2.481  -1.697  0.00  0.00    -0.010 A 
ATOM      7  C   LIG    1        9.388  -3.051  -1.728  0.00  0.00    +0.060 A 
ATOM      8  C   LIG    1        9.733  -3.914  -2.750  0.00  0.00    -0.040 A 
ATOM      9  C   LIG    1        8.813  -4.218  -3.746  0.00  0.00    +0.180 A 
ATOM     10  C   LIG    1        7.547  -3.652  -3.713  0.00  0.00    -0.030 A 
BRANCH   9  11
ATOM     11  N   LIG    1        9.163  -5.093  -4.780  0.00  0.00    -0.560 N 
ATOM     12  C   LIG    1       10.430  -5.832  -4.846  0.00  0.00    +0.260 C 
ATOM     13  C   LIG    1       10.192  -6.961  -5.875  0.00  0.00    +0.060 C 
ATOM     14  C   LIG    1        9.072  -6.355  -6.753  0.00  0.00    +0.070 C 
ATOM     15  C   LIG    1        8.386  -5.361  -5.843  0.00  0.00    +0.520 C 
ATOM     16  O   LIG    1        7.292  -4.876  -6.043  0.00  0.00    -0.510 OA
ENDBRANCH   9  11
ENDBRANCH   2   5
BRANCH   1  17
ATOM     17  C   LIG    1        4.016  -1.230  -1.424  0.00  0.00    +0.070 C 
BRANCH  17  18
ATOM     18  C   LIG    1        3.571  -1.066   0.030  0.00  0.00    +0.110 C 
BRANCH  18  24
ATOM     19  C   LIG    1        1.065  -1.050  -0.071  0.00  0.00    +0.130 A 
ATOM     20  C   LIG    1       -0.149  -0.380  -0.033  0.00  0.00    -0.080 A 
ATOM     21  C   LIG    1       -0.176   0.989   0.149  0.00  0.00    +0.040 A 
ATOM     22  C   LIG    1        1.006   1.692   0.292  0.00  0.00    -0.040 A 
ATOM     23  C   LIG    1        2.217   1.027   0.254  0.00  0.00    +0.050 A 
ATOM     24  C   LIG    1        2.250  -0.342   0.073  0.00  0.00    -0.120 A 
BRANCH  19  25
ATOM     25  O   LIG    1        1.094  -2.397  -0.250  0.00  0.00    -0.310 OA
BRANCH  25  27
ATOM     26  C   LIG    1        0.069  -4.560  -0.582  0.00  0.00    +0.070 C 
ATOM     27  C   LIG    1       -0.164  -3.060  -0.391  0.00  0.00    +0.170 C 
ENDBRANCH  25  27
ENDBRANCH  19  25
ENDBRANCH  18  24
ENDBRANCH  17  18
ENDBRANCH   1  17
TORSDOF 7
