REMARK  Name = ZINCpk00000KfKW9.0
REMARK                            x       y       z     vdW  Elec       q    Type
REMARK                         _______ _______ _______ _____ _____    ______ ____
ROOT
ATOM      1  C   LIG    1       -0.016   1.344   0.009  0.00  0.00    +0.590 C 
ATOM      2  N   LIG    1       -0.335   0.198  -0.626  0.00  0.00    -0.610 N 
ATOM      3  C   LIG    1       -1.541  -0.554  -0.253  0.00  0.00    +0.280 C 
ATOM      4  C   LIG    1       -2.382  -0.786  -1.517  0.00  0.00    +0.030 C 
ATOM      5  C   LIG    1       -1.519  -1.470  -2.579  0.00  0.00    +0.030 C 
ATOM      6  C   LIG    1       -0.342  -0.562  -2.944  0.00  0.00    +0.230 C 
ATOM      7  C   LIG    1        0.520  -0.325  -1.700  0.00  0.00    +0.280 C 
ATOM      8  O   LIG    1       -0.785   1.823   0.821  0.00  0.00    -0.530 OA
ENDROOT
BRANCH   1  11
ATOM      9  N   LIG    1        2.496   4.000  -0.646  0.00  0.00    -0.490 N 
ATOM     10  C   LIG    1        1.326   3.386  -0.387  0.00  0.00    +0.380 A 
ATOM     11  C   LIG    1        1.267   2.011  -0.275  0.00  0.00    -0.260 A 
ATOM     12  C   LIG    1        2.450   1.248  -0.430  0.00  0.00    +0.130 A 
ATOM     13  C   LIG    1        3.619   1.890  -0.697  0.00  0.00    -0.080 A 
ATOM     14  C   LIG    1        3.630   3.294  -0.803  0.00  0.00    +0.520 A 
ATOM     15  O   LIG    1        4.677   3.874  -1.038  0.00  0.00    -0.510 OA
BRANCH   9  16
ATOM     16  C   LIG    1        2.533   5.460  -0.761  0.00  0.00    +0.320 C 
BRANCH  16  17
ATOM     17  C   LIG    1        2.806   6.073   0.614  0.00  0.00    +0.170 C 
BRANCH  17  19
ATOM     18  C   LIG    1        4.468   6.217   2.335  0.00  0.00    +0.200 C 
ATOM     19  O   LIG    1        4.112   5.694   1.053  0.00  0.00    -0.370 OA
ENDBRANCH  17  19
ENDBRANCH  16  17
ENDBRANCH   9  16
ENDBRANCH   1  11
BRANCH   6  20
ATOM     20  N   LIG    1        0.467  -1.204  -3.984  0.00  0.00    -0.450 N 
ATOM     21  C   LIG    1        1.103  -2.412  -3.888  0.00  0.00    +0.110 A 
ATOM     22  C   LIG    1        1.726  -2.618  -5.064  0.00  0.00    +0.150 A 
ATOM     23  N   LIG    1        1.478  -1.565  -5.856  0.00  0.00    -0.490 NA
ATOM     24  C   LIG    1        0.719  -0.716  -5.218  0.00  0.00    +0.210 A 
ATOM     25  C   LIG    1        0.212   0.593  -5.765  0.00  0.00    +0.170 C 
ENDBRANCH   6  20
TORSDOF 5
