REMARK  Name = ZINCvU00000007Yr.0
REMARK                            x       y       z     vdW  Elec       q    Type
REMARK                         _______ _______ _______ _____ _____    ______ ____
ROOT
ATOM      1  C   LIG    1       -1.179   7.756   0.053  0.00  0.00    +0.260 A 
ATOM      2  N   LIG    1       -0.045   8.380   0.044  0.00  0.00    -0.240 NA
ATOM      3  N   LIG    1       -0.305   9.757   0.052  0.00  0.00    -0.370 N 
ATOM      4  C   LIG    1       -1.646   9.912   0.066  0.00  0.00    +0.480 A 
ATOM      5  S   LIG    1       -2.494  11.399   0.081  0.00  0.00    -0.570 S 
ATOM      6  N   LIG    1       -2.194   8.680   0.061  0.00  0.00    -0.480 N 
ENDROOT
BRANCH   1   7
ATOM      7  C   LIG    1       -1.356   6.259   0.047  0.00  0.00    +0.350 C 
BRANCH   7   8
ATOM      8  O   LIG    1       -0.074   5.628   0.032  0.00  0.00    -0.290 OA
BRANCH   8  12
ATOM      9  C   LIG    1       -0.018   1.503   0.010  0.00  0.00    -0.110 A 
ATOM     10  C   LIG    1       -1.226   2.177   0.020  0.00  0.00    +0.050 A 
ATOM     11  C   LIG    1       -1.247   3.558   0.033  0.00  0.00    -0.080 A 
ATOM     12  C   LIG    1       -0.056   4.269   0.025  0.00  0.00    +0.120 A 
ATOM     13  C   LIG    1        1.154   3.591   0.010  0.00  0.00    -0.010 A 
ATOM     14  C   LIG    1        1.170   2.209   0.003  0.00  0.00    +0.050 A 
BRANCH   9  16
ATOM     15  C   LIG    1        0.023  -0.522   1.442  0.00  0.00    +0.030 C 
ATOM     16  C   LIG    1        0.002  -0.004   0.002  0.00  0.00    +0.060 C 
ENDBRANCH   9  16
ENDBRANCH   8  12
ENDBRANCH   7   8
ENDBRANCH   1   7
BRANCH   3  17
ATOM     17  C   LIG    1        0.693  10.829   0.046  0.00  0.00    +0.520 C 
BRANCH  17  18
ATOM     18  N   LIG    1        1.275  10.949  -1.297  0.00  0.00    -0.550 NA
ATOM     19  C   LIG    1        2.321   9.939  -1.509  0.00  0.00    +0.210 C 
BRANCH  18  20
ATOM     20  C   LIG    1        1.796  12.303  -1.526  0.00  0.00    +0.260 C 
BRANCH  20  21
ATOM     21  C   LIG    1        2.159  12.462  -2.980  0.00  0.00    -0.080 A 
ATOM     22  C   LIG    1        3.436  12.153  -3.412  0.00  0.00    +0.030 A 
ATOM     23  C   LIG    1        3.767  12.294  -4.746  0.00  0.00    +0.020 A 
ATOM     24  C   LIG    1        2.825  12.755  -5.648  0.00  0.00    -0.030 A 
ATOM     25  C   LIG    1        1.549  13.069  -5.215  0.00  0.00    +0.020 A 
ATOM     26 CL   LIG    1        3.243  12.940  -7.323  0.00  0.00    -0.070 Cl
ATOM     27  C   LIG    1        1.217  12.922  -3.881  0.00  0.00    +0.060 A 
ENDBRANCH  20  21
ENDBRANCH  18  20
ENDBRANCH  17  18
ENDBRANCH   3  17
BRANCH   6  28
ATOM     28  C   LIG    1       -3.628   8.380   0.068  0.00  0.00    +0.330 C 
BRANCH  28  29
ATOM     29  C   LIG    1       -4.120   8.270   1.512  0.00  0.00    -0.020 C 
ATOM     30  C   LIG    1       -3.452   7.070   2.188  0.00  0.00    +0.020 C 
ATOM     31  C   LIG    1       -5.638   8.080   1.522  0.00  0.00    +0.060 C 
ENDBRANCH  28  29
ENDBRANCH   6  28
TORSDOF 10
