REMARK  Name = ZINCpe000000XeXn.0
REMARK                            x       y       z     vdW  Elec       q    Type
REMARK                         _______ _______ _______ _____ _____    ______ ____
ROOT
ATOM      1  C   LIG    1        0.998   6.061  -2.134  0.00  0.00    +0.200 C 
ATOM      2  C   LIG    1        0.169   5.761  -3.387  0.00  0.00    +0.250 C 
ATOM      3  O   LIG    1       -0.903   6.707  -3.461  0.00  0.00    -0.360 OA
ATOM      4  C   LIG    1       -1.879   6.528  -2.432  0.00  0.00    +0.290 C 
ATOM      5  C   LIG    1       -1.197   6.430  -1.095  0.00  0.00    +0.490 C 
ATOM      6  O   LIG    1       -1.859   6.568  -0.089  0.00  0.00    -0.530 OA
ATOM      7  N   LIG    1        0.116   6.195  -0.977  0.00  0.00    -0.580 N 
ENDROOT
BRANCH   1  10
ATOM      8  N   LIG    1        3.199   4.976  -2.445  0.00  0.00    -0.720 N 
ATOM      9  H   LIG    1        3.459   5.732  -2.993  0.00  0.00    +0.400 HD
ATOM     10  C   LIG    1        1.968   4.933  -1.896  0.00  0.00    +0.510 C 
ATOM     11  O   LIG    1        1.642   3.987  -1.211  0.00  0.00    -0.510 OA
BRANCH   8  13
ATOM     12  C   LIG    1        4.882   4.112  -0.895  0.00  0.00    +0.040 C 
ATOM     13  C   LIG    1        4.142   3.879  -2.214  0.00  0.00    +0.240 C 
BRANCH  13  14
ATOM     14  C   LIG    1        5.151   3.824  -3.362  0.00  0.00    +0.330 C 
BRANCH  14  15
ATOM     15  N   LIG    1        4.457   3.482  -4.606  0.00  0.00    -0.370 N 
ATOM     16  C   LIG    1        4.482   4.196  -5.752  0.00  0.00    +0.220 A 
ATOM     17  C   LIG    1        3.720   3.545  -6.660  0.00  0.00    -0.120 A 
ATOM     18  C   LIG    1        3.204   2.399  -6.047  0.00  0.00    +0.230 A 
ATOM     19  N   LIG    1        3.645   2.360  -4.816  0.00  0.00    -0.290 NA
ENDBRANCH  14  15
ENDBRANCH  13  14
ENDBRANCH   8  13
ENDBRANCH   1  10
BRANCH   7  20
ATOM     20  C   LIG    1        0.691   6.073   0.365  0.00  0.00    +0.340 C 
BRANCH  20  21
ATOM     21  C   LIG    1        1.073   7.439   0.874  0.00  0.00    -0.110 A 
ATOM     22  C   LIG    1        0.200   8.144   1.681  0.00  0.00    +0.040 A 
ATOM     23  C   LIG    1        0.550   9.397   2.149  0.00  0.00    +0.000 A 
ATOM     24  C   LIG    1        1.773   9.944   1.809  0.00  0.00    +0.010 A 
ATOM     25  C   LIG    1        2.644   9.241   0.998  0.00  0.00    +0.000 A 
ATOM     26  C   LIG    1        2.296   7.986   0.534  0.00  0.00    +0.000 A 
ENDBRANCH  20  21
ENDBRANCH   7  20
TORSDOF 6
