REMARK  Name = ZINCrH00000No4BX.0
REMARK                            x       y       z     vdW  Elec       q    Type
REMARK                         _______ _______ _______ _____ _____    ______ ____
ROOT
ATOM      1  N   LIG    1       -0.786   1.653  -1.281  0.00  0.00    -0.490 N 
ENDROOT
BRANCH   1   2
ATOM      2  C   LIG    1       -0.506   1.173  -2.546  0.00  0.00    +0.400 A 
ATOM      3  N   LIG    1        0.713   1.293  -3.025  0.00  0.00    -0.490 NA
ATOM      4  C   LIG    1        1.039   0.842  -4.242  0.00  0.00    +0.340 A 
ATOM      5  N   LIG    1        2.287   0.971  -4.702  0.00  0.00    -0.470 NA
ATOM      6  C   LIG    1        2.627   0.540  -5.894  0.00  0.00    +0.340 A 
ATOM      7  C   LIG    1        1.709  -0.074  -6.741  0.00  0.00    -0.030 A 
ATOM      8  C   LIG    1        0.414  -0.239  -6.334  0.00  0.00    +0.120 A 
ATOM      9  C   LIG    1        0.055   0.225  -5.056  0.00  0.00    -0.170 A 
ATOM     10  C   LIG    1       -1.258   0.087  -4.573  0.00  0.00    +0.180 A 
ATOM     11  C   LIG    1       -1.539   0.568  -3.302  0.00  0.00    -0.060 A 
BRANCH  11  12
ATOM     12  C   LIG    1       -2.861   0.455  -2.761  0.00  0.00    +0.270 C 
ATOM     13  N   LIG    1       -3.909   0.364  -2.332  0.00  0.00    -0.400 NA
ENDBRANCH  11  12
ENDBRANCH   1   2
BRANCH   1  14
ATOM     14  C   LIG    1        0.065   1.007  -0.273  0.00  0.00    +0.300 C 
BRANCH  14  18
ATOM     15  N   LIG    1       -1.589   1.056   2.978  0.00  0.00    -0.460 N 
ATOM     16  C   LIG    1       -0.921   2.230   2.983  0.00  0.00    +0.390 A 
ATOM     17  N   LIG    1       -0.268   2.345   1.859  0.00  0.00    -0.480 NA
ATOM     18  C   LIG    1       -0.500   1.263   1.100  0.00  0.00    +0.000 A 
ATOM     19  C   LIG    1       -1.321   0.443   1.784  0.00  0.00    +0.140 A 
BRANCH  15  21
ATOM     20  C   LIG    1       -1.594  -0.298   5.015  0.00  0.00    +0.030 C 
ATOM     21  C   LIG    1       -2.440   0.536   4.051  0.00  0.00    +0.280 C 
ENDBRANCH  15  21
ENDBRANCH  14  18
ENDBRANCH   1  14
BRANCH   1  22
ATOM     22  C   LIG    1       -0.647   3.114  -1.229  0.00  0.00    +0.230 C 
BRANCH  22  23
ATOM     23  C   LIG    1       -1.809   3.764  -1.983  0.00  0.00    -0.020 C 
ATOM     24  C   LIG    1       -1.533   3.970  -3.482  0.00  0.00    -0.000 C 
ATOM     25  C   LIG    1       -2.240   5.331  -3.342  0.00  0.00    -0.040 C 
ATOM     26  C   LIG    1       -3.750   5.262  -3.577  0.00  0.00    +0.040 C 
ATOM     27  C   LIG    1       -1.845   5.296  -1.857  0.00  0.00    +0.020 C 
ENDBRANCH  22  23
ENDBRANCH   1  22
TORSDOF 7
