REMARK  Name = ZINCrH000004nA3S.0
REMARK                            x       y       z     vdW  Elec       q    Type
REMARK                         _______ _______ _______ _____ _____    ______ ____
ROOT
ATOM      1  N   LIG    1       -0.018   1.461   0.010  0.00  0.00    -0.740 N 
ATOM      2  H   LIG    1        0.816   1.957   0.005  0.00  0.00    +0.400 HD
ATOM      3  C   LIG    1       -1.194   2.119   0.019  0.00  0.00    +0.700 C 
ATOM      4  N   LIG    1       -1.212   3.466   0.027  0.00  0.00    -0.740 N 
ATOM      5  H   LIG    1       -0.379   3.963   0.025  0.00  0.00    +0.400 HD
ATOM      6  O   LIG    1       -2.239   1.496   0.021  0.00  0.00    -0.590 OA
ENDROOT
BRANCH   1   7
ATOM      7  C   LIG    1        0.002  -0.004   0.002  0.00  0.00    +0.340 C 
BRANCH   7  13
ATOM      8  C   LIG    1        2.167  -0.513   1.161  0.00  0.00    +0.150 A 
ATOM      9  C   LIG    1        3.479  -0.964   1.144  0.00  0.00    -0.080 A 
ATOM     10  C   LIG    1        4.051  -1.374  -0.045  0.00  0.00    +0.060 A 
ATOM     11  C   LIG    1        3.316  -1.342  -1.215  0.00  0.00    -0.030 A 
ATOM     12  C   LIG    1        2.006  -0.899  -1.200  0.00  0.00    +0.070 A 
ATOM     13  C   LIG    1        1.429  -0.487  -0.014  0.00  0.00    -0.140 A 
BRANCH   8  15
ATOM     14  C   LIG    1        2.422  -0.157   3.498  0.00  0.00    +0.250 C 
ATOM     15  O   LIG    1        1.604  -0.103   2.327  0.00  0.00    -0.310 OA
ENDBRANCH   8  15
ENDBRANCH   7  13
ENDBRANCH   1   7
BRANCH   4  16
ATOM     16  C   LIG    1       -2.491   4.181   0.037  0.00  0.00    +0.340 C 
BRANCH  16  17
ATOM     17  C   LIG    1       -2.236   5.667   0.043  0.00  0.00    -0.100 A 
ATOM     18  C   LIG    1       -2.119   6.342   1.244  0.00  0.00    +0.030 A 
ATOM     19  C   LIG    1       -1.879   7.704   1.250  0.00  0.00    +0.030 A 
ATOM     20  C   LIG    1       -1.768   8.392   0.056  0.00  0.00    -0.090 A 
ATOM     21  C   LIG    1       -1.891   7.717  -1.144  0.00  0.00    +0.030 A 
ATOM     22  C   LIG    1       -2.124   6.354  -1.151  0.00  0.00    +0.030 A 
BRANCH  20  23
ATOM     23  C   LIG    1       -1.514   9.877   0.063  0.00  0.00    +0.240 C 
BRANCH  23  24
ATOM     24  O   LIG    1       -2.761  10.574   0.073  0.00  0.00    -0.370 OA
BRANCH  24  25
ATOM     25  C   LIG    1       -2.632  11.997   0.080  0.00  0.00    +0.220 C 
BRANCH  25  26
ATOM     26  C   LIG    1       -4.023  12.635   0.090  0.00  0.00    +0.460 C 
ATOM     27  F   LIG    1       -4.727  12.237  -1.051  0.00  0.00    -0.170 F 
ATOM     28  F   LIG    1       -3.896  14.028   0.097  0.00  0.00    -0.180 F 
ATOM     29  F   LIG    1       -4.716  12.224   1.233  0.00  0.00    -0.170 F 
ENDBRANCH  25  26
ENDBRANCH  24  25
ENDBRANCH  23  24
ENDBRANCH  20  23
ENDBRANCH  16  17
ENDBRANCH   4  16
TORSDOF 9
