REMARK  Name = ZINCtj00000vL6YK.1
REMARK                            x       y       z     vdW  Elec       q    Type
REMARK                         _______ _______ _______ _____ _____    ______ ____
ROOT
ATOM      1  N   LIG    1        4.844   1.536   0.442  0.00  0.00    -0.440 NA
ATOM      2  C   LIG    1        5.713   2.568   1.047  0.00  0.00    +0.210 C 
ATOM      3  C   LIG    1        4.789   3.600   1.720  0.00  0.00    +0.180 C 
ATOM      4  C   LIG    1        3.353   3.105   1.431  0.00  0.00    +0.080 C 
ATOM      5  C   LIG    1        3.542   2.204   0.185  0.00  0.00    +0.160 C 
ENDROOT
BRANCH   1   8
ATOM      6  C   LIG    1        7.069  -0.178  -1.914  0.00  0.00    +0.490 C 
ATOM      7  C   LIG    1        6.560   0.290  -0.707  0.00  0.00    -0.070 C 
ATOM      8  C   LIG    1        5.394   1.050  -0.734  0.00  0.00    +0.430 C 
ATOM      9  N   LIG    1        4.818   1.308  -1.907  0.00  0.00    -0.530 NA
ATOM     10  C   LIG    1        5.335   0.850  -3.029  0.00  0.00    +0.670 C 
ATOM     11  N   LIG    1        6.433   0.124  -3.044  0.00  0.00    -0.560 NA
ATOM     12  H   LIG    1        6.784  -0.195  -3.890  0.00  0.00    +0.450 HD
BRANCH   6  13
ATOM     13  N   LIG    1        8.225  -0.944  -1.940  0.00  0.00    -0.800 NA
ATOM     14  H   LIG    1        8.682  -1.159  -1.112  0.00  0.00    +0.440 HD
ATOM     15  H   LIG    1        8.576  -1.263  -2.785  0.00  0.00    +0.430 HD
ENDBRANCH   6  13
ENDBRANCH   1   8
BRANCH   3  16
ATOM     16  O   LIG    1        5.026   3.637   3.128  0.00  0.00    -0.550 OA
ATOM     17  H   LIG    1        5.912   3.941   3.370  0.00  0.00    +0.390 HD
ENDBRANCH   3  16
BRANCH   5  18
ATOM     18  C   LIG    1        2.416   1.172   0.089  0.00  0.00    +0.300 C 
BRANCH  18  19
ATOM     19  N   LIG    1        1.144   1.859  -0.150  0.00  0.00    -0.720 N 
ATOM     20  H   LIG    1        1.130   2.817  -0.295  0.00  0.00    +0.400 HD
ATOM     21  C   LIG    1       -0.007   1.157  -0.168  0.00  0.00    +0.570 C 
ATOM     22  O   LIG    1        0.018  -0.054  -0.077  0.00  0.00    -0.520 OA
BRANCH  21  23
ATOM     23  C   LIG    1       -1.298   1.861  -0.306  0.00  0.00    -0.110 A 
ATOM     24  C   LIG    1       -1.323   3.242  -0.515  0.00  0.00    +0.060 A 
ATOM     25  C   LIG    1       -2.529   3.896  -0.648  0.00  0.00    +0.050 A 
ATOM     26  C   LIG    1       -3.720   3.185  -0.563  0.00  0.00    +0.130 A 
ATOM     27  C   LIG    1       -3.700   1.809  -0.349  0.00  0.00    +0.100 A 
ATOM     28  F   LIG    1       -4.860   1.121  -0.267  0.00  0.00    -0.120 F 
ATOM     29  C   LIG    1       -2.497   1.148  -0.221  0.00  0.00    +0.080 A 
BRANCH  26  30
ATOM     30  N   LIG    1       -4.942   3.853  -0.693  0.00  0.00    -0.410 N 
ATOM     31  C   LIG    1       -5.965   3.490  -1.522  0.00  0.00    +0.150 A 
ATOM     32  C   LIG    1       -6.971   4.373  -1.363  0.00  0.00    -0.040 A 
ATOM     33  C   LIG    1       -6.553   5.323  -0.408  0.00  0.00    -0.040 A 
ATOM     34  C   LIG    1       -5.309   4.981  -0.015  0.00  0.00    +0.160 A 
ENDBRANCH  26  30
ENDBRANCH  21  23
ENDBRANCH  18  19
ENDBRANCH   5  18
TORSDOF 7
