REMARK  Name = ZINCrH000004uxuM.0
REMARK                            x       y       z     vdW  Elec       q    Type
REMARK                         _______ _______ _______ _____ _____    ______ ____
ROOT
ATOM      1  O   LIG    1        3.545   3.004  -0.117  0.00  0.00    -0.570 OA
ATOM      2  C   LIG    1        3.555   1.788  -0.123  0.00  0.00    +0.710 C 
ATOM      3  N   LIG    1        2.399   1.104  -0.015  0.00  0.00    -0.680 N 
ATOM      4  H   LIG    1        2.412   0.136   0.048  0.00  0.00    +0.410 HD
ATOM      5  N   LIG    1        4.722   1.125  -0.239  0.00  0.00    -0.740 N 
ATOM      6  H   LIG    1        4.730   0.155  -0.244  0.00  0.00    +0.400 HD
ENDROOT
BRANCH   3   7
ATOM      7  C   LIG    1        1.184   1.788   0.009  0.00  0.00    +0.190 A 
ATOM      8  C   LIG    1        1.098   3.030   0.630  0.00  0.00    +0.020 A 
ATOM      9  C   LIG    1       -0.101   3.705   0.660  0.00  0.00    +0.060 A 
ATOM     10  C   LIG    1       -1.231   3.146   0.057  0.00  0.00    -0.160 A 
ATOM     11  C   LIG    1       -1.141   1.898  -0.567  0.00  0.00    +0.100 A 
ATOM     12  C   LIG    1        0.060   1.226  -0.589  0.00  0.00    -0.030 A 
BRANCH  10  13
ATOM     13  C   LIG    1       -2.517   3.869   0.082  0.00  0.00    +0.570 C 
ATOM     14  N   LIG    1       -2.602   5.072   0.683  0.00  0.00    -0.700 N 
ATOM     15  H   LIG    1       -1.818   5.463   1.100  0.00  0.00    +0.400 HD
ATOM     16  O   LIG    1       -3.500   3.380  -0.440  0.00  0.00    -0.540 OA
BRANCH  14  17
ATOM     17  C   LIG    1       -3.879   5.791   0.709  0.00  0.00    +0.220 C 
ATOM     18  C   LIG    1       -3.852   7.290   0.407  0.00  0.00    +0.010 C 
ATOM     19  C   LIG    1       -4.099   6.801   1.836  0.00  0.00    +0.020 C 
ENDBRANCH  14  17
ENDBRANCH  10  13
ENDBRANCH   3   7
BRANCH   5  20
ATOM     20  C   LIG    1        5.979   1.868  -0.358  0.00  0.00    +0.330 C 
BRANCH  20  21
ATOM     21  C   LIG    1        7.145   0.884  -0.475  0.00  0.00    +0.080 C 
ATOM     22  S   LIG    1        6.905  -0.158  -1.939  0.00  0.00    -0.240 S 
ATOM     23  C   LIG    1        8.557  -0.906  -2.101  0.00  0.00    +0.120 C 
ATOM     24  C   LIG    1        9.544   0.213  -2.399  0.00  0.00    +0.100 C 
ATOM     25  C   LIG    1        9.482   1.347  -1.415  0.00  0.00    -0.070 A 
ATOM     26  C   LIG    1       10.627   2.150  -1.383  0.00  0.00    +0.000 A 
ATOM     27  C   LIG    1       10.720   3.237  -0.546  0.00  0.00    +0.020 A 
ATOM     28  C   LIG    1        9.660   3.550   0.284  0.00  0.00    +0.010 A 
ATOM     29  C   LIG    1        8.533   2.761   0.262  0.00  0.00    +0.020 A 
ATOM     30  C   LIG    1        8.438   1.653  -0.587  0.00  0.00    -0.080 A 
ENDBRANCH  20  21
ENDBRANCH   5  20
TORSDOF 5
