REMARK  Name = ZINCqH0000036bk8.0
REMARK                            x       y       z     vdW  Elec       q    Type
REMARK                         _______ _______ _______ _____ _____    ______ ____
ROOT
ATOM      1  C   LIG    1        0.960  -7.586  -4.617  0.00  0.00    +0.150 A 
ATOM      2  C   LIG    1        0.060  -7.163  -3.649  0.00  0.00    -0.090 A 
ATOM      3  C   LIG    1        0.521  -6.526  -2.510  0.00  0.00    +0.080 A 
ATOM      4  C   LIG    1        1.872  -6.316  -2.344  0.00  0.00    -0.190 A 
ATOM      5  C   LIG    1        2.410  -5.712  -1.056  0.00  0.00    +0.340 C 
ATOM      6  N   LIG    1        3.042  -4.427  -1.373  0.00  0.00    -0.610 N 
ATOM      7  C   LIG    1        4.400  -4.384  -1.917  0.00  0.00    +0.300 C 
ATOM      8  C   LIG    1        4.468  -5.051  -3.284  0.00  0.00    +0.100 C 
ATOM      9  O   LIG    1        4.098  -6.431  -3.178  0.00  0.00    -0.320 OA
ATOM     10  C   LIG    1        5.894  -4.948  -3.828  0.00  0.00    +0.080 C 
ATOM     11  C   LIG    1        3.510  -4.341  -4.243  0.00  0.00    +0.030 C 
ATOM     12  C   LIG    1        2.370  -3.279  -1.158  0.00  0.00    +0.720 C 
ATOM     13  N   LIG    1        1.159  -3.307  -0.566  0.00  0.00    -0.640 N 
ATOM     14  H   LIG    1        0.738  -4.157  -0.365  0.00  0.00    +0.410 HD
ATOM     15  O   LIG    1        2.856  -2.217  -1.497  0.00  0.00    -0.560 OA
ATOM     16  C   LIG    1        2.777  -6.701  -3.323  0.00  0.00    +0.170 A 
ATOM     17  C   LIG    1        2.317  -7.355  -4.457  0.00  0.00    -0.030 A 
ENDROOT
BRANCH  13  18
ATOM     18  C   LIG    1        0.512  -2.114  -0.244  0.00  0.00    +0.270 A 
ATOM     19  N   LIG    1       -0.657  -1.985   0.327  0.00  0.00    -0.390 NA
ATOM     20  O   LIG    1       -0.950  -0.822   0.476  0.00  0.00    +0.100 OA
ATOM     21  C   LIG    1        0.007  -0.005   0.013  0.00  0.00    +0.010 A 
ATOM     22  C   LIG    1        0.988  -0.797  -0.476  0.00  0.00    -0.030 A 
BRANCH  21  23
ATOM     23  C   LIG    1       -0.010   1.502   0.028  0.00  0.00    +0.050 C 
ATOM     24  C   LIG    1       -1.133   2.188   0.809  0.00  0.00    +0.040 C 
ATOM     25  C   LIG    1       -1.145   2.203  -0.721  0.00  0.00    +0.050 C 
ENDBRANCH  21  23
ENDBRANCH  13  18
BRANCH   1  27
ATOM     26  C   LIG    1       -0.902  -8.434  -5.828  0.00  0.00    +0.250 C 
ATOM     27  O   LIG    1        0.508  -8.229  -5.726  0.00  0.00    -0.310 OA
ENDBRANCH   1  27
TORSDOF 3
