REMARK  Name = ZINCqH0000007P6x.0
REMARK                            x       y       z     vdW  Elec       q    Type
REMARK                         _______ _______ _______ _____ _____    ______ ____
ROOT
ATOM      1  N   LIG    1        6.111  -1.947   0.525  0.00  0.00    -0.740 N 
ATOM      2  H   LIG    1        6.959  -2.387   0.689  0.00  0.00    +0.390 HD
ATOM      3  C   LIG    1        5.444  -1.368   1.544  0.00  0.00    +0.710 C 
ATOM      4  N   LIG    1        5.905  -1.489   2.805  0.00  0.00    -0.630 N 
ATOM      5  C   LIG    1        5.139  -0.960   3.945  0.00  0.00    +0.280 C 
ATOM      6  C   LIG    1        5.012  -2.067   4.998  0.00  0.00    +0.220 C 
ATOM      7  O   LIG    1        6.311  -2.587   5.292  0.00  0.00    -0.370 OA
ATOM      8  C   LIG    1        6.961  -3.203   4.178  0.00  0.00    +0.200 C 
ATOM      9  C   LIG    1        7.185  -2.160   3.084  0.00  0.00    +0.260 C 
ATOM     10  O   LIG    1        4.428  -0.737   1.326  0.00  0.00    -0.580 OA
ENDROOT
BRANCH   8  11
ATOM     11  C   LIG    1        8.287  -3.768   4.618  0.00  0.00    -0.090 A 
ATOM     12  C   LIG    1        9.034  -3.108   5.576  0.00  0.00    +0.100 A 
ATOM     13  C   LIG    1       10.248  -3.628   5.985  0.00  0.00    +0.010 A 
ATOM     14  C   LIG    1       10.722  -4.803   5.427  0.00  0.00    +0.120 A 
ATOM     15  C   LIG    1        9.975  -5.460   4.462  0.00  0.00    -0.080 A 
ATOM     16 CL   LIG    1       10.566  -6.934   3.761  0.00  0.00    -0.040 Cl
ATOM     17  F   LIG    1       11.910  -5.308   5.822  0.00  0.00    -0.120 F 
ATOM     18  C   LIG    1        8.758  -4.941   4.059  0.00  0.00    +0.070 A 
ENDBRANCH   8  11
BRANCH   1  19
ATOM     19  C   LIG    1        5.553  -1.911  -0.829  0.00  0.00    +0.350 C 
BRANCH  19  25
ATOM     20  C   LIG    1        6.476  -4.009  -1.846  0.00  0.00    +0.140 A 
ATOM     21  C   LIG    1        7.336  -4.662  -2.718  0.00  0.00    -0.080 A 
ATOM     22  C   LIG    1        8.197  -3.931  -3.514  0.00  0.00    +0.060 A 
ATOM     23  C   LIG    1        8.203  -2.550  -3.441  0.00  0.00    -0.030 A 
ATOM     24  C   LIG    1        7.348  -1.897  -2.572  0.00  0.00    +0.070 A 
ATOM     25  C   LIG    1        6.485  -2.623  -1.775  0.00  0.00    -0.150 A 
BRANCH  20  27
ATOM     26  C   LIG    1        5.674  -6.148  -1.189  0.00  0.00    +0.250 C 
ATOM     27  O   LIG    1        5.628  -4.726  -1.063  0.00  0.00    -0.310 OA
ENDBRANCH  20  27
ENDBRANCH  19  25
ENDBRANCH   1  19
TORSDOF 4
