REMARK  Name = ZINCrD000007406O.0
REMARK                            x       y       z     vdW  Elec       q    Type
REMARK                         _______ _______ _______ _____ _____    ______ ____
ROOT
ATOM      1  C   LIG    1       -7.080  -9.469  -0.159  0.00  0.00    +0.030 C 
ATOM      2  C   LIG    1       -5.577  -9.331  -0.411  0.00  0.00    -0.020 C 
ATOM      3  C   LIG    1       -4.822 -10.377   0.413  0.00  0.00    +0.030 C 
ATOM      4  C   LIG    1       -3.352 -10.408  -0.022  0.00  0.00    +0.100 C 
ATOM      5  C   LIG    1       -2.821  -8.992  -0.019  0.00  0.00    +0.070 A 
ATOM      6  C   LIG    1       -3.608  -7.900  -0.007  0.00  0.00    -0.150 A 
ATOM      7  C   LIG    1       -2.732  -6.732  -0.008  0.00  0.00    -0.120 A 
ATOM      8  C   LIG    1       -2.945  -5.356   0.007  0.00  0.00    +0.150 A 
ATOM      9  C   LIG    1       -1.852  -4.494  -0.004  0.00  0.00    -0.160 A 
ATOM     10  C   LIG    1       -0.549  -5.012  -0.020  0.00  0.00    +0.090 A 
ATOM     11  C   LIG    1       -0.337  -6.358  -0.028  0.00  0.00    -0.010 A 
ATOM     12  C   LIG    1       -1.415  -7.240  -0.022  0.00  0.00    +0.130 A 
ATOM     13  N   LIG    1       -1.509  -8.611  -0.028  0.00  0.00    -0.580 N 
ATOM     14  H   LIG    1       -0.753  -9.220  -0.037  0.00  0.00    +0.420 HD
ATOM     15  C   LIG    1       -5.115  -7.928   0.004  0.00  0.00    +0.100 C 
ENDROOT
BRANCH   9  16
ATOM     16  C   LIG    1       -2.065  -3.034   0.005  0.00  0.00    +0.520 C 
ATOM     17  O   LIG    1       -3.194  -2.585   0.019  0.00  0.00    -0.510 OA
BRANCH  16  18
ATOM     18  O   LIG    1       -1.008  -2.199  -0.000  0.00  0.00    -0.330 OA
BRANCH  18  19
ATOM     19  C   LIG    1       -1.293  -0.775   0.010  0.00  0.00    +0.270 C 
BRANCH  19  20
ATOM     20  C   LIG    1        0.002  -0.004   0.002  0.00  0.00    +0.520 C 
ATOM     21  N   LIG    1       -0.016   1.344   0.009  0.00  0.00    -0.730 N 
ATOM     22  H   LIG    1       -0.863   1.817   0.016  0.00  0.00    +0.410 HD
ATOM     23  O   LIG    1        1.060  -0.596  -0.011  0.00  0.00    -0.510 OA
BRANCH  21  24
ATOM     24  C   LIG    1        1.242   2.093   0.001  0.00  0.00    +0.400 C 
BRANCH  24  25
ATOM     25  C   LIG    1        0.947   3.571   0.012  0.00  0.00    -0.050 A 
ATOM     26  C   LIG    1        0.798   4.335   1.109  0.00  0.00    -0.030 A 
ATOM     27  C   LIG    1        0.536   5.650   0.659  0.00  0.00    -0.070 A 
ATOM     28  C   LIG    1        0.533   5.609  -0.685  0.00  0.00    +0.190 A 
ATOM     29  O   LIG    1        0.782   4.347  -1.072  0.00  0.00    -0.170 OA
ENDBRANCH  24  25
ENDBRANCH  21  24
ENDBRANCH  19  20
ENDBRANCH  18  19
ENDBRANCH  16  18
ENDBRANCH   9  16
TORSDOF 6
