REMARK  Name = ZINCrH00000No4OM.0
REMARK                            x       y       z     vdW  Elec       q    Type
REMARK                         _______ _______ _______ _____ _____    ______ ____
ROOT
ATOM      1  N   LIG    1       -6.101  -4.250   4.011  0.00  0.00    -0.720 N 
ATOM      2  H   LIG    1       -6.565  -3.557   4.506  0.00  0.00    +0.400 HD
ATOM      3  C   LIG    1       -5.073  -3.927   3.202  0.00  0.00    +0.550 C 
ATOM      4  O   LIG    1       -4.491  -4.798   2.580  0.00  0.00    -0.550 OA
ENDROOT
BRANCH   3   5
ATOM      5  C   LIG    1       -4.670  -2.576   3.073  0.00  0.00    -0.080 C 
ATOM      6  C   LIG    1       -3.636  -2.251   2.258  0.00  0.00    +0.160 C 
BRANCH   6   7
ATOM      7  C   LIG    1       -3.234  -0.900   2.130  0.00  0.00    -0.020 A 
ATOM      8  C   LIG    1       -3.801   0.182   2.772  0.00  0.00    +0.010 A 
ATOM      9  C   LIG    1       -3.084   1.314   2.355  0.00  0.00    -0.060 A 
ATOM     10  C   LIG    1       -2.136   0.891   1.489  0.00  0.00    +0.050 A 
ATOM     11  O   LIG    1       -2.227  -0.440   1.358  0.00  0.00    -0.160 OA
BRANCH  10  12
ATOM     12  C   LIG    1       -1.136   1.773   0.788  0.00  0.00    +0.050 C 
ATOM     13  C   LIG    1       -0.013   1.086   0.008  0.00  0.00    +0.050 C 
ATOM     14  C   LIG    1       -1.150   1.781  -0.743  0.00  0.00    -0.010 C 
ATOM     15  C   LIG    1       -2.179   0.893  -1.445  0.00  0.00    +0.060 C 
ENDBRANCH  10  12
ENDBRANCH   6   7
ENDBRANCH   3   5
BRANCH   1  16
ATOM     16  C   LIG    1       -6.517  -5.648   4.144  0.00  0.00    +0.340 C 
BRANCH  16  22
ATOM     17  C   LIG    1       -8.959  -5.433   4.667  0.00  0.00    +0.150 A 
ATOM     18  C   LIG    1      -10.028  -5.516   5.546  0.00  0.00    -0.130 A 
ATOM     19  C   LIG    1       -9.816  -5.902   6.859  0.00  0.00    +0.150 A 
ATOM     20  C   LIG    1       -8.530  -6.208   7.293  0.00  0.00    +0.060 A 
ATOM     21  C   LIG    1       -7.465  -6.129   6.410  0.00  0.00    +0.040 A 
ATOM     22  C   LIG    1       -7.678  -5.738   5.101  0.00  0.00    -0.140 A 
BRANCH  17  24
ATOM     23  C   LIG    1      -10.512  -4.754   2.998  0.00  0.00    +0.250 C 
ATOM     24  O   LIG    1       -9.167  -5.053   3.378  0.00  0.00    -0.310 OA
ENDBRANCH  17  24
BRANCH  20  25
ATOM     25  O   LIG    1       -8.318  -6.588   8.582  0.00  0.00    -0.310 OA
ATOM     26  C   LIG    1       -6.973  -6.886   8.958  0.00  0.00    +0.240 C 
ENDBRANCH  20  25
BRANCH  19  27
ATOM     27  O   LIG    1      -10.863  -5.984   7.723  0.00  0.00    -0.300 OA
ATOM     28  C   LIG    1      -12.155  -5.655   7.208  0.00  0.00    +0.240 C 
ENDBRANCH  19  27
ENDBRANCH  16  22
ENDBRANCH   1  16
TORSDOF 8
