REMARK  Name = ZINCnE000001DaZq.0
REMARK                            x       y       z     vdW  Elec       q    Type
REMARK                         _______ _______ _______ _____ _____    ______ ____
ROOT
ATOM      1  N   LIG    1        1.235  -4.700  -2.856  0.00  0.00    -0.730 N 
ATOM      2  H   LIG    1        1.219  -4.067  -3.590  0.00  0.00    +0.390 HD
ATOM      3  C   LIG    1        1.251  -6.024  -3.109  0.00  0.00    +0.520 C 
ATOM      4  O   LIG    1        1.270  -6.817  -2.191  0.00  0.00    -0.510 OA
ENDROOT
BRANCH   3   5
ATOM      5  C   LIG    1        1.243  -6.520  -4.532  0.00  0.00    -0.020 C 
ATOM      6  C   LIG    1        2.478  -5.989  -5.263  0.00  0.00    +0.020 C 
ATOM      7  C   LIG    1        3.741  -6.486  -4.557  0.00  0.00    -0.010 C 
ATOM      8  C   LIG    1        3.762  -8.016  -4.564  0.00  0.00    +0.010 C 
ATOM      9  C   LIG    1        2.527  -8.546  -3.833  0.00  0.00    -0.070 C 
ATOM     10  C   LIG    1        1.264  -8.050  -4.540  0.00  0.00    +0.050 C 
BRANCH   9  11
ATOM     11  C   LIG    1        2.548 -10.053  -3.840  0.00  0.00    +0.500 C 
ATOM     12  O   LIG    1        1.636 -10.672  -4.362  0.00  0.00    -0.700 OA
ATOM     13  O   LIG    1        3.475 -10.652  -3.325  0.00  0.00    -0.710 OA
ENDBRANCH   9  11
ENDBRANCH   3   5
BRANCH   1  15
ATOM     14  C   LIG    1        2.505  -4.715  -0.766  0.00  0.00    +0.020 C 
ATOM     15  C   LIG    1        1.242  -4.219  -1.473  0.00  0.00    +0.180 C 
ATOM     16  C   LIG    1        0.007  -4.749  -0.742  0.00  0.00    +0.020 C 
BRANCH  15  17
ATOM     17  C   LIG    1        1.221  -2.689  -1.465  0.00  0.00    +0.030 C 
BRANCH  17  18
ATOM     18  C   LIG    1        1.229  -2.186  -0.021  0.00  0.00    +0.080 C 
BRANCH  18  19
ATOM     19  C   LIG    1        1.208  -0.679  -0.013  0.00  0.00    -0.080 A 
ATOM     20  C   LIG    1        0.002  -0.004   0.002  0.00  0.00    +0.000 A 
ATOM     21  C   LIG    1       -0.017   1.378   0.010  0.00  0.00    +0.000 A 
ATOM     22  C   LIG    1        1.171   2.086   0.002  0.00  0.00    -0.010 A 
ATOM     23  C   LIG    1        2.377   1.411  -0.015  0.00  0.00    +0.000 A 
ATOM     24  C   LIG    1        2.396   0.029  -0.021  0.00  0.00    +0.000 A 
ENDBRANCH  18  19
ENDBRANCH  17  18
ENDBRANCH  15  17
ENDBRANCH   1  15
TORSDOF 6
