REMARK  Name = ZINCrH000004ty4l.0
REMARK                            x       y       z     vdW  Elec       q    Type
REMARK                         _______ _______ _______ _____ _____    ______ ____
ROOT
ATOM      1  C   LIG    1        0.747   4.207   0.159  0.00  0.00    +0.420 A 
ATOM      2  C   LIG    1        1.597   3.114   0.113  0.00  0.00    -0.250 A 
ATOM      3  C   LIG    1        2.902   3.608  -0.083  0.00  0.00    +0.340 A 
ATOM      4  N   LIG    1        2.844   4.910  -0.160  0.00  0.00    -0.290 NA
ATOM      5  N   LIG    1        1.513   5.317  -0.009  0.00  0.00    -0.350 N 
ENDROOT
BRANCH   5   6
ATOM      6  C   LIG    1        1.050   6.640  -0.028  0.00  0.00    +0.110 A 
ATOM      7  C   LIG    1       -0.050   6.981  -0.802  0.00  0.00    +0.040 A 
ATOM      8  C   LIG    1       -0.507   8.285  -0.815  0.00  0.00    +0.030 A 
ATOM      9  C   LIG    1        0.137   9.253  -0.067  0.00  0.00    +0.060 A 
ATOM     10  C   LIG    1        1.237   8.920   0.702  0.00  0.00    +0.010 A 
ATOM     11  C   LIG    1        1.696   7.616   0.724  0.00  0.00    +0.120 A 
ATOM     12  F   LIG    1        2.772   7.290   1.474  0.00  0.00    -0.120 F 
ENDBRANCH   5   6
BRANCH   2  13
ATOM     13  C   LIG    1        1.208   1.692   0.250  0.00  0.00    +0.290 A 
ATOM     14  N   LIG    1       -0.006   1.234   0.438  0.00  0.00    -0.410 NA
ATOM     15  O   LIG    1        0.008   0.023   0.509  0.00  0.00    +0.070 OA
ATOM     16  C   LIG    1        1.264  -0.430   0.371  0.00  0.00    +0.240 A 
ATOM     17  N   LIG    1        2.037   0.628   0.205  0.00  0.00    -0.470 NA
BRANCH  16  18
ATOM     18  C   LIG    1        1.698  -1.841   0.399  0.00  0.00    -0.010 A 
ATOM     19  C   LIG    1        3.053  -2.157   0.233  0.00  0.00    +0.050 A 
ATOM     20  C   LIG    1        3.466  -3.455   0.261  0.00  0.00    +0.070 A 
ATOM     21  C   LIG    1        2.534  -4.481   0.446  0.00  0.00    -0.080 A 
ATOM     22  C   LIG    1        2.633  -5.939   0.519  0.00  0.00    -0.060 A 
ATOM     23  C   LIG    1        1.388  -6.409   0.712  0.00  0.00    +0.250 A 
ATOM     24  N   LIG    1        0.501  -5.371   0.767  0.00  0.00    -0.590 N 
ATOM     25  H   LIG    1       -0.456  -5.462   0.900  0.00  0.00    +0.420 HD
ATOM     26  C   LIG    1        1.168  -4.176   0.608  0.00  0.00    +0.080 A 
ATOM     27  C   LIG    1        0.757  -2.851   0.583  0.00  0.00    +0.050 A 
ENDBRANCH  16  18
ENDBRANCH   2  13
BRANCH   1  28
ATOM     28  N   LIG    1       -0.627   4.175   0.341  0.00  0.00    -0.830 N 
ATOM     29  H   LIG    1       -1.122   5.002   0.447  0.00  0.00    +0.410 HD
ATOM     30  H   LIG    1       -1.094   3.325   0.362  0.00  0.00    +0.430 HD
ENDBRANCH   1  28
TORSDOF 4
