REMARK  Name = ZINCpk00001AZiCr.0
REMARK                            x       y       z     vdW  Elec       q    Type
REMARK                         _______ _______ _______ _____ _____    ______ ____
ROOT
ATOM      1  N   LIG    1       -3.146   7.108   2.221  0.00  0.00    -0.510 NA
ATOM      2  C   LIG    1       -1.751   7.533   2.102  0.00  0.00    +0.170 C 
ATOM      3  C   LIG    1       -0.861   6.534   1.479  0.00  0.00    +0.010 C 
ATOM      4  C   LIG    1       -1.323   6.256   0.026  0.00  0.00    +0.270 C 
ATOM      5  N   LIG    1       -2.583   5.544   0.047  0.00  0.00    -0.590 N 
ATOM      6  C   LIG    1       -3.892   6.229   0.060  0.00  0.00    +0.280 C 
ATOM      7  C   LIG    1       -2.561   4.197   0.049  0.00  0.00    +0.550 C 
ATOM      8  O   LIG    1       -3.604   3.571   0.067  0.00  0.00    -0.550 OA
ATOM      9  C   LIG    1       -3.884   7.439   1.020  0.00  0.00    +0.190 C 
ENDROOT
BRANCH   7  10
ATOM     10  C   LIG    1       -1.281   3.485   0.031  0.00  0.00    -0.080 C 
ATOM     11  C   LIG    1       -1.259   2.138   0.033  0.00  0.00    +0.120 C 
BRANCH  11  12
ATOM     12  C   LIG    1        0.027   1.422   0.014  0.00  0.00    -0.130 A 
ATOM     13  C   LIG    1        0.064   0.020   0.017  0.00  0.00    +0.090 A 
ATOM     14  C   LIG    1        1.299  -0.602  -0.007  0.00  0.00    -0.030 A 
ATOM     15  C   LIG    1        2.447   0.170  -0.033  0.00  0.00    +0.270 A 
ATOM     16  N   LIG    1        2.383   1.488  -0.034  0.00  0.00    -0.480 NA
ATOM     17  C   LIG    1        1.234   2.128  -0.012  0.00  0.00    +0.280 A 
ENDBRANCH  11  12
ENDBRANCH   7  10
BRANCH   1  18
ATOM     18  C   LIG    1       -3.777   7.700   3.408  0.00  0.00    +0.250 C 
BRANCH  18  20
ATOM     19  N   LIG    1       -4.279   9.964   4.268  0.00  0.00    -0.610 N 
ATOM     20  C   LIG    1       -3.827   9.198   3.255  0.00  0.00    +0.480 C 
ATOM     21  O   LIG    1       -3.459   9.715   2.221  0.00  0.00    -0.540 OA
BRANCH  19  23
ATOM     22  C   LIG    1       -5.684  11.830   3.543  0.00  0.00    +0.020 C 
ATOM     23  C   LIG    1       -4.327  11.421   4.119  0.00  0.00    +0.270 C 
ENDBRANCH  19  23
BRANCH  19  24
ATOM     24  C   LIG    1       -4.723   9.340   5.516  0.00  0.00    +0.260 C 
ATOM     25  C   LIG    1       -3.537   9.220   6.476  0.00  0.00    +0.020 C 
ENDBRANCH  19  24
ENDBRANCH  18  20
ENDBRANCH   1  18
TORSDOF 6
