REMARK  Name = ZINCqH0000004p1k.0
REMARK                            x       y       z     vdW  Elec       q    Type
REMARK                         _______ _______ _______ _____ _____    ______ ____
ROOT
ATOM      1  N   LIG    1        4.139  -0.694  -0.042  0.00  0.00    -0.710 N 
ATOM      2  H   LIG    1        3.610  -1.507  -0.041  0.00  0.00    +0.400 HD
ATOM      3  C   LIG    1        3.527   0.507  -0.030  0.00  0.00    +0.610 C 
ATOM      4  O   LIG    1        4.189   1.527  -0.031  0.00  0.00    -0.530 OA
ENDROOT
BRANCH   3   5
ATOM      5  C   LIG    1        2.052   0.585  -0.014  0.00  0.00    -0.020 A 
ATOM      6  N   LIG    1        1.213  -0.432  -0.012  0.00  0.00    -0.260 NA
ATOM      7  N   LIG    1        0.002  -0.004   0.002  0.00  0.00    -0.260 N 
ATOM      8  C   LIG    1       -0.016   1.346   0.009  0.00  0.00    +0.050 A 
ATOM      9  C   LIG    1        1.271   1.765  -0.001  0.00  0.00    -0.020 A 
BRANCH   7  10
ATOM     10  C   LIG    1       -1.188  -0.858   0.008  0.00  0.00    +0.170 C 
ATOM     11  C   LIG    1       -2.011  -0.576   1.267  0.00  0.00    +0.050 C 
ATOM     12  C   LIG    1       -0.762  -2.328  -0.004  0.00  0.00    +0.070 C 
ATOM     13  C   LIG    1       -2.034  -0.563  -1.232  0.00  0.00    +0.050 C 
ENDBRANCH   7  10
BRANCH   8  14
ATOM     14  C   LIG    1       -1.241   2.224   0.020  0.00  0.00    +0.010 C 
ATOM     15  C   LIG    1       -1.163   3.556  -0.727  0.00  0.00    +0.040 C 
ATOM     16  C   LIG    1       -1.164   3.535   0.804  0.00  0.00    +0.040 C 
ENDBRANCH   8  14
ENDBRANCH   3   5
BRANCH   1  17
ATOM     17  C   LIG    1        5.602  -0.770  -0.057  0.00  0.00    +0.320 C 
BRANCH  17  18
ATOM     18  C   LIG    1        6.030  -2.079  -0.669  0.00  0.00    -0.250 A 
ATOM     19  C   LIG    1        7.004  -2.245  -1.593  0.00  0.00    +0.100 A 
ATOM     20  N   LIG    1        7.080  -3.562  -1.879  0.00  0.00    -0.370 N 
ATOM     21  N   LIG    1        6.115  -4.226  -1.111  0.00  0.00    -0.290 NA
ATOM     22  C   LIG    1        8.005  -4.186  -2.828  0.00  0.00    +0.360 C 
ATOM     23  C   LIG    1        7.854  -1.156  -2.193  0.00  0.00    +0.140 C 
ATOM     24  C   LIG    1        5.486  -3.337  -0.386  0.00  0.00    +0.090 A 
ATOM     25  C   LIG    1        4.369  -3.618   0.585  0.00  0.00    +0.160 C 
ENDBRANCH  17  18
BRANCH  17  27
ATOM     26  C   LIG    1        5.805   0.699   1.953  0.00  0.00    +0.020 C 
ATOM     27  C   LIG    1        6.132  -0.679   1.375  0.00  0.00    +0.000 C 
ENDBRANCH  17  27
ENDBRANCH   1  17
TORSDOF 6
