REMARK  Name = ZINCrD000000CriU.0
REMARK                            x       y       z     vdW  Elec       q    Type
REMARK                         _______ _______ _______ _____ _____    ______ ____
ROOT
ATOM      1  C   LIG    1       -3.159  -2.253   2.932  0.00  0.00    -0.080 A 
ATOM      2  C   LIG    1       -2.443  -1.771   4.035  0.00  0.00    +0.060 A 
ATOM      3  C   LIG    1       -2.847  -2.064   5.306  0.00  0.00    +0.100 A 
ATOM      4  C   LIG    1       -3.975  -2.856   5.511  0.00  0.00    -0.170 A 
ATOM      5  C   LIG    1       -4.448  -3.205   6.858  0.00  0.00    +0.550 A 
ATOM      6  N   LIG    1       -5.556  -3.982   6.962  0.00  0.00    -0.560 N 
ATOM      7  C   LIG    1       -6.223  -4.470   8.182  0.00  0.00    +0.280 C 
ATOM      8  C   LIG    1       -7.635  -4.905   7.737  0.00  0.00    +0.070 C 
ATOM      9  C   LIG    1       -7.405  -5.255   6.251  0.00  0.00    +0.160 C 
ATOM     10  C   LIG    1       -6.203  -4.416   5.847  0.00  0.00    +0.400 A 
ATOM     11  N   LIG    1       -5.798  -4.119   4.641  0.00  0.00    -0.520 NA
ATOM     12  O   LIG    1       -3.865  -2.809   7.850  0.00  0.00    -0.500 OA
ATOM     13  C   LIG    1       -4.706  -3.354   4.409  0.00  0.00    +0.160 A 
ATOM     14  C   LIG    1       -4.286  -3.045   3.114  0.00  0.00    +0.120 A 
ENDROOT
BRANCH   1  16
ATOM     15  O   LIG    1       -3.323  -2.340   0.602  0.00  0.00    -0.490 OA
ATOM     16  C   LIG    1       -2.708  -1.921   1.562  0.00  0.00    +0.520 C 
BRANCH  16  17
ATOM     17  O   LIG    1       -1.616  -1.154   1.380  0.00  0.00    -0.340 OA
BRANCH  17  18
ATOM     18  C   LIG    1       -1.232  -0.869   0.009  0.00  0.00    +0.360 C 
BRANCH  18  19
ATOM     19  C   LIG    1        0.002  -0.004   0.002  0.00  0.00    +0.070 A 
ATOM     20  N   LIG    1        1.198  -0.457  -0.012  0.00  0.00    -0.440 NA
ATOM     21  C   LIG    1        2.208   0.433  -0.017  0.00  0.00    +0.080 A 
ATOM     22  C   LIG    1        3.601   0.215  -0.032  0.00  0.00    +0.080 A 
ATOM     23  C   LIG    1        4.464   1.269  -0.035  0.00  0.00    +0.030 A 
ATOM     24  C   LIG    1        3.992   2.573  -0.023  0.00  0.00    +0.050 A 
ATOM     25  C   LIG    1        2.637   2.817  -0.009  0.00  0.00    +0.060 A 
ATOM     26  C   LIG    1        1.739   1.752  -0.005  0.00  0.00    -0.180 A 
ATOM     27  S   LIG    1       -0.021   1.702   0.011  0.00  0.00    +0.140 S 
ENDBRANCH  18  19
ENDBRANCH  17  18
ENDBRANCH  16  17
ENDBRANCH   1  16
TORSDOF 4
