REMARK  Name = ZINCpe000000XP3r.0
REMARK                            x       y       z     vdW  Elec       q    Type
REMARK                         _______ _______ _______ _____ _____    ______ ____
ROOT
ATOM      1  C   LIG    1        3.609   5.889  -0.001  0.00  0.00    +0.520 C 
ATOM      2  N   LIG    1        3.766   7.228   0.005  0.00  0.00    -0.610 N 
ATOM      3  C   LIG    1        2.596   8.118   0.013  0.00  0.00    +0.270 C 
ATOM      4  C   LIG    1        2.718   9.068   1.216  0.00  0.00    +0.290 C 
ATOM      5  N   LIG    1        4.062   9.664   1.207  0.00  0.00    -1.010 NA
ATOM      6  C   LIG    1        5.231   8.775   1.193  0.00  0.00    +0.290 C 
ATOM      7  C   LIG    1        5.109   7.824  -0.004  0.00  0.00    +0.290 C 
ATOM      8  O   LIG    1        4.582   5.165  -0.013  0.00  0.00    -0.510 OA
ENDROOT
BRANCH   5   9
ATOM      9  S   LIG    1        4.254  11.309   1.213  0.00  0.00    +2.800 S 
ATOM     10  O   LIG    1        5.547  11.560   1.747  0.00  0.00    -0.970 OA
ATOM     11  O   LIG    1        3.064  11.850   1.770  0.00  0.00    -0.970 OA
BRANCH   9  12
ATOM     12  N   LIG    1        4.296  11.803  -0.367  0.00  0.00    -1.020 NA
ATOM     13  C   LIG    1        5.506  11.926  -1.194  0.00  0.00    +0.250 C 
ATOM     14  C   LIG    1        5.063  12.440  -2.580  0.00  0.00    +0.030 C 
ATOM     15  C   LIG    1        3.704  13.124  -2.277  0.00  0.00    +0.030 C 
ATOM     16  C   LIG    1        3.129  12.198  -1.176  0.00  0.00    +0.260 C 
ENDBRANCH   9  12
ENDBRANCH   5   9
BRANCH   1  17
ATOM     17  C   LIG    1        2.225   5.292   0.009  0.00  0.00    +0.220 C 
BRANCH  17  18
ATOM     18  O   LIG    1        2.322   3.866   0.001  0.00  0.00    -0.290 OA
BRANCH  18  23
ATOM     19  C   LIG    1       -2.513   0.977   0.019  0.00  0.00    +0.100 C 
ATOM     20  C   LIG    1       -1.220   1.750   0.017  0.00  0.00    -0.120 A 
ATOM     21  C   LIG    1       -0.013   1.076   0.008  0.00  0.00    +0.050 A 
ATOM     22  C   LIG    1        1.175   1.782   0.000  0.00  0.00    -0.010 A 
ATOM     23  C   LIG    1        1.155   3.169   0.008  0.00  0.00    +0.120 A 
ATOM     24  C   LIG    1       -0.057   3.844   0.022  0.00  0.00    -0.080 A 
ATOM     25  C   LIG    1       -1.242   3.133   0.030  0.00  0.00    +0.050 A 
ENDBRANCH  18  23
ENDBRANCH  17  18
ENDBRANCH   1  17
TORSDOF 5
