REMARK  Name = ZINCtV000002PsMk.0
REMARK                            x       y       z     vdW  Elec       q    Type
REMARK                         _______ _______ _______ _____ _____    ______ ____
ROOT
ATOM      1  C   LIG    1        1.056   2.334   0.001  0.00  0.00    -0.010 A 
ATOM      2  C   LIG    1       -0.018   1.502   0.002  0.00  0.00    -0.070 A 
ATOM      3  C   LIG    1       -1.199   2.365   0.009  0.00  0.00    -0.130 A 
ATOM      4  C   LIG    1       -2.576   2.132   0.024  0.00  0.00    +0.080 A 
ATOM      5  C   LIG    1       -3.442   3.188   0.037  0.00  0.00    +0.010 A 
ATOM      6  C   LIG    1       -2.963   4.491   0.043  0.00  0.00    +0.060 A 
ATOM      7  C   LIG    1       -1.607   4.743   0.036  0.00  0.00    +0.030 A 
ATOM      8  C   LIG    1       -0.707   3.684   0.022  0.00  0.00    +0.070 A 
ATOM      9  O   LIG    1        0.638   3.617   0.013  0.00  0.00    -0.180 OA
ENDROOT
BRANCH   1  11
ATOM     10  O   LIG    1        2.733   0.719   0.076  0.00  0.00    -0.480 OA
ATOM     11  C   LIG    1        2.460   1.901  -0.011  0.00  0.00    +0.610 C 
ATOM     12  N   LIG    1        3.445   2.814  -0.117  0.00  0.00    -0.540 N 
ATOM     13  C   LIG    1        3.248   4.267  -0.119  0.00  0.00    +0.280 C 
ATOM     14  C   LIG    1        4.658   4.864  -0.260  0.00  0.00    +0.100 C 
ATOM     15  C   LIG    1        5.575   3.664  -0.329  0.00  0.00    -0.130 A 
ATOM     16  C   LIG    1        6.948   3.579  -0.457  0.00  0.00    +0.050 A 
ATOM     17  C   LIG    1        7.568   2.344  -0.481  0.00  0.00    +0.000 A 
ATOM     18  C   LIG    1        6.809   1.191  -0.392  0.00  0.00    +0.040 A 
ATOM     19  C   LIG    1        5.438   1.271  -0.269  0.00  0.00    +0.010 A 
ATOM     20  C   LIG    1        4.805   2.515  -0.235  0.00  0.00    +0.140 A 
ENDBRANCH   1  11
BRANCH   2  21
ATOM     21  C   LIG    1        0.002  -0.004  -0.009  0.00  0.00    +0.170 C 
BRANCH  21  22
ATOM     22  S   LIG    1        0.021  -0.622   1.697  0.00  0.00    -0.080 S 
BRANCH  22  23
ATOM     23  C   LIG    1        0.044  -2.371   1.485  0.00  0.00    -0.080 A 
ATOM     24  C   LIG    1        0.038  -2.918   0.208  0.00  0.00    +0.010 A 
ATOM     25  C   LIG    1        0.060  -4.289   0.045  0.00  0.00    +0.050 A 
ATOM     26  C   LIG    1        0.079  -5.118   1.153  0.00  0.00    -0.040 A 
ATOM     27  C   LIG    1        0.080  -4.576   2.427  0.00  0.00    +0.050 A 
ATOM     28 CL   LIG    1        0.099  -6.841   0.945  0.00  0.00    -0.070 Cl
ATOM     29  C   LIG    1        0.062  -3.206   2.596  0.00  0.00    +0.050 A 
ENDBRANCH  22  23
ENDBRANCH  21  22
ENDBRANCH   2  21
TORSDOF 4
