REMARK  Name = ZINCrH000004tZdC.0
REMARK                            x       y       z     vdW  Elec       q    Type
REMARK                         _______ _______ _______ _____ _____    ______ ____
ROOT
ATOM      1  O   LIG    1        2.088   9.596   0.136  0.00  0.00    -0.500 OA
ATOM      2  C   LIG    1        1.028  10.185   0.148  0.00  0.00    +0.500 C 
ATOM      3  N   LIG    1       -0.127   9.496   0.054  0.00  0.00    -0.670 N 
ATOM      4  H   LIG    1       -0.970   9.970  -0.013  0.00  0.00    +0.410 HD
ENDROOT
BRANCH   3   5
ATOM      5  C   LIG    1       -0.108   8.098   0.053  0.00  0.00    +0.150 A 
ATOM      6  C   LIG    1        0.849   7.416   0.794  0.00  0.00    +0.030 A 
ATOM      7  C   LIG    1        0.869   6.037   0.795  0.00  0.00    +0.040 A 
ATOM      8  C   LIG    1       -0.072   5.327   0.051  0.00  0.00    -0.060 A 
ATOM      9  C   LIG    1       -1.028   6.013  -0.697  0.00  0.00    +0.040 A 
ATOM     10  C   LIG    1       -1.048   7.392  -0.690  0.00  0.00    -0.010 A 
BRANCH   8  11
ATOM     11  C   LIG    1       -0.053   3.844   0.050  0.00  0.00    -0.040 A 
ATOM     12  C   LIG    1       -0.993   3.133  -0.693  0.00  0.00    +0.020 A 
ATOM     13  C   LIG    1       -0.971   1.753  -0.690  0.00  0.00    +0.000 A 
ATOM     14  C   LIG    1       -0.017   1.076   0.048  0.00  0.00    +0.000 A 
ATOM     15  C   LIG    1        0.915   1.776   0.792  0.00  0.00    +0.000 A 
ATOM     16  C   LIG    1        0.905   3.156   0.792  0.00  0.00    +0.020 A 
ENDBRANCH   8  11
ENDBRANCH   3   5
BRANCH   2  17
ATOM     17  C   LIG    1        1.001  11.687   0.270  0.00  0.00    +0.350 C 
BRANCH  17  18
ATOM     18  N   LIG    1        2.373  12.194   0.357  0.00  0.00    -0.500 N 
ATOM     19  C   LIG    1        2.974  12.343   1.557  0.00  0.00    +0.500 A 
ATOM     20  C   LIG    1        4.351  12.848   1.610  0.00  0.00    +0.300 A 
ATOM     21  N   LIG    1        4.978  13.159   0.512  0.00  0.00    -0.400 NA
ATOM     22  C   LIG    1        4.386  13.020  -0.690  0.00  0.00    +0.020 A 
ATOM     23  C   LIG    1        5.080  13.361  -1.860  0.00  0.00    +0.120 A 
ATOM     24  C   LIG    1        4.478  13.220  -3.076  0.00  0.00    +0.000 A 
ATOM     25  C   LIG    1        3.178  12.740  -3.171  0.00  0.00    +0.090 A 
ATOM     26  C   LIG    1        2.474  12.398  -2.038  0.00  0.00    -0.030 A 
ATOM     27  O   LIG    1        2.383  12.057   2.582  0.00  0.00    -0.510 OA
ATOM     28  C   LIG    1        3.068  12.533  -0.786  0.00  0.00    +0.160 A 
ENDBRANCH  17  18
ENDBRANCH   2  17
TORSDOF 4
