REMARK  Name = ZINCrH000004lBkT.1
REMARK                            x       y       z     vdW  Elec       q    Type
REMARK                         _______ _______ _______ _____ _____    ______ ____
ROOT
ATOM      1  N   LIG    1        0.758   7.673   0.036  0.00  0.00    -0.690 N 
ATOM      2  H   LIG    1        0.655   8.145   0.877  0.00  0.00    +0.410 HD
ATOM      3  C   LIG    1        0.787   8.360  -1.123  0.00  0.00    +0.700 C 
ATOM      4  N   LIG    1        0.765   9.707  -1.109  0.00  0.00    -0.740 N 
ATOM      5  H   LIG    1        0.729  10.183  -0.265  0.00  0.00    +0.400 HD
ATOM      6  O   LIG    1        0.832   7.763  -2.182  0.00  0.00    -0.570 OA
ENDROOT
BRANCH   1  10
ATOM      7  C   LIG    1        1.115   3.522   0.009  0.00  0.00    -0.110 A 
ATOM      8  C   LIG    1        1.663   4.255   1.046  0.00  0.00    +0.050 A 
ATOM      9  C   LIG    1        1.551   5.631   1.054  0.00  0.00    -0.020 A 
ATOM     10  C   LIG    1        0.878   6.279   0.027  0.00  0.00    +0.170 A 
ATOM     11  C   LIG    1        0.324   5.539  -1.010  0.00  0.00    +0.020 A 
ATOM     12  C   LIG    1        0.444   4.163  -1.016  0.00  0.00    +0.050 A 
BRANCH   7  13
ATOM     13  C   LIG    1        1.242   2.020  -0.000  0.00  0.00    +0.220 C 
BRANCH  13  15
ATOM     14  C   LIG    1        2.653   0.237  -0.759  0.00  0.00    +0.200 C 
ATOM     15  O   LIG    1        2.436   1.648  -0.693  0.00  0.00    -0.390 OA
ENDBRANCH  13  15
ENDBRANCH   7  13
ENDBRANCH   1  10
BRANCH   4  16
ATOM     16  C   LIG    1        0.796  10.453  -2.370  0.00  0.00    +0.250 C 
ATOM     17  C   LIG    1        2.247  10.631  -2.824  0.00  0.00    +0.010 C 
ATOM     18  C   LIG    1        2.276  11.465  -4.107  0.00  0.00    +0.170 C 
ATOM     19  N   LIG    1        1.657  12.773  -3.858  0.00  0.00    -0.530 NA
ATOM     20  C   LIG    1        0.249  12.628  -3.467  0.00  0.00    +0.180 C 
ATOM     21  C   LIG    1        0.160  11.831  -2.164  0.00  0.00    +0.040 C 
BRANCH  19  22
ATOM     22  C   LIG    1        1.791  13.650  -5.029  0.00  0.00    +0.230 C 
BRANCH  22  23
ATOM     23  C   LIG    1        3.247  13.972  -5.251  0.00  0.00    -0.090 A 
ATOM     24  C   LIG    1        3.808  15.084  -4.650  0.00  0.00    +0.060 A 
ATOM     25  C   LIG    1        5.143  15.378  -4.849  0.00  0.00    -0.010 A 
ATOM     26  C   LIG    1        5.917  14.564  -5.660  0.00  0.00    +0.100 A 
ATOM     27  C   LIG    1        5.353  13.454  -6.265  0.00  0.00    -0.010 A 
ATOM     28  F   LIG    1        7.222  14.853  -5.859  0.00  0.00    -0.140 F 
ATOM     29  C   LIG    1        4.018  13.159  -6.060  0.00  0.00    +0.040 A 
ENDBRANCH  22  23
ENDBRANCH  19  22
ENDBRANCH   4  16
TORSDOF 6
