REMARK  Name = ZINCqH0000035YQm.0
REMARK                            x       y       z     vdW  Elec       q    Type
REMARK                         _______ _______ _______ _____ _____    ______ ____
ROOT
ATOM      1  N   LIG    1       -0.405   1.943   2.461  0.00  0.00    -0.460 N 
ATOM      2  C   LIG    1        0.550   2.754   1.662  0.00  0.00    +0.170 C 
ATOM      3  C   LIG    1        0.645   2.020   0.307  0.00  0.00    +0.030 C 
ATOM      4  C   LIG    1       -0.671   1.224   0.190  0.00  0.00    +0.260 C 
ATOM      5  C   LIG    1       -1.450   1.543   1.483  0.00  0.00    +0.190 C 
ENDROOT
BRANCH   1  12
ATOM      6  C   LIG    1       -0.779   2.298   4.825  0.00  0.00    +0.160 A 
ATOM      7  C   LIG    1       -1.321   3.051   5.852  0.00  0.00    -0.050 A 
ATOM      8  C   LIG    1       -2.046   4.193   5.565  0.00  0.00    +0.070 A 
ATOM      9  C   LIG    1       -2.227   4.590   4.252  0.00  0.00    -0.060 A 
ATOM     10  C   LIG    1       -1.684   3.845   3.220  0.00  0.00    +0.040 A 
ATOM     11 CL   LIG    1       -3.138   6.025   3.898  0.00  0.00    -0.070 Cl
ATOM     12  C   LIG    1       -0.956   2.699   3.502  0.00  0.00    +0.060 A 
BRANCH   6  14
ATOM     13  C   LIG    1        0.071   0.821   6.485  0.00  0.00    +0.240 C 
ATOM     14  O   LIG    1       -0.070   1.171   5.107  0.00  0.00    -0.290 OA
ENDBRANCH   6  14
ENDBRANCH   1  12
BRANCH   4  15
ATOM     15  N   LIG    1       -0.391  -0.212   0.105  0.00  0.00    -0.730 N 
ATOM     16  H   LIG    1       -0.390  -0.753   0.910  0.00  0.00    +0.400 HD
ATOM     17  C   LIG    1       -0.135  -0.779  -1.090  0.00  0.00    +0.710 C 
ATOM     18  N   LIG    1        0.122  -2.100  -1.168  0.00  0.00    -0.620 N 
ATOM     19  C   LIG    1        0.124  -2.918   0.048  0.00  0.00    +0.280 C 
ATOM     20  O   LIG    1       -0.137  -0.100  -2.099  0.00  0.00    -0.590 OA
BRANCH  18  21
ATOM     21  C   LIG    1        0.400  -2.717  -2.467  0.00  0.00    +0.320 C 
BRANCH  21  22
ATOM     22  C   LIG    1       -0.550  -3.896  -2.685  0.00  0.00    -0.050 C 
ATOM     23  C   LIG    1       -1.334  -3.938  -3.999  0.00  0.00    +0.030 C 
ATOM     24  C   LIG    1       -2.052  -3.602  -2.690  0.00  0.00    +0.010 C 
ENDBRANCH  21  22
BRANCH  21  25
ATOM     25  C   LIG    1        1.846  -3.216  -2.496  0.00  0.00    -0.070 C 
ATOM     26  C   LIG    1        2.838  -2.455  -3.378  0.00  0.00    +0.020 C 
ATOM     27  C   LIG    1        2.351  -3.844  -3.797  0.00  0.00    +0.020 C 
ENDBRANCH  21  25
ENDBRANCH  18  21
ENDBRANCH   4  15
TORSDOF 6
