REMARK  Name = ZINCtj0000004s7w.0
REMARK                            x       y       z     vdW  Elec       q    Type
REMARK                         _______ _______ _______ _____ _____    ______ ____
ROOT
ATOM      1  O   LIG    1        2.158   3.251   8.974  0.00  0.00    -0.520 OA
ATOM      2  C   LIG    1        1.958   2.215   8.369  0.00  0.00    +0.570 C 
ATOM      3  N   LIG    1        0.993   2.159   7.430  0.00  0.00    -0.610 N 
ATOM      4  C   LIG    1        0.116   3.312   7.178  0.00  0.00    +0.310 C 
ATOM      5  C   LIG    1       -1.340   2.834   7.222  0.00  0.00    +0.190 C 
ATOM      6  N   LIG    1       -1.511   1.709   6.293  0.00  0.00    -0.530 NA
ATOM      7  C   LIG    1       -0.692   0.558   6.694  0.00  0.00    +0.170 C 
ATOM      8  C   LIG    1        0.790   0.942   6.629  0.00  0.00    +0.290 C 
ENDROOT
BRANCH   2   9
ATOM      9  C   LIG    1        2.774   1.018   8.665  0.00  0.00    -0.150 A 
ATOM     10  C   LIG    1        3.367   0.301   7.625  0.00  0.00    +0.100 A 
ATOM     11  C   LIG    1        4.128  -0.815   7.907  0.00  0.00    +0.000 A 
ATOM     12  C   LIG    1        4.303  -1.223   9.217  0.00  0.00    +0.150 A 
ATOM     13  C   LIG    1        3.718  -0.516  10.253  0.00  0.00    -0.680 A 
ATOM     14  C   LIG    1        2.959   0.604   9.985  0.00  0.00    +0.180 A 
BRANCH  13  15
ATOM     15  S   LIG    1        3.948  -1.044  11.918  0.00  0.00    +2.710 S 
ATOM     16  O   LIG    1        4.260  -2.429  11.860  0.00  0.00    -0.940 OA
ATOM     17  O   LIG    1        2.853  -0.524  12.659  0.00  0.00    -0.950 OA
BRANCH  15  18
ATOM     18  N   LIG    1        5.303  -0.283  12.491  0.00  0.00    -1.010 NA
ATOM     19  C   LIG    1        6.676  -0.802  12.411  0.00  0.00    +0.270 C 
ATOM     20  C   LIG    1        7.597   0.231  13.093  0.00  0.00    +0.040 C 
ATOM     21  C   LIG    1        6.624   1.001  14.024  0.00  0.00    +0.040 C 
ATOM     22  C   LIG    1        5.331   1.025  13.171  0.00  0.00    +0.270 C 
ENDBRANCH  15  18
ENDBRANCH  13  15
ENDBRANCH   2   9
BRANCH   6  23
ATOM     23  C   LIG    1       -2.926   1.333   6.176  0.00  0.00    +0.190 C 
BRANCH  23  24
ATOM     24  C   LIG    1       -3.096   0.338   5.026  0.00  0.00    +0.260 C 
BRANCH  24  25
ATOM     25  N   LIG    1       -4.511  -0.038   4.909  0.00  0.00    -0.390 N 
ATOM     26  C   LIG    1       -4.676  -1.089   3.882  0.00  0.00    +0.250 C 
ATOM     27  C   LIG    1       -6.015  -0.823   3.169  0.00  0.00    +0.070 C 
ATOM     28  C   LIG    1       -6.580   0.454   3.833  0.00  0.00    +0.070 C 
ATOM     29  C   LIG    1       -5.316   1.120   4.433  0.00  0.00    +0.260 C 
ATOM     30  H   LIG    1       -4.861  -0.362   5.798  0.00  0.00    +0.430 HD
ENDBRANCH  24  25
ENDBRANCH  23  24
ENDBRANCH   6  23
TORSDOF 6
