REMARK  Name = ZINCvU0000000EPC.0
REMARK                            x       y       z     vdW  Elec       q    Type
REMARK                         _______ _______ _______ _____ _____    ______ ____
ROOT
ATOM      1  C   LIG    1        4.017   1.961  -0.026  0.00  0.00    +0.210 A 
ATOM      2  N   LIG    1        3.768   3.266  -0.016  0.00  0.00    -0.290 NA
ATOM      3  N   LIG    1        4.719   4.133  -0.020  0.00  0.00    -0.160 NA
ATOM      4  C   LIG    1        5.988   3.742  -0.034  0.00  0.00    +0.060 A 
ATOM      5  C   LIG    1        6.277   2.362  -0.044  0.00  0.00    +0.230 A 
ATOM      6  N   LIG    1        5.261   1.501  -0.035  0.00  0.00    -0.440 NA
ENDROOT
BRANCH   5   7
ATOM      7  C   LIG    1        7.678   1.881  -0.060  0.00  0.00    -0.080 A 
ATOM      8  C   LIG    1        8.653   2.589  -0.761  0.00  0.00    +0.060 A 
ATOM      9  C   LIG    1        9.957   2.138  -0.768  0.00  0.00    +0.000 A 
ATOM     10  C   LIG    1       10.296   0.981  -0.089  0.00  0.00    +0.040 A 
ATOM     11  C   LIG    1        9.332   0.272   0.605  0.00  0.00    +0.000 A 
ATOM     12  C   LIG    1        8.025   0.715   0.623  0.00  0.00    +0.070 A 
ENDBRANCH   5   7
BRANCH   4  13
ATOM     13  C   LIG    1        7.084   4.739  -0.039  0.00  0.00    -0.060 A 
ATOM     14  C   LIG    1        8.271   4.479   0.645  0.00  0.00    +0.050 A 
ATOM     15  C   LIG    1        9.289   5.410   0.633  0.00  0.00    +0.010 A 
ATOM     16  C   LIG    1        9.131   6.604  -0.048  0.00  0.00    +0.030 A 
ATOM     17  C   LIG    1        7.954   6.870  -0.724  0.00  0.00    +0.000 A 
ATOM     18  C   LIG    1        6.930   5.944  -0.724  0.00  0.00    +0.060 A 
ENDBRANCH   4  13
BRANCH   1  19
ATOM     19  S   LIG    1        2.672   0.822  -0.019  0.00  0.00    +0.130 S 
BRANCH  19  20
ATOM     20  C   LIG    1        1.280   1.980   0.001  0.00  0.00    +0.090 C 
BRANCH  20  22
ATOM     21  O   LIG    1        0.002  -0.004   0.002  0.00  0.00    -0.450 OA
ATOM     22  C   LIG    1       -0.014   1.209   0.009  0.00  0.00    +0.530 C 
ATOM     23  N   LIG    1       -1.191   1.867   0.018  0.00  0.00    -0.650 N 
ATOM     24  H   LIG    1       -1.204   2.836   0.023  0.00  0.00    +0.420 HD
BRANCH  23  25
ATOM     25  C   LIG    1       -2.389   1.153   0.020  0.00  0.00    +0.380 A 
ATOM     26  N   LIG    1       -2.364  -0.170   0.007  0.00  0.00    -0.450 NA
ATOM     27  C   LIG    1       -3.474  -0.884   0.013  0.00  0.00    +0.340 A 
ATOM     28  C   LIG    1       -4.711  -0.270   0.022  0.00  0.00    -0.110 A 
ATOM     29  C   LIG    1       -4.782   1.118   0.030  0.00  0.00    +0.130 A 
ATOM     30 CL   LIG    1       -6.163  -1.222   0.024  0.00  0.00    -0.040 Cl
ATOM     31  C   LIG    1       -3.600   1.839   0.029  0.00  0.00    -0.120 A 
ATOM     32 CL   LIG    1       -3.628   3.574   0.039  0.00  0.00    -0.040 Cl
ENDBRANCH  23  25
ENDBRANCH  20  22
ENDBRANCH  19  20
ENDBRANCH   1  19
TORSDOF 6
