REMARK  Name = ZINCrD0000074ly9.0
REMARK                            x       y       z     vdW  Elec       q    Type
REMARK                         _______ _______ _______ _____ _____    ______ ____
ROOT
ATOM      1  C   LIG    1        0.032  -7.062  -0.037  0.00  0.00    +0.520 C 
ATOM      2  N   LIG    1       -0.395  -8.341  -0.040  0.00  0.00    -0.690 N 
ATOM      3  H   LIG    1       -1.345  -8.535  -0.033  0.00  0.00    +0.410 HD
ATOM      4  C   LIG    1        0.499  -9.350  -0.054  0.00  0.00    +0.700 C 
ATOM      5  N   LIG    1        0.073 -10.628  -0.057  0.00  0.00    -0.730 N 
ATOM      6  H   LIG    1       -0.878 -10.822  -0.050  0.00  0.00    +0.400 HD
ATOM      7  O   LIG    1        1.690  -9.106  -0.063  0.00  0.00    -0.520 OA
ATOM      8  O   LIG    1        1.219  -6.820  -0.046  0.00  0.00    -0.440 OA
ENDROOT
BRANCH   5   9
ATOM      9  C   LIG    1        1.044 -11.724  -0.072  0.00  0.00    +0.260 C 
ATOM     10  C   LIG    1        1.490 -12.030   1.360  0.00  0.00    +0.000 C 
ATOM     11  C   LIG    1        2.504 -13.175   1.344  0.00  0.00    +0.020 C 
ATOM     12  C   LIG    1        1.859 -14.421   0.734  0.00  0.00    +0.010 C 
ATOM     13  C   LIG    1        1.414 -14.115  -0.698  0.00  0.00    +0.030 C 
ATOM     14  C   LIG    1        0.399 -12.970  -0.682  0.00  0.00    -0.020 C 
ATOM     15  C   LIG    1       -0.046 -12.664  -2.114  0.00  0.00    +0.020 C 
ENDBRANCH   5   9
BRANCH   1  16
ATOM     16  C   LIG    1       -0.968  -5.935  -0.022  0.00  0.00    +0.270 C 
BRANCH  16  17
ATOM     17  O   LIG    1       -0.265  -4.665  -0.021  0.00  0.00    -0.320 OA
BRANCH  17  18
ATOM     18  C   LIG    1       -1.019  -3.547  -0.008  0.00  0.00    +0.560 C 
ATOM     19  O   LIG    1       -2.232  -3.632   0.002  0.00  0.00    -0.480 OA
BRANCH  18  22
ATOM     20  C   LIG    1       -2.525  -0.826   0.021  0.00  0.00    +0.150 C 
ATOM     21  C   LIG    1       -1.032  -1.037   0.006  0.00  0.00    -0.050 A 
ATOM     22  C   LIG    1       -0.376  -2.227  -0.007  0.00  0.00    -0.030 A 
ATOM     23  O   LIG    1        0.956  -2.012  -0.018  0.00  0.00    -0.170 OA
ATOM     24  C   LIG    1        1.230  -0.693  -0.013  0.00  0.00    +0.080 A 
ATOM     25  C   LIG    1        2.414   0.034  -0.020  0.00  0.00    +0.030 A 
ATOM     26  C   LIG    1        2.374   1.412  -0.012  0.00  0.00    +0.070 A 
ATOM     27  C   LIG    1        1.161   2.086   0.002  0.00  0.00    +0.000 A 
ATOM     28  C   LIG    1       -0.017   1.393   0.010  0.00  0.00    +0.080 A 
ATOM     29  C   LIG    1        0.002  -0.004   0.002  0.00  0.00    -0.150 A 
ENDBRANCH  18  22
ENDBRANCH  17  18
ENDBRANCH  16  17
ENDBRANCH   1  16
TORSDOF 5
