REMARK  Name = ZINCvU0000000CfE.0
REMARK                            x       y       z     vdW  Elec       q    Type
REMARK                         _______ _______ _______ _____ _____    ______ ____
ROOT
ATOM      1  C   LIG    1       -2.584  -0.360  -0.199  0.00  0.00    +0.240 C 
ATOM      2  N   LIG    1       -3.837  -0.676  -0.048  0.00  0.00    -0.230 NA
ATOM      3  N   LIG    1       -4.625   0.457   0.185  0.00  0.00    -0.460 N 
ATOM      4  C   LIG    1       -3.711   1.611   0.176  0.00  0.00    +0.500 C 
ATOM      5  N   LIG    1       -2.386   1.019  -0.077  0.00  0.00    -0.580 N 
ENDROOT
BRANCH   3   6
ATOM      6  C   LIG    1       -6.005   0.487   0.387  0.00  0.00    +0.250 A 
ATOM      7  C   LIG    1       -6.671   1.705   0.465  0.00  0.00    -0.030 A 
ATOM      8  C   LIG    1       -8.038   1.731   0.660  0.00  0.00    +0.070 A 
ATOM      9  C   LIG    1       -8.743   0.547   0.788  0.00  0.00    -0.080 A 
ATOM     10  C   LIG    1       -8.082  -0.667   0.716  0.00  0.00    +0.070 A 
ATOM     11 CL   LIG    1      -10.460   0.585   1.040  0.00  0.00    -0.070 Cl
ATOM     12  C   LIG    1       -6.716  -0.700   0.516  0.00  0.00    -0.010 A 
ENDBRANCH   3   6
BRANCH   5  13
ATOM     13  C   LIG    1       -1.172   1.702  -0.179  0.00  0.00    +0.170 A 
ATOM     14  C   LIG    1       -0.197   1.538   0.797  0.00  0.00    +0.030 A 
ATOM     15  C   LIG    1        1.005   2.210   0.689  0.00  0.00    +0.020 A 
ATOM     16  C   LIG    1        1.236   3.049  -0.386  0.00  0.00    -0.080 A 
ATOM     17  C   LIG    1        0.265   3.218  -1.356  0.00  0.00    +0.020 A 
ATOM     18  C   LIG    1        2.549   3.780  -0.500  0.00  0.00    +0.090 C 
ATOM     19  C   LIG    1       -0.939   2.550  -1.255  0.00  0.00    +0.010 A 
ENDBRANCH   5  13
BRANCH   4  20
ATOM     20  C   LIG    1       -3.729   2.313   1.509  0.00  0.00    -0.190 A 
ATOM     21  C   LIG    1       -4.066   3.653   1.579  0.00  0.00    +0.070 A 
ATOM     22  C   LIG    1       -4.090   4.298   2.800  0.00  0.00    -0.070 A 
ATOM     23  C   LIG    1       -3.763   3.603   3.957  0.00  0.00    +0.230 A 
ATOM     24  C   LIG    1       -3.419   2.259   3.883  0.00  0.00    -0.080 A 
ATOM     25  C   LIG    1       -3.403   1.618   2.659  0.00  0.00    +0.080 A 
BRANCH  23  26
ATOM     26  N   LIG    1       -3.780   4.253   5.193  0.00  0.00    -0.640 N 
ATOM     27  C   LIG    1       -4.143   5.671   5.269  0.00  0.00    +0.280 C 
ATOM     28  C   LIG    1       -3.434   3.519   6.412  0.00  0.00    +0.280 C 
ENDBRANCH  23  26
ENDBRANCH   4  20
BRANCH   1  30
ATOM     29  C   LIG    1       -1.853  -2.771  -0.445  0.00  0.00    +0.100 C 
ATOM     30  C   LIG    1       -1.552  -1.295  -0.453  0.00  0.00    +0.420 C 
ATOM     31  O   LIG    1       -0.423  -0.906  -0.678  0.00  0.00    -0.430 OA
ENDBRANCH   1  30
TORSDOF 5
