REMARK  Name = ZINCpe00000gM57r.0
REMARK                            x       y       z     vdW  Elec       q    Type
REMARK                         _______ _______ _______ _____ _____    ______ ____
ROOT
ATOM      1  O   LIG    1       -2.420   0.986   0.019  0.00  0.00    -0.340 OA
ENDROOT
BRANCH   1   2
ATOM      2  C   LIG    1       -3.667   1.482   0.028  0.00  0.00    +0.460 C 
ATOM      3  O   LIG    1       -3.842   2.678   0.035  0.00  0.00    -0.490 OA
BRANCH   2   4
ATOM      4  C   LIG    1       -4.850   0.548   0.028  0.00  0.00    +0.210 C 
BRANCH   4   5
ATOM      5  C   LIG    1       -6.125   1.351   0.038  0.00  0.00    -0.170 A 
ATOM      6  C   LIG    1       -6.849   1.687   1.118  0.00  0.00    +0.250 A 
ATOM      7  N   LIG    1       -7.939   2.421   0.739  0.00  0.00    -0.590 N 
ATOM      8  H   LIG    1       -8.608   2.778   1.344  0.00  0.00    +0.420 HD
ATOM      9  C   LIG    1       -7.949   2.572  -0.629  0.00  0.00    +0.100 A 
ATOM     10  C   LIG    1       -8.810   3.210  -1.516  0.00  0.00    -0.010 A 
ATOM     11  C   LIG    1       -8.542   3.185  -2.868  0.00  0.00    +0.030 A 
ATOM     12  C   LIG    1       -7.420   2.530  -3.355  0.00  0.00    -0.020 A 
ATOM     13  C   LIG    1       -6.561   1.897  -2.501  0.00  0.00    +0.050 A 
ATOM     14  C   LIG    1       -6.813   1.909  -1.128  0.00  0.00    -0.090 A 
ENDBRANCH   4   5
ENDBRANCH   2   4
ENDBRANCH   1   2
BRANCH   1  15
ATOM     15  C   LIG    1       -1.330   1.944   0.019  0.00  0.00    +0.250 C 
BRANCH  15  18
ATOM     16  C   LIG    1        1.124   3.363   0.009  0.00  0.00    +0.290 C 
ATOM     17  N   LIG    1        1.143   1.898   0.001  0.00  0.00    -0.610 N 
ATOM     18  C   LIG    1       -0.014   1.209   0.009  0.00  0.00    +0.520 C 
ATOM     19  O   LIG    1        0.002  -0.004   0.002  0.00  0.00    -0.510 OA
BRANCH  17  20
ATOM     20  C   LIG    1        2.422   1.183  -0.015  0.00  0.00    +0.280 C 
ATOM     21  C   LIG    1        3.239   1.556   1.235  0.00  0.00    +0.070 C 
ATOM     22  C   LIG    1        4.681   1.041   0.992  0.00  0.00    -0.310 C 
ATOM     23  S   LIG    1        4.979   1.499  -0.758  0.00  0.00    +2.400 S 
ATOM     24  O   LIG    1        5.612   0.417  -1.427  0.00  0.00    -0.930 OA
ATOM     25  O   LIG    1        5.549   2.800  -0.814  0.00  0.00    -0.930 OA
ATOM     26  C   LIG    1        3.225   1.584  -1.268  0.00  0.00    -0.330 C 
ENDBRANCH  17  20
ENDBRANCH  15  18
ENDBRANCH   1  15
TORSDOF 6
