REMARK  Name = ZINCvU0000000CZg.0
REMARK                            x       y       z     vdW  Elec       q    Type
REMARK                         _______ _______ _______ _____ _____    ______ ____
ROOT
ATOM      1  C   LIG    1        2.398   0.041  -0.383  0.00  0.00    +0.490 A 
ATOM      2  C   LIG    1        1.230  -0.648  -0.569  0.00  0.00    -0.170 A 
ATOM      3  C   LIG    1        0.017   0.040  -0.539  0.00  0.00    +0.240 A 
ATOM      4  N   LIG    1       -0.006   1.339  -0.335  0.00  0.00    -0.510 NA
ATOM      5  C   LIG    1        1.129   2.030  -0.151  0.00  0.00    +0.310 A 
ATOM      6  C   LIG    1        1.377   3.374   0.077  0.00  0.00    -0.230 A 
ATOM      7  C   LIG    1        2.761   3.534   0.194  0.00  0.00    +0.160 A 
ATOM      8  N   LIG    1        3.337   2.355   0.045  0.00  0.00    -0.310 NA
ATOM      9  C   LIG    1        0.342   4.465   0.183  0.00  0.00    +0.130 C 
ATOM     10  C   LIG    1       -1.274  -0.710  -0.743  0.00  0.00    +0.150 C 
ATOM     11  N   LIG    1        2.344   1.394  -0.172  0.00  0.00    -0.340 N 
ENDROOT
BRANCH   7  12
ATOM     12  C   LIG    1        3.466   4.817   0.443  0.00  0.00    -0.010 A 
ATOM     13  C   LIG    1        4.646   5.110  -0.238  0.00  0.00    +0.060 A 
ATOM     14  C   LIG    1        5.295   6.305  -0.005  0.00  0.00    +0.030 A 
ATOM     15  C   LIG    1        4.782   7.208   0.910  0.00  0.00    -0.020 A 
ATOM     16  C   LIG    1        3.612   6.919   1.593  0.00  0.00    +0.030 A 
ATOM     17 CL   LIG    1        5.607   8.707   1.203  0.00  0.00    -0.070 Cl
ATOM     18  C   LIG    1        2.953   5.729   1.363  0.00  0.00    +0.060 A 
ENDBRANCH   7  12
BRANCH   1  19
ATOM     19  N   LIG    1        3.610  -0.615  -0.407  0.00  0.00    -0.710 N 
ATOM     20  H   LIG    1        4.433  -0.119  -0.275  0.00  0.00    +0.420 HD
BRANCH  19  21
ATOM     21  C   LIG    1        3.654  -2.062  -0.633  0.00  0.00    +0.290 C 
BRANCH  21  22
ATOM     22  C   LIG    1        5.109  -2.537  -0.613  0.00  0.00    +0.070 C 
BRANCH  22  26
ATOM     23  C   LIG    1        5.240  -6.761  -1.266  0.00  0.00    +0.100 A 
ATOM     24  C   LIG    1        5.141  -6.259   0.021  0.00  0.00    -0.030 A 
ATOM     25  C   LIG    1        5.104  -4.892   0.230  0.00  0.00    +0.020 A 
ATOM     26  C   LIG    1        5.155  -4.025  -0.845  0.00  0.00    -0.080 A 
ATOM     27  C   LIG    1        5.254  -4.519  -2.132  0.00  0.00    -0.030 A 
ATOM     28  C   LIG    1        5.297  -5.887  -2.348  0.00  0.00    +0.100 A 
BRANCH  23  30
ATOM     29  C   LIG    1        5.220  -8.941  -0.315  0.00  0.00    +0.250 C 
ATOM     30  O   LIG    1        5.283  -8.104  -1.472  0.00  0.00    -0.310 OA
ENDBRANCH  23  30
BRANCH  28  31
ATOM     31  O   LIG    1        5.393  -6.375  -3.614  0.00  0.00    -0.310 OA
ATOM     32  C   LIG    1        5.446  -5.420  -4.675  0.00  0.00    +0.250 C 
ENDBRANCH  28  31
ENDBRANCH  22  26
ENDBRANCH  21  22
ENDBRANCH  19  21
ENDBRANCH   1  19
TORSDOF 7
