REMARK  Name = ZINCrg00000SjdbX.0
REMARK                            x       y       z     vdW  Elec       q    Type
REMARK                         _______ _______ _______ _____ _____    ______ ____
ROOT
ATOM      1  C   LIG    1        1.239  -0.338   0.862  0.00  0.00    +0.220 C 
ATOM      2  C   LIG    1        0.002  -0.004   0.002  0.00  0.00    +0.040 C 
ATOM      3  C   LIG    1       -0.019   1.547   0.011  0.00  0.00    +0.040 C 
ATOM      4  C   LIG    1        1.494   1.879  -0.002  0.00  0.00    +0.250 C 
ATOM      5  N   LIG    1        2.115   0.844   0.844  0.00  0.00    -0.610 N 
ATOM      6  C   LIG    1        3.290   0.960   1.494  0.00  0.00    +0.540 C 
ATOM      7  O   LIG    1        3.706   0.039   2.164  0.00  0.00    -0.500 OA
ENDROOT
BRANCH   1   9
ATOM      8  O   LIG    1        3.110  -1.403  -0.106  0.00  0.00    -0.510 OA
ATOM      9  C   LIG    1        1.965  -1.522   0.278  0.00  0.00    +0.510 C 
ATOM     10  N   LIG    1        1.343  -2.714   0.181  0.00  0.00    -0.700 N 
ATOM     11  H   LIG    1        0.427  -2.809   0.488  0.00  0.00    +0.400 HD
BRANCH  10  12
ATOM     12  C   LIG    1        2.048  -3.865  -0.387  0.00  0.00    +0.220 C 
ATOM     13  C   LIG    1        1.282  -4.745  -1.377  0.00  0.00    +0.010 C 
ATOM     14  C   LIG    1        1.579  -5.259   0.034  0.00  0.00    +0.010 C 
ENDBRANCH  10  12
ENDBRANCH   1   9
BRANCH   6  15
ATOM     15  C   LIG    1        4.087   2.235   1.386  0.00  0.00    +0.210 C 
BRANCH  15  16
ATOM     16  N   LIG    1        5.317   2.111   2.179  0.00  0.00    -0.520 NA
ATOM     17  C   LIG    1        5.013   2.012   3.613  0.00  0.00    +0.190 C 
ATOM     18  C   LIG    1        6.312   1.805   4.395  0.00  0.00    +0.180 C 
ATOM     19  N   LIG    1        7.224   2.926   4.129  0.00  0.00    -0.530 NA
ATOM     20  C   LIG    1        7.529   3.025   2.695  0.00  0.00    +0.190 C 
ATOM     21  C   LIG    1        6.230   3.232   1.913  0.00  0.00    +0.180 C 
BRANCH  19  22
ATOM     22  C   LIG    1        8.455   2.802   4.922  0.00  0.00    +0.210 C 
BRANCH  22  23
ATOM     23  C   LIG    1        8.103   2.459   6.346  0.00  0.00    -0.090 A 
ATOM     24  C   LIG    1        7.892   3.467   7.268  0.00  0.00    +0.020 A 
ATOM     25  C   LIG    1        7.564   3.153   8.574  0.00  0.00    +0.000 A 
ATOM     26  C   LIG    1        7.457   1.830   8.960  0.00  0.00    +0.000 A 
ATOM     27  C   LIG    1        7.673   0.822   8.039  0.00  0.00    +0.000 A 
ATOM     28  C   LIG    1        7.996   1.136   6.732  0.00  0.00    +0.010 A 
ENDBRANCH  22  23
ENDBRANCH  19  22
ENDBRANCH  15  16
ENDBRANCH   6  15
TORSDOF 6
