REMARK  Name = ZINCrg00000SjSG5.0
REMARK                            x       y       z     vdW  Elec       q    Type
REMARK                         _______ _______ _______ _____ _____    ______ ____
ROOT
ATOM      1  C   LIG    1        1.838   1.962  -0.255  0.00  0.00    +0.540 C 
ATOM      2  N   LIG    1        2.594   1.391   0.703  0.00  0.00    -0.620 N 
ATOM      3  C   LIG    1        4.058   1.510   0.909  0.00  0.00    +0.230 C 
ATOM      4  C   LIG    1        4.216   1.656   2.440  0.00  0.00    +0.020 C 
ATOM      5  C   LIG    1        2.963   0.988   3.031  0.00  0.00    +0.040 C 
ATOM      6  C   LIG    1        4.688   0.171   0.496  0.00  0.00    +0.030 C 
ATOM      7  C   LIG    1        4.180  -0.927   1.436  0.00  0.00    -0.010 C 
ATOM      8  C   LIG    1        2.649  -0.922   1.455  0.00  0.00    +0.040 C 
ATOM      9  C   LIG    1        2.159   0.498   1.805  0.00  0.00    +0.250 C 
ATOM     10  O   LIG    1        0.634   1.817  -0.243  0.00  0.00    -0.510 OA
ENDROOT
BRANCH   1  11
ATOM     11  C   LIG    1        2.488   2.780  -1.340  0.00  0.00    +0.160 C 
ATOM     12  C   LIG    1        3.321   1.865  -2.240  0.00  0.00    +0.040 C 
BRANCH  11  13
ATOM     13  O   LIG    1        1.479   3.425  -2.120  0.00  0.00    -0.350 OA
BRANCH  13  14
ATOM     14  C   LIG    1        1.887   4.673  -2.683  0.00  0.00    +0.210 C 
BRANCH  14  16
ATOM     15  C   LIG    1        0.452   6.530  -3.357  0.00  0.00    +0.030 C 
ATOM     16  C   LIG    1        0.752   5.261  -3.481  0.00  0.00    -0.030 C 
ENDBRANCH  14  16
ENDBRANCH  13  14
ENDBRANCH  11  13
ENDBRANCH   1  11
BRANCH   7  17
ATOM     17  C   LIG    1        4.707  -0.671   2.849  0.00  0.00    +0.260 C 
BRANCH  17  18
ATOM     18  N   LIG    1        6.172  -0.681   2.833  0.00  0.00    -0.720 N 
ATOM     19  H   LIG    1        6.647  -0.835   2.001  0.00  0.00    +0.400 HD
ATOM     20  C   LIG    1        6.860  -0.475   3.973  0.00  0.00    +0.530 C 
ATOM     21  O   LIG    1        6.267  -0.282   5.013  0.00  0.00    -0.490 OA
BRANCH  20  22
ATOM     22  C   LIG    1        8.367  -0.485   3.957  0.00  0.00    -0.450 C 
ATOM     23  C   LIG    1        8.909   0.930   3.674  0.00  0.00    +0.090 C 
ATOM     24  C   LIG    1       10.234   1.112   4.435  0.00  0.00    +0.070 C 
ATOM     25  C   LIG    1        9.988   0.608   5.881  0.00  0.00    -0.310 C 
ATOM     26  S   LIG    1        9.018  -0.923   5.609  0.00  0.00    +2.410 S 
ATOM     27  O   LIG    1        9.902  -2.029   5.489  0.00  0.00    -0.930 OA
ATOM     28  O   LIG    1        7.945  -0.972   6.540  0.00  0.00    -0.890 OA
ENDBRANCH  20  22
ENDBRANCH  17  18
ENDBRANCH   7  17
TORSDOF 7
