REMARK  Name = ZINCrH000004qzUF.0
REMARK                            x       y       z     vdW  Elec       q    Type
REMARK                         _______ _______ _______ _____ _____    ______ ____
ROOT
ATOM      1  C   LIG    1       -2.128  -0.241   2.109  0.00  0.00    +0.550 C 
ATOM      2  N   LIG    1       -1.985   0.933   1.463  0.00  0.00    -0.560 N 
ATOM      3  C   LIG    1       -0.659   1.542   1.289  0.00  0.00    +0.300 C 
ATOM      4  C   LIG    1       -0.013   1.086   0.008  0.00  0.00    +0.030 C 
ATOM      5  C   LIG    1       -0.690   1.561  -1.268  0.00  0.00    +0.030 C 
ATOM      6  S   LIG    1       -2.277   0.707  -1.492  0.00  0.00    -0.150 S 
ATOM      7  C   LIG    1       -3.350   1.640  -0.425  0.00  0.00    -0.100 A 
ATOM      8  C   LIG    1       -4.401   2.368  -0.944  0.00  0.00    +0.080 A 
ATOM      9  C   LIG    1       -5.237   3.058  -0.079  0.00  0.00    +0.030 A 
ATOM     10  C   LIG    1       -5.013   3.003   1.284  0.00  0.00    +0.040 A 
ATOM     11  C   LIG    1       -3.953   2.282   1.799  0.00  0.00    +0.010 A 
ATOM     12  C   LIG    1        0.218   1.266  -2.463  0.00  0.00    +0.080 C 
ATOM     13  C   LIG    1       -3.095   1.603   0.940  0.00  0.00    +0.150 A 
ATOM     14  O   LIG    1       -1.154  -0.810   2.556  0.00  0.00    -0.510 OA
ENDROOT
BRANCH   1  15
ATOM     15  C   LIG    1       -3.497  -0.848   2.275  0.00  0.00    +0.110 C 
BRANCH  15  16
ATOM     16  S   LIG    1       -3.359  -2.415   3.179  0.00  0.00    +0.120 S 
BRANCH  16  24
ATOM     17  C   LIG    1       -7.367  -6.281   4.848  0.00  0.00    +0.170 C 
ATOM     18  C   LIG    1       -7.764  -5.038   4.093  0.00  0.00    +0.210 A 
ATOM     19  C   LIG    1       -9.068  -4.803   3.792  0.00  0.00    -0.050 A 
ATOM     20  C   LIG    1       -9.409  -3.640   3.091  0.00  0.00    +0.240 A 
ATOM     21  N   LIG    1       -8.476  -2.788   2.730  0.00  0.00    -0.470 NA
ATOM     22  C   LIG    1       -7.190  -3.012   3.022  0.00  0.00    +0.460 A 
ATOM     23  N   LIG    1       -6.083  -2.319   2.779  0.00  0.00    -0.530 NA
ATOM     24  C   LIG    1       -5.030  -2.966   3.274  0.00  0.00    +0.230 A 
ATOM     25  N   LIG    1       -5.433  -4.080   3.852  0.00  0.00    -0.310 NA
ATOM     26  C   LIG    1      -10.851  -3.365   2.750  0.00  0.00    +0.170 C 
ATOM     27  N   LIG    1       -6.825  -4.137   3.705  0.00  0.00    -0.320 N 
ENDBRANCH  16  24
ENDBRANCH  15  16
ENDBRANCH   1  15
TORSDOF 3
