REMARK  Name = ZINCrD000000C8ji.0
REMARK                            x       y       z     vdW  Elec       q    Type
REMARK                         _______ _______ _______ _____ _____    ______ ____
ROOT
ATOM      1  O   LIG    1        1.554  -4.706   0.062  0.00  0.00    -0.490 OA
ATOM      2  C   LIG    1        2.585  -4.061   0.057  0.00  0.00    +0.560 C 
ATOM      3  N   LIG    1        2.539  -2.717  -0.036  0.00  0.00    -0.670 N 
ATOM      4  H   LIG    1        3.360  -2.208  -0.122  0.00  0.00    +0.410 HD
ENDROOT
BRANCH   3   5
ATOM      5  C   LIG    1        1.308  -2.057  -0.010  0.00  0.00    +0.150 A 
ATOM      6  C   LIG    1        0.214  -2.643   0.601  0.00  0.00    +0.050 A 
ATOM      7  C   LIG    1       -1.012  -1.994   0.632  0.00  0.00    +0.030 A 
ATOM      8  C   LIG    1       -1.168  -0.753   0.055  0.00  0.00    +0.070 A 
ATOM      9  C   LIG    1       -0.082  -0.139  -0.569  0.00  0.00    -0.140 A 
ATOM     10  C   LIG    1       -0.193   1.181  -1.199  0.00  0.00    +0.550 A 
ATOM     11  O   LIG    1       -1.255   1.778  -1.196  0.00  0.00    -0.520 OA
ATOM     12  N   LIG    1        0.892   1.724  -1.787  0.00  0.00    -0.630 N 
ATOM     13  H   LIG    1        0.812   2.597  -2.202  0.00  0.00    +0.420 HD
ATOM     14  C   LIG    1        2.099   1.086  -1.818  0.00  0.00    +0.270 A 
ATOM     15  C   LIG    1        2.288  -0.123  -1.266  0.00  0.00    -0.060 A 
ATOM     16  C   LIG    1        1.170  -0.794  -0.604  0.00  0.00    -0.020 A 
ENDBRANCH   3   5
BRANCH   2  17
ATOM     17  C   LIG    1        3.886  -4.749   0.152  0.00  0.00    -0.180 A 
ATOM     18  C   LIG    1        5.073  -4.012   0.146  0.00  0.00    +0.080 A 
ATOM     19  C   LIG    1        6.285  -4.662   0.235  0.00  0.00    -0.040 A 
ATOM     20  C   LIG    1        6.333  -6.043   0.332  0.00  0.00    +0.080 A 
ATOM     21  C   LIG    1        5.167  -6.783   0.339  0.00  0.00    -0.080 A 
ATOM     22  C   LIG    1        3.939  -6.146   0.255  0.00  0.00    +0.190 A 
BRANCH  22  23
ATOM     23  O   LIG    1        2.793  -6.872   0.268  0.00  0.00    -0.270 OA
BRANCH  23  24
ATOM     24  C   LIG    1        2.925  -8.291   0.375  0.00  0.00    +0.180 C 
BRANCH  24  25
ATOM     25  C   LIG    1        1.536  -8.934   0.373  0.00  0.00    +0.180 C 
ATOM     26  C   LIG    1        1.663 -10.455   0.604  0.00  0.00    +0.020 C 
ATOM     27  C   LIG    1        0.585 -11.025  -0.357  0.00  0.00    +0.010 C 
ATOM     28  C   LIG    1        0.665 -10.011  -1.525  0.00  0.00    +0.190 C 
ATOM     29  O   LIG    1        0.913  -8.740  -0.902  0.00  0.00    -0.360 OA
ENDBRANCH  24  25
ENDBRANCH  23  24
ENDBRANCH  22  23
ENDBRANCH   2  17
TORSDOF 5
