REMARK  Name = ZINCvU000000040x.0
REMARK                            x       y       z     vdW  Elec       q    Type
REMARK                         _______ _______ _______ _____ _____    ______ ____
ROOT
ATOM      1  C   LIG    1        1.967   5.489  -0.677  0.00  0.00    -0.260 A 
ATOM      2  C   LIG    1        3.304   5.503  -1.021  0.00  0.00    +0.290 A 
ATOM      3  N   LIG    1        3.991   4.901  -0.036  0.00  0.00    -0.310 N 
ATOM      4  N   LIG    1        3.110   4.489   0.969  0.00  0.00    -0.260 NA
ATOM      5  C   LIG    1        1.883   4.816   0.625  0.00  0.00    +0.200 A 
ENDROOT
BRANCH   1   7
ATOM      6  O   LIG    1       -0.133   5.356  -1.680  0.00  0.00    -0.520 OA
ATOM      7  C   LIG    1        0.849   6.039  -1.460  0.00  0.00    +0.590 C 
ATOM      8  N   LIG    1        0.913   7.300  -1.932  0.00  0.00    -0.610 N 
ATOM      9  C   LIG    1        2.128   8.106  -1.751  0.00  0.00    +0.250 C 
ATOM     10  C   LIG    1        1.751   9.432  -1.092  0.00  0.00    +0.020 C 
ATOM     11  C   LIG    1        0.659  10.117  -1.918  0.00  0.00    +0.000 C 
ATOM     12  C   LIG    1       -0.585   9.226  -1.960  0.00  0.00    +0.020 C 
ATOM     13  C   LIG    1       -0.232   7.895  -2.634  0.00  0.00    +0.280 C 
BRANCH  11  14
ATOM     14  C   LIG    1        0.302  11.459  -1.277  0.00  0.00    +0.060 C 
BRANCH  14  15
ATOM     15  C   LIG    1        1.492  12.381  -1.345  0.00  0.00    -0.080 A 
ATOM     16  C   LIG    1        2.411  12.401  -0.313  0.00  0.00    +0.000 A 
ATOM     17  C   LIG    1        3.506  13.243  -0.378  0.00  0.00    +0.000 A 
ATOM     18  C   LIG    1        3.676  14.072  -1.471  0.00  0.00    -0.010 A 
ATOM     19  C   LIG    1        2.755  14.055  -2.501  0.00  0.00    +0.000 A 
ATOM     20  C   LIG    1        1.663  13.210  -2.438  0.00  0.00    +0.000 A 
ENDBRANCH  14  15
ENDBRANCH  11  14
ENDBRANCH   1   7
BRANCH   3  21
ATOM     21  C   LIG    1        5.379   4.718  -0.015  0.00  0.00    +0.150 A 
ATOM     22  C   LIG    1        6.156   5.172  -1.073  0.00  0.00    -0.010 A 
ATOM     23  C   LIG    1        7.526   4.996  -1.047  0.00  0.00    +0.050 A 
ATOM     24  C   LIG    1        8.123   4.359   0.025  0.00  0.00    +0.010 A 
ATOM     25  C   LIG    1        7.351   3.901   1.077  0.00  0.00    +0.040 A 
ATOM     26  C   LIG    1        5.982   4.079   1.060  0.00  0.00    +0.030 A 
ENDBRANCH   3  21
BRANCH   5  27
ATOM     27  C   LIG    1        0.654   4.560   1.403  0.00  0.00    -0.130 A 
ATOM     28  C   LIG    1        0.428   3.470   2.165  0.00  0.00    +0.040 A 
ATOM     29  C   LIG    1       -0.796   3.455   2.800  0.00  0.00    +0.010 A 
ATOM     30  C   LIG    1       -1.572   4.516   2.559  0.00  0.00    -0.040 A 
ATOM     31  S   LIG    1       -0.741   5.628   1.481  0.00  0.00    +0.160 S 
ENDBRANCH   5  27
TORSDOF 5
