REMARK  Name = ZINCrH00000tj1oc.0
REMARK                            x       y       z     vdW  Elec       q    Type
REMARK                         _______ _______ _______ _____ _____    ______ ____
ROOT
ATOM      1  C   LIG    1        1.175   3.189  -0.026  0.00  0.00    +0.220 A 
ATOM      2  C   LIG    1       -0.032   3.872  -0.013  0.00  0.00    -0.050 A 
ATOM      3  C   LIG    1       -1.224   3.168   0.024  0.00  0.00    +0.020 A 
ATOM      4  C   LIG    1       -1.213   1.785   0.042  0.00  0.00    -0.010 A 
ATOM      5  C   LIG    1       -0.013   1.099   0.035  0.00  0.00    +0.080 A 
ATOM      6 CL   LIG    1       -2.734   4.024   0.040  0.00  0.00    -0.060 Cl
ATOM      7  C   LIG    1        1.184   1.796  -0.002  0.00  0.00    +0.020 A 
ENDROOT
BRANCH   1   8
ATOM      8  N   LIG    1        2.381   3.898  -0.064  0.00  0.00    -0.730 N 
ATOM      9  H   LIG    1        3.224   3.419  -0.074  0.00  0.00    +0.420 HD
BRANCH   8  10
ATOM     10  C   LIG    1        2.369   5.363  -0.090  0.00  0.00    +0.310 C 
BRANCH  10  16
ATOM     11  N   LIG    1        5.524   8.988  -0.220  0.00  0.00    -0.740 N 
ATOM     12  H   LIG    1        4.782   9.613  -0.216  0.00  0.00    +0.400 HD
ATOM     13  C   LIG    1        5.288   7.661  -0.192  0.00  0.00    +0.690 C 
ATOM     14  N   LIG    1        4.021   7.202  -0.157  0.00  0.00    -0.690 N 
ATOM     15  H   LIG    1        3.279   7.827  -0.152  0.00  0.00    +0.410 HD
ATOM     16  C   LIG    1        3.786   5.876  -0.129  0.00  0.00    +0.510 C 
ATOM     17  O   LIG    1        4.713   5.095  -0.135  0.00  0.00    -0.450 OA
ATOM     18  O   LIG    1        6.218   6.879  -0.198  0.00  0.00    -0.530 OA
BRANCH  11  20
ATOM     19  C   LIG    1        6.888  11.016  -0.285  0.00  0.00    +0.030 C 
ATOM     20  C   LIG    1        6.901   9.487  -0.258  0.00  0.00    +0.270 C 
ENDBRANCH  11  20
ENDBRANCH  10  16
ENDBRANCH   8  10
ENDBRANCH   1   8
BRANCH   7  21
ATOM     21  O   LIG    1        2.365   1.121  -0.015  0.00  0.00    -0.250 OA
BRANCH  21  22
ATOM     22  C   LIG    1        3.035   0.986   1.160  0.00  0.00    +0.080 A 
ATOM     23  C   LIG    1        2.460   1.429   2.342  0.00  0.00    -0.020 A 
ATOM     24  C   LIG    1        3.139   1.286   3.536  0.00  0.00    -0.040 A 
ATOM     25  C   LIG    1        4.401   0.710   3.552  0.00  0.00    +0.100 A 
ATOM     26  C   LIG    1        4.978   0.272   2.370  0.00  0.00    +0.030 A 
ATOM     27  C   LIG    1        4.297   0.410   1.176  0.00  0.00    +0.040 A 
BRANCH  25  28
ATOM     28  O   LIG    1        5.071   0.574   4.728  0.00  0.00    -0.320 OA
BRANCH  28  29
ATOM     29  C   LIG    1        4.417   1.047   5.906  0.00  0.00    +0.170 C 
ATOM     30  C   LIG    1        5.318   0.811   7.120  0.00  0.00    +0.070 C 
ENDBRANCH  28  29
ENDBRANCH  25  28
ENDBRANCH  21  22
ENDBRANCH   7  21
TORSDOF 8
