REMARK  Name = ZINCpe000000TL3A.0
REMARK                            x       y       z     vdW  Elec       q    Type
REMARK                         _______ _______ _______ _____ _____    ______ ____
ROOT
ATOM      1  N   LIG    1        1.403   3.080   0.005  0.00  0.00    -0.720 N 
ATOM      2  H   LIG    1        0.638   3.553   0.370  0.00  0.00    +0.410 HD
ATOM      3  C   LIG    1        2.447   3.771  -0.494  0.00  0.00    +0.620 C 
ATOM      4  O   LIG    1        3.405   3.179  -0.952  0.00  0.00    -0.530 OA
ENDROOT
BRANCH   3   5
ATOM      5  C   LIG    1        2.427   5.246  -0.486  0.00  0.00    -0.100 A 
ATOM      6  C   LIG    1        3.418   6.061  -0.955  0.00  0.00    +0.310 A 
ATOM      7  N   LIG    1        3.003   7.332  -0.763  0.00  0.00    -0.300 N 
ATOM      8  N   LIG    1        1.740   7.257  -0.159  0.00  0.00    -0.040 NA
ATOM      9  N   LIG    1        1.432   6.016  -0.011  0.00  0.00    -0.200 NA
BRANCH   7  10
ATOM     10  C   LIG    1        3.702   8.500  -1.099  0.00  0.00    +0.120 A 
ATOM     11  C   LIG    1        4.954   8.415  -1.692  0.00  0.00    +0.020 A 
ATOM     12  C   LIG    1        5.638   9.567  -2.027  0.00  0.00    +0.040 A 
ATOM     13  C   LIG    1        5.081  10.805  -1.762  0.00  0.00    +0.040 A 
ATOM     14  C   LIG    1        3.836  10.893  -1.166  0.00  0.00    +0.040 A 
ATOM     15  C   LIG    1        3.145   9.744  -0.834  0.00  0.00    -0.060 A 
BRANCH  15  16
ATOM     16  C   LIG    1        1.788   9.841  -0.185  0.00  0.00    +0.070 C 
ATOM     17  C   LIG    1        1.942   9.749   1.335  0.00  0.00    +0.020 C 
ENDBRANCH  15  16
ENDBRANCH   7  10
ENDBRANCH   3   5
BRANCH   1  18
ATOM     18  C   LIG    1        1.423   1.615  -0.003  0.00  0.00    +0.240 C 
ATOM     19  C   LIG    1        2.163   1.109   1.237  0.00  0.00    +0.060 C 
BRANCH  18  20
ATOM     20  C   LIG    1       -0.013   1.086   0.008  0.00  0.00    +0.270 C 
BRANCH  20  21
ATOM     21  C   LIG    1       -0.742   1.585  -1.213  0.00  0.00    +0.430 C 
ATOM     22  O   LIG    1       -1.678   2.339  -1.091  0.00  0.00    -0.490 OA
BRANCH  21  23
ATOM     23  O   LIG    1       -0.351   1.192  -2.435  0.00  0.00    -0.350 OA
BRANCH  23  25
ATOM     24  C   LIG    1       -0.511   1.158  -4.865  0.00  0.00    +0.070 C 
ATOM     25  C   LIG    1       -1.099   1.713  -3.566  0.00  0.00    +0.200 C 
ENDBRANCH  23  25
ENDBRANCH  21  23
ENDBRANCH  20  21
BRANCH  20  26
ATOM     26  O   LIG    1       -0.682   1.547   1.184  0.00  0.00    -0.520 OA
ATOM     27  H   LIG    1       -0.732   2.510   1.256  0.00  0.00    +0.380 HD
ENDBRANCH  20  26
ENDBRANCH  18  20
ENDBRANCH   1  18
TORSDOF 9
