REMARK  Name = ZINCrg00000fSHB1.0
REMARK                            x       y       z     vdW  Elec       q    Type
REMARK                         _______ _______ _______ _____ _____    ______ ____
ROOT
ATOM      1  O   LIG    1       -2.104   2.165  -0.005  0.00  0.00    -0.520 OA
ATOM      2  C   LIG    1       -0.929   2.461   0.021  0.00  0.00    +0.560 C 
ATOM      3  N   LIG    1        0.010   1.494   0.010  0.00  0.00    -0.640 N 
ATOM      4  C   LIG    1        1.480   1.445   0.025  0.00  0.00    +0.260 C 
ATOM      5  C   LIG    1        1.373   0.065   0.689  0.00  0.00    +0.140 C 
ATOM      6  C   LIG    1        0.016   0.024  -0.027  0.00  0.00    +0.310 C 
ENDROOT
BRANCH   2   7
ATOM      7  C   LIG    1       -0.517   3.910   0.064  0.00  0.00    +0.000 C 
ATOM      8  C   LIG    1       -1.766   4.798   0.062  0.00  0.00    +0.080 C 
ATOM      9  C   LIG    1       -1.363   6.244   0.367  0.00  0.00    +0.320 C 
ATOM     10  N   LIG    1       -0.280   6.633  -0.543  0.00  0.00    -0.550 N 
ATOM     11  C   LIG    1        0.129   7.877  -0.842  0.00  0.00    +0.650 A 
ATOM     12  N   LIG    1        1.194   7.763  -1.665  0.00  0.00    -0.550 N 
ATOM     13  H   LIG    1        1.716   8.493  -2.034  0.00  0.00    +0.460 HD
ATOM     14  N   LIG    1        1.407   6.395  -1.889  0.00  0.00    -0.270 NA
ATOM     15  O   LIG    1       -0.368   8.915  -0.445  0.00  0.00    -0.550 OA
ATOM     16  C   LIG    1        0.518   5.738  -1.226  0.00  0.00    +0.280 A 
ATOM     17  C   LIG    1        0.334   4.239  -1.170  0.00  0.00    +0.190 C 
ENDBRANCH   2   7
BRANCH   5  18
ATOM     18  C   LIG    1        2.369  -0.947   0.183  0.00  0.00    -0.110 A 
ATOM     19  C   LIG    1        3.541  -0.535  -0.372  0.00  0.00    +0.040 A 
ATOM     20  C   LIG    1        4.474  -1.457  -0.845  0.00  0.00    +0.010 A 
ATOM     21  C   LIG    1        4.240  -2.795  -0.765  0.00  0.00    +0.040 A 
ATOM     22  C   LIG    1        3.041  -3.259  -0.198  0.00  0.00    -0.050 A 
ATOM     23  C   LIG    1        2.764  -4.632  -0.098  0.00  0.00    +0.020 A 
ATOM     24  C   LIG    1        1.591  -5.045   0.457  0.00  0.00    +0.010 A 
ATOM     25  C   LIG    1        0.659  -4.124   0.931  0.00  0.00    +0.020 A 
ATOM     26  C   LIG    1        0.893  -2.785   0.851  0.00  0.00    +0.020 A 
ATOM     27  C   LIG    1        2.094  -2.322   0.288  0.00  0.00    -0.030 A 
ENDBRANCH   5  18
BRANCH   5  28
ATOM     28  O   LIG    1        1.283   0.105   2.114  0.00  0.00    -0.520 OA
ATOM     29  H   LIG    1        2.140   0.131   2.562  0.00  0.00    +0.390 HD
ENDBRANCH   5  28
TORSDOF 3
