REMARK  Name = ZINCrH000004uFIP.0
REMARK                            x       y       z     vdW  Elec       q    Type
REMARK                         _______ _______ _______ _____ _____    ______ ____
ROOT
ATOM      1  O   LIG    1        1.155  -5.056  -0.309  0.00  0.00    -0.530 OA
ATOM      2  C   LIG    1       -0.060  -5.077  -0.234  0.00  0.00    +0.570 C 
ATOM      3  N   LIG    1       -0.789  -4.121  -0.842  0.00  0.00    -0.730 N 
ATOM      4  H   LIG    1       -1.757  -4.137  -0.781  0.00  0.00    +0.400 HD
ENDROOT
BRANCH   2   5
ATOM      5  C   LIG    1       -0.728  -6.140   0.517  0.00  0.00    -0.240 C 
ATOM      6  C   LIG    1        0.003  -7.107   1.125  0.00  0.00    +0.170 C 
ATOM      7  C   LIG    1       -0.720  -8.160   1.853  0.00  0.00    -0.150 A 
ATOM      8  C   LIG    1       -0.075  -8.985   2.774  0.00  0.00    +0.120 A 
ATOM      9  C   LIG    1       -0.795  -9.963   3.432  0.00  0.00    -0.120 A 
ATOM     10  C   LIG    1       -2.148 -10.124   3.180  0.00  0.00    +0.110 A 
ATOM     11  C   LIG    1       -2.797  -9.312   2.269  0.00  0.00    +0.010 A 
ATOM     12 BR   LIG    1        0.071 -11.086   4.682  0.00  0.00    -0.040 Br
ATOM     13  C   LIG    1       -2.093  -8.327   1.600  0.00  0.00    +0.160 A 
ATOM     14  O   LIG    1       -2.700  -7.515   0.700  0.00  0.00    -0.300 OA
ATOM     15  C   LIG    1       -2.231  -6.169   0.612  0.00  0.00    +0.300 C 
ENDBRANCH   2   5
BRANCH   3  16
ATOM     16  C   LIG    1       -0.120  -3.056  -1.593  0.00  0.00    +0.310 C 
BRANCH  16  17
ATOM     17  C   LIG    1       -1.154  -2.123  -2.170  0.00  0.00    -0.090 A 
ATOM     18  C   LIG    1       -1.490  -2.206  -3.508  0.00  0.00    +0.030 A 
ATOM     19  C   LIG    1       -2.434  -1.346  -4.039  0.00  0.00    +0.020 A 
ATOM     20  C   LIG    1       -3.045  -0.407  -3.230  0.00  0.00    +0.020 A 
ATOM     21  C   LIG    1       -2.713  -0.327  -1.890  0.00  0.00    +0.030 A 
ATOM     22  C   LIG    1       -1.769  -1.187  -1.360  0.00  0.00    -0.100 A 
BRANCH  22  23
ATOM     23  C   LIG    1       -1.407  -1.100   0.100  0.00  0.00    +0.340 C 
BRANCH  23  24
ATOM     24  N   LIG    1       -0.261  -0.201   0.266  0.00  0.00    -0.450 N 
ATOM     25  C   LIG    1        1.053  -0.570   0.361  0.00  0.00    +0.110 A 
ATOM     26  C   LIG    1        1.767   0.563   0.503  0.00  0.00    +0.140 A 
ATOM     27  N   LIG    1        0.911   1.596   0.496  0.00  0.00    -0.490 NA
ATOM     28  C   LIG    1       -0.305   1.146   0.354  0.00  0.00    +0.380 A 
ENDBRANCH  23  24
ENDBRANCH  22  23
ENDBRANCH  16  17
ENDBRANCH   3  16
TORSDOF 5
