REMARK  Name = ZINCkj000005jOIH.0
REMARK                            x       y       z     vdW  Elec       q    Type
REMARK                         _______ _______ _______ _____ _____    ______ ____
ROOT
ATOM      1  N   LIG    1       -3.761   1.651   0.029  0.00  0.00    -0.390 N 
ATOM      2  C   LIG    1       -3.908   2.408  -1.222  0.00  0.00    +0.330 C 
ATOM      3  H   LIG    1       -3.784   2.288   0.812  0.00  0.00    +0.420 HD
ENDROOT
BRANCH   1   5
ATOM      4  C   LIG    1       -6.197   1.433   0.160  0.00  0.00    +0.100 C 
ATOM      5  C   LIG    1       -4.861   0.686   0.149  0.00  0.00    +0.240 C 
BRANCH   5   6
ATOM      6  C   LIG    1       -4.710  -0.090   1.432  0.00  0.00    -0.200 A 
ATOM      7  C   LIG    1       -4.978  -1.450   1.466  0.00  0.00    +0.110 A 
ATOM      8  C   LIG    1       -4.824  -2.124   2.668  0.00  0.00    +0.000 A 
ATOM      9  C   LIG    1       -4.413  -1.422   3.785  0.00  0.00    +0.300 A 
ATOM     10  N   LIG    1       -4.167  -0.128   3.716  0.00  0.00    -0.470 NA
ATOM     11  C   LIG    1       -4.297   0.543   2.589  0.00  0.00    +0.250 A 
ENDBRANCH   5   6
ENDBRANCH   1   5
BRANCH   1  12
ATOM     12  C   LIG    1       -2.479   0.934   0.019  0.00  0.00    +0.280 C 
BRANCH  12  13
ATOM     13  C   LIG    1       -1.330   1.944   0.019  0.00  0.00    +0.070 C 
BRANCH  13  14
ATOM     14  C   LIG    1       -0.014   1.209   0.009  0.00  0.00    +0.520 C 
ATOM     15  N   LIG    1        1.143   1.898   0.001  0.00  0.00    -0.610 N 
ATOM     16  C   LIG    1        1.149   3.370   0.003  0.00  0.00    +0.250 C 
ATOM     17  C   LIG    1        2.086   3.844   1.125  0.00  0.00    +0.210 C 
ATOM     18  O   LIG    1        3.356   3.206   0.976  0.00  0.00    -0.370 OA
ATOM     19  C   LIG    1        3.314   1.782   1.103  0.00  0.00    +0.230 C 
ATOM     20  C   LIG    1        2.440   1.202  -0.015  0.00  0.00    +0.270 C 
ATOM     21  O   LIG    1        0.002  -0.004   0.002  0.00  0.00    -0.530 OA
ENDBRANCH  13  14
ENDBRANCH  12  13
ENDBRANCH   1  12
TORSDOF 5
