REMARK  Name = ZINCkj000005jOIH.1
REMARK                            x       y       z     vdW  Elec       q    Type
REMARK                         _______ _______ _______ _____ _____    ______ ____
ROOT
ATOM      1  N   LIG    1        1.365   1.594  -0.002  0.00  0.00    -0.390 N 
ATOM      2  C   LIG    1        2.076   1.108   1.188  0.00  0.00    +0.330 C 
ATOM      3  H   LIG    1        1.352   2.603   0.003  0.00  0.00    +0.420 HD
ENDROOT
BRANCH   1   5
ATOM      4  C   LIG    1       -0.753   1.593  -1.232  0.00  0.00    +0.100 C 
ATOM      5  C   LIG    1       -0.013   1.086   0.008  0.00  0.00    +0.240 C 
BRANCH   5   6
ATOM      6  C   LIG    1       -0.718   1.572   1.248  0.00  0.00    -0.200 A 
ATOM      7  C   LIG    1       -1.572   0.731   1.944  0.00  0.00    +0.110 A 
ATOM      8  C   LIG    1       -2.199   1.221   3.080  0.00  0.00    -0.010 A 
ATOM      9  C   LIG    1       -1.954   2.522   3.477  0.00  0.00    +0.300 A 
ATOM     10  N   LIG    1       -1.135   3.294   2.789  0.00  0.00    -0.470 NA
ATOM     11  C   LIG    1       -0.517   2.860   1.708  0.00  0.00    +0.250 A 
ENDBRANCH   5   6
ENDBRANCH   1   5
BRANCH   1  12
ATOM     12  C   LIG    1        2.053   1.121  -1.211  0.00  0.00    +0.290 C 
BRANCH  12  13
ATOM     13  C   LIG    1        3.446   1.750  -1.285  0.00  0.00    +0.070 C 
BRANCH  13  14
ATOM     14  C   LIG    1        4.151   1.264  -2.525  0.00  0.00    +0.520 C 
ATOM     15  N   LIG    1        5.400   1.689  -2.800  0.00  0.00    -0.610 N 
ATOM     16  C   LIG    1        6.093   2.632  -1.908  0.00  0.00    +0.250 C 
ATOM     17  C   LIG    1        7.483   2.058  -1.590  0.00  0.00    +0.210 C 
ATOM     18  O   LIG    1        8.149   1.736  -2.814  0.00  0.00    -0.370 OA
ATOM     19  C   LIG    1        7.496   0.727  -3.587  0.00  0.00    +0.230 C 
ATOM     20  C   LIG    1        6.109   1.228  -4.005  0.00  0.00    +0.270 C 
ATOM     21  O   LIG    1        3.595   0.490  -3.276  0.00  0.00    -0.530 OA
ENDBRANCH  13  14
ENDBRANCH  12  13
ENDBRANCH   1  12
TORSDOF 5
