REMARK  Name = ZINCrD0000074Jjq.0
REMARK                            x       y       z     vdW  Elec       q    Type
REMARK                         _______ _______ _______ _____ _____    ______ ____
ROOT
ATOM      1  O   LIG    1        0.901   6.018  -0.566  0.00  0.00    -0.330 OA
ENDROOT
BRANCH   1   2
ATOM      2  C   LIG    1       -0.219   5.282  -0.427  0.00  0.00    +0.510 C 
ATOM      3  O   LIG    1       -1.308   5.816  -0.489  0.00  0.00    -0.490 OA
BRANCH   2  10
ATOM      4  C   LIG    1       -2.615   3.760   0.138  0.00  0.00    +0.130 C 
ATOM      5  C   LIG    1       -1.271   3.080   0.074  0.00  0.00    +0.040 A 
ATOM      6  C   LIG    1       -1.175   1.720   0.281  0.00  0.00    +0.000 A 
ATOM      7  C   LIG    1        0.059   1.095   0.228  0.00  0.00    +0.170 A 
ATOM      8  C   LIG    1        1.201   1.827  -0.043  0.00  0.00    -0.680 A 
ATOM      9  C   LIG    1        1.118   3.187  -0.257  0.00  0.00    +0.200 A 
ATOM     10  C   LIG    1       -0.122   3.825  -0.200  0.00  0.00    -0.150 A 
BRANCH   8  11
ATOM     11  S   LIG    1        2.766   1.020  -0.115  0.00  0.00    +2.500 S 
ATOM     12  O   LIG    1        2.608  -0.124   0.713  0.00  0.00    -0.930 OA
ATOM     13  O   LIG    1        3.701   2.038   0.213  0.00  0.00    -0.930 OA
ATOM     14  C   LIG    1        2.942   0.529  -1.852  0.00  0.00    -0.250 C 
ENDBRANCH   8  11
ENDBRANCH   2  10
ENDBRANCH   1   2
BRANCH   1  15
ATOM     15  C   LIG    1        0.730   7.442  -0.787  0.00  0.00    +0.240 C 
BRANCH  15  16
ATOM     16  C   LIG    1        2.082   8.096  -0.918  0.00  0.00    +0.360 C 
ATOM     17  O   LIG    1        3.086   7.429  -0.834  0.00  0.00    -0.420 OA
BRANCH  16  18
ATOM     18  C   LIG    1        2.181   9.581  -1.154  0.00  0.00    -0.090 C 
ATOM     19  C   LIG    1        1.470   9.938  -2.461  0.00  0.00    +0.040 C 
ATOM     20  C   LIG    1        1.571  11.446  -2.701  0.00  0.00    +0.000 C 
ATOM     21  C   LIG    1        0.910  12.192  -1.540  0.00  0.00    +0.020 C 
ATOM     22  C   LIG    1        1.621  11.835  -0.233  0.00  0.00    +0.000 C 
ATOM     23  C   LIG    1        3.094  12.239  -0.327  0.00  0.00    +0.020 C 
ATOM     24  C   LIG    1        3.755  11.493  -1.488  0.00  0.00    -0.010 C 
ATOM     25  C   LIG    1        3.044  11.850  -2.795  0.00  0.00    +0.020 C 
ATOM     26  C   LIG    1        1.521  10.327   0.006  0.00  0.00    +0.040 C 
ATOM     27  C   LIG    1        3.654   9.985  -1.248  0.00  0.00    +0.050 C 
ENDBRANCH  16  18
ENDBRANCH  15  16
ENDBRANCH   1  15
TORSDOF 6
