REMARK  Name = ZINCpe00000VVGZu.0
REMARK                            x       y       z     vdW  Elec       q    Type
REMARK                         _______ _______ _______ _____ _____    ______ ____
ROOT
ATOM      1  N   LIG    1       -5.690   3.695  -2.209  0.00  0.00    -0.540 NA
ATOM      2  C   LIG    1       -4.598   4.574  -2.651  0.00  0.00    +0.180 C 
ATOM      3  C   LIG    1       -3.297   3.771  -2.724  0.00  0.00    +0.180 C 
ATOM      4  N   LIG    1       -3.005   3.197  -1.403  0.00  0.00    -0.530 NA
ATOM      5  C   LIG    1       -4.096   2.318  -0.961  0.00  0.00    +0.180 C 
ATOM      6  C   LIG    1       -5.397   3.121  -0.888  0.00  0.00    +0.180 C 
ENDROOT
BRANCH   1   7
ATOM      7  C   LIG    1       -6.972   4.412  -2.199  0.00  0.00    +0.250 C 
BRANCH   7  10
ATOM      8  N   LIG    1       -9.589   2.163  -1.019  0.00  0.00    -0.370 N 
ATOM      9  C   LIG    1       -8.601   3.052  -0.785  0.00  0.00    +0.230 A 
ATOM     10  C   LIG    1       -8.094   3.430  -1.982  0.00  0.00    -0.230 A 
ATOM     11  C   LIG    1       -8.801   2.754  -2.981  0.00  0.00    +0.250 A 
ATOM     12  N   LIG    1       -9.693   1.989  -2.405  0.00  0.00    -0.300 NA
BRANCH   8  13
ATOM     13  C   LIG    1      -10.407   1.497  -0.003  0.00  0.00    +0.330 C 
BRANCH  13  14
ATOM     14  C   LIG    1      -11.888   1.748  -0.295  0.00  0.00    +0.180 C 
BRANCH  14  15
ATOM     15  O   LIG    1      -12.686   1.099   0.696  0.00  0.00    -0.570 OA
ATOM     16  H   LIG    1      -13.638   1.216   0.573  0.00  0.00    +0.390 HD
ENDBRANCH  14  15
ENDBRANCH  13  14
ENDBRANCH   8  13
ENDBRANCH   7  10
ENDBRANCH   1   7
BRANCH   4  17
ATOM     17  C   LIG    1       -1.723   2.480  -1.413  0.00  0.00    +0.160 C 
BRANCH  17  18
ATOM     18  C   LIG    1       -1.332   2.113   0.020  0.00  0.00    +0.260 C 
BRANCH  18  19
ATOM     19  C   LIG    1       -0.017   1.378   0.010  0.00  0.00    -0.090 A 
ATOM     20  C   LIG    1        0.002  -0.004   0.002  0.00  0.00    +0.010 A 
ATOM     21  C   LIG    1        1.208  -0.680  -0.013  0.00  0.00    +0.050 A 
ATOM     22  C   LIG    1        2.396   0.025  -0.021  0.00  0.00    -0.010 A 
ATOM     23  C   LIG    1        2.379   1.410  -0.014  0.00  0.00    +0.100 A 
ATOM     24  F   LIG    1        3.540   2.101  -0.021  0.00  0.00    -0.140 F 
ATOM     25  C   LIG    1        1.171   2.086   0.002  0.00  0.00    -0.020 A 
ENDBRANCH  18  19
BRANCH  18  26
ATOM     26  O   LIG    1       -1.206   3.305   0.798  0.00  0.00    -0.540 OA
ATOM     27  H   LIG    1       -0.537   3.921   0.469  0.00  0.00    +0.370 HD
ENDBRANCH  18  26
ENDBRANCH  17  18
ENDBRANCH   4  17
TORSDOF 9
