REMARK  Name = ZINCrD000000fTu8.0
REMARK                            x       y       z     vdW  Elec       q    Type
REMARK                         _______ _______ _______ _____ _____    ______ ____
ROOT
ATOM      1  C   LIG    1        3.366   0.314  -4.617  0.00  0.00    -0.140 A 
ATOM      2  C   LIG    1        2.103   0.282  -5.212  0.00  0.00    +0.150 A 
ATOM      3  C   LIG    1        0.985   0.050  -4.438  0.00  0.00    +0.000 A 
ATOM      4  C   LIG    1        1.114  -0.157  -3.076  0.00  0.00    +0.170 A 
ATOM      5  C   LIG    1        2.362  -0.121  -2.479  0.00  0.00    -0.690 A 
ATOM      6  C   LIG    1        3.488   0.110  -3.241  0.00  0.00    +0.210 A 
ENDROOT
BRANCH   5   7
ATOM      7  S   LIG    1        2.513  -0.378  -0.742  0.00  0.00    +2.700 S 
ATOM      8  O   LIG    1        1.361  -1.108  -0.343  0.00  0.00    -0.940 OA
ATOM      9  O   LIG    1        3.840  -0.835  -0.518  0.00  0.00    -0.940 OA
BRANCH   7  10
ATOM     10  N   LIG    1        2.401   1.106  -0.015  0.00  0.00    -1.050 N 
ATOM     11  H   LIG    1        3.139   1.442   0.518  0.00  0.00    +0.430 HD
BRANCH  10  12
ATOM     12  C   LIG    1        1.243   1.875  -0.170  0.00  0.00    +0.120 A 
ATOM     13  C   LIG    1        0.002   1.258  -0.237  0.00  0.00    +0.020 A 
ATOM     14  C   LIG    1       -1.140   2.019  -0.397  0.00  0.00    +0.040 A 
ATOM     15  C   LIG    1       -1.049   3.396  -0.478  0.00  0.00    +0.040 A 
ATOM     16  C   LIG    1        0.186   4.017  -0.411  0.00  0.00    +0.010 A 
ATOM     17  C   LIG    1        1.333   3.260  -0.258  0.00  0.00    +0.080 A 
ATOM     18  F   LIG    1        2.539   3.866  -0.193  0.00  0.00    -0.130 F 
ENDBRANCH  10  12
ENDBRANCH   7  10
ENDBRANCH   5   7
BRANCH   1  19
ATOM     19  C   LIG    1        4.567   0.562  -5.440  0.00  0.00    +0.510 C 
ATOM     20  O   LIG    1        5.665   0.590  -4.919  0.00  0.00    -0.490 OA
BRANCH  19  21
ATOM     21  O   LIG    1        4.446   0.758  -6.767  0.00  0.00    -0.330 OA
BRANCH  21  22
ATOM     22  C   LIG    1        5.669   0.997  -7.513  0.00  0.00    +0.230 C 
BRANCH  22  23
ATOM     23  C   LIG    1        5.339   1.192  -8.970  0.00  0.00    +0.370 C 
ATOM     24  O   LIG    1        4.192   1.136  -9.342  0.00  0.00    -0.420 OA
BRANCH  23  26
ATOM     25  C   LIG    1        5.840   1.617 -11.361  0.00  0.00    +0.050 C 
ATOM     26  C   LIG    1        6.441   1.457  -9.963  0.00  0.00    -0.110 C 
ATOM     27  C   LIG    1        7.423   0.284  -9.960  0.00  0.00    +0.060 C 
ATOM     28  C   LIG    1        7.179   2.740  -9.576  0.00  0.00    +0.060 C 
ENDBRANCH  23  26
ENDBRANCH  22  23
ENDBRANCH  21  22
ENDBRANCH  19  21
ENDBRANCH   1  19
TORSDOF 8
