REMARK  Name = ZINCvU0000000C5c.0
REMARK                            x       y       z     vdW  Elec       q    Type
REMARK                         _______ _______ _______ _____ _____    ______ ____
ROOT
ATOM      1  C   LIG    1        1.144   0.295   3.963  0.00  0.00    +0.160 C 
ATOM      2  N   LIG    1        0.885   0.465   2.713  0.00  0.00    -0.240 NA
ATOM      3  N   LIG    1       -0.242   1.246   2.466  0.00  0.00    -0.460 N 
ATOM      4  C   LIG    1       -0.830   1.652   3.752  0.00  0.00    +0.330 C 
ATOM      5  C   LIG    1       -0.718   1.572   1.248  0.00  0.00    +0.580 C 
ATOM      6  O   LIG    1       -1.715   2.256   1.150  0.00  0.00    -0.500 OA
ATOM      7  C   LIG    1        0.105   1.010   4.796  0.00  0.00    +0.100 C 
ENDROOT
BRANCH   1  12
ATOM      8  C   LIG    1        5.561  -2.738   6.055  0.00  0.00    +0.100 C 
ATOM      9  C   LIG    1        4.404  -1.944   5.507  0.00  0.00    -0.060 A 
ATOM     10  C   LIG    1        4.234  -1.829   4.138  0.00  0.00    +0.010 A 
ATOM     11  C   LIG    1        3.177  -1.103   3.629  0.00  0.00    +0.060 A 
ATOM     12  C   LIG    1        2.277  -0.483   4.499  0.00  0.00    -0.050 A 
ATOM     13  C   LIG    1        2.457  -0.599   5.880  0.00  0.00    +0.050 A 
ATOM     14  C   LIG    1        3.515  -1.333   6.374  0.00  0.00    +0.010 A 
ENDBRANCH   1  12
BRANCH   4  15
ATOM     15  C   LIG    1       -2.230   1.110   3.889  0.00  0.00    -0.030 A 
ATOM     16  C   LIG    1       -3.272   1.755   4.443  0.00  0.00    -0.030 A 
ATOM     17  C   LIG    1       -4.383   0.885   4.360  0.00  0.00    -0.060 A 
ATOM     18  C   LIG    1       -3.951  -0.243   3.768  0.00  0.00    +0.170 A 
ATOM     19  O   LIG    1       -2.646  -0.101   3.485  0.00  0.00    -0.170 OA
ENDBRANCH   4  15
BRANCH   5  20
ATOM     20  C   LIG    1       -0.013   1.086   0.008  0.00  0.00    +0.130 C 
BRANCH  20  21
ATOM     21  S   LIG    1       -0.888   1.685  -1.458  0.00  0.00    +0.150 S 
BRANCH  21  22
ATOM     22  C   LIG    1        0.122   0.990  -2.724  0.00  0.00    +0.120 A 
ATOM     23  N   LIG    1        1.197   0.259  -2.544  0.00  0.00    -0.280 NA
ATOM     24  N   LIG    1        1.681  -0.081  -3.687  0.00  0.00    -0.250 NA
ATOM     25  C   LIG    1        0.938   0.428  -4.643  0.00  0.00    +0.240 A 
ATOM     26  O   LIG    1       -0.065   1.117  -4.052  0.00  0.00    -0.200 OA
BRANCH  25  27
ATOM     27  C   LIG    1        1.156   0.277  -6.090  0.00  0.00    -0.150 A 
ATOM     28  C   LIG    1        2.174  -0.423  -6.663  0.00  0.00    +0.100 A 
ATOM     29  C   LIG    1        2.163  -0.417  -8.042  0.00  0.00    +0.020 A 
ATOM     30  C   LIG    1        1.162   0.270  -8.600  0.00  0.00    -0.010 A 
ATOM     31  S   LIG    1        0.139   0.964  -7.349  0.00  0.00    +0.180 S 
ENDBRANCH  25  27
ENDBRANCH  21  22
ENDBRANCH  20  21
ENDBRANCH   5  20
TORSDOF 6
