REMARK  Name = ZINCpk00000xR0uy.0
REMARK                            x       y       z     vdW  Elec       q    Type
REMARK                         _______ _______ _______ _____ _____    ______ ____
ROOT
ATOM      1  C   LIG    1       -1.796   0.713  -1.887  0.00  0.00    +0.570 C 
ATOM      2  N   LIG    1       -1.677   1.547  -0.835  0.00  0.00    -0.600 N 
ATOM      3  C   LIG    1       -1.708   1.027   0.539  0.00  0.00    +0.270 C 
ATOM      4  C   LIG    1       -2.777   1.785   1.333  0.00  0.00    +0.010 C 
ATOM      5  C   LIG    1       -2.510   3.289   1.232  0.00  0.00    +0.020 C 
ATOM      6  C   LIG    1       -2.588   3.729  -0.232  0.00  0.00    +0.020 C 
ATOM      7  C   LIG    1       -1.515   2.993  -1.040  0.00  0.00    +0.230 C 
ATOM      8  O   LIG    1       -1.896   1.164  -3.011  0.00  0.00    -0.530 OA
ENDROOT
BRANCH   1  12
ATOM      9  C   LIG    1       -1.817  -3.489  -1.274  0.00  0.00    +0.160 A 
ATOM     10  C   LIG    1       -2.606  -2.930  -2.273  0.00  0.00    -0.010 A 
ATOM     11  C   LIG    1       -2.602  -1.568  -2.474  0.00  0.00    +0.120 A 
ATOM     12  C   LIG    1       -1.803  -0.748  -1.674  0.00  0.00    -0.170 A 
ATOM     13  C   LIG    1       -1.007  -1.314  -0.675  0.00  0.00    +0.080 A 
ATOM     14  C   LIG    1       -1.021  -2.676  -0.476  0.00  0.00    -0.090 A 
BRANCH   9  15
ATOM     15  O   LIG    1       -1.824  -4.832  -1.078  0.00  0.00    -0.280 OA
BRANCH  15  16
ATOM     16  C   LIG    1       -0.990  -5.340  -0.035  0.00  0.00    +0.240 C 
BRANCH  16  20
ATOM     17  N   LIG    1       -0.429  -7.539   0.949  0.00  0.00    -0.850 N 
ATOM     18  H   LIG    1       -0.518  -8.504   0.993  0.00  0.00    +0.410 HD
ATOM     19  H   LIG    1        0.162  -7.077   1.564  0.00  0.00    +0.400 HD
ATOM     20  C   LIG    1       -1.128  -6.839   0.033  0.00  0.00    +0.520 C 
ATOM     21  O   LIG    1       -1.867  -7.416  -0.736  0.00  0.00    -0.520 OA
ENDBRANCH  16  20
ENDBRANCH  15  16
ENDBRANCH   9  15
ENDBRANCH   1  12
BRANCH   7  22
ATOM     22  C   LIG    1       -1.676   3.321  -2.525  0.00  0.00    +0.340 C 
BRANCH  22  23
ATOM     23  N   LIG    1       -0.458   2.941  -3.244  0.00  0.00    -0.360 N 
ATOM     24  C   LIG    1       -0.397   2.182  -4.358  0.00  0.00    +0.290 A 
ATOM     25  C   LIG    1        0.904   2.066  -4.709  0.00  0.00    -0.170 A 
ATOM     26  C   LIG    1        1.667   2.771  -3.772  0.00  0.00    +0.220 A 
ATOM     27  N   LIG    1        0.851   3.296  -2.893  0.00  0.00    -0.320 NA
ENDBRANCH  22  23
ENDBRANCH   7  22
TORSDOF 6
