REMARK  Name = ZINCpk000000mX8k.0
REMARK                            x       y       z     vdW  Elec       q    Type
REMARK                         _______ _______ _______ _____ _____    ______ ____
ROOT
ATOM      1  C   LIG    1       -2.081   1.034   2.560  0.00  0.00    +0.510 C 
ATOM      2  N   LIG    1       -2.225   0.656   3.846  0.00  0.00    -0.720 N 
ATOM      3  H   LIG    1       -2.220  -0.286   4.077  0.00  0.00    +0.410 HD
ATOM      4  O   LIG    1       -2.087   2.212   2.270  0.00  0.00    -0.530 OA
ENDROOT
BRANCH   1   5
ATOM      5  C   LIG    1       -1.912  -0.006   1.483  0.00  0.00    +0.060 C 
BRANCH   5   6
ATOM      6  C   LIG    1       -1.770   0.684   0.125  0.00  0.00    +0.310 C 
BRANCH   6   7
ATOM      7  C   LIG    1       -1.725  -0.356  -0.965  0.00  0.00    -0.100 A 
ATOM      8  C   LIG    1       -0.582  -1.111  -1.152  0.00  0.00    +0.010 A 
ATOM      9  C   LIG    1       -0.542  -2.068  -2.149  0.00  0.00    +0.000 A 
ATOM     10  C   LIG    1       -1.641  -2.263  -2.964  0.00  0.00    +0.000 A 
ATOM     11  C   LIG    1       -2.782  -1.504  -2.780  0.00  0.00    +0.000 A 
ATOM     12  C   LIG    1       -2.823  -0.550  -1.781  0.00  0.00    +0.020 A 
ENDBRANCH   6   7
BRANCH   6  15
ATOM     13  C   LIG    1        0.799   3.411  -0.653  0.00  0.00    +0.090 C 
ATOM     14  C   LIG    1       -0.425   2.534  -0.716  0.00  0.00    +0.520 C 
ATOM     15  N   LIG    1       -0.533   1.469   0.103  0.00  0.00    -0.720 N 
ATOM     16  H   LIG    1        0.208   1.222   0.678  0.00  0.00    +0.400 HD
ATOM     17  O   LIG    1       -1.315   2.789  -1.499  0.00  0.00    -0.540 OA
ENDBRANCH   6  15
ENDBRANCH   5   6
ENDBRANCH   1   5
BRANCH   2  18
ATOM     18  C   LIG    1       -2.389   1.667   4.893  0.00  0.00    +0.270 C 
BRANCH  18  19
ATOM     19  C   LIG    1       -2.647   0.976   6.233  0.00  0.00    +0.090 C 
ATOM     20  C   LIG    1       -2.952   2.030   7.300  0.00  0.00    +0.020 C 
ATOM     21  C   LIG    1       -1.407   0.180   6.643  0.00  0.00    +0.050 C 
BRANCH  19  22
ATOM     22  N   LIG    1       -3.792   0.066   6.103  0.00  0.00    -0.520 NA
ATOM     23  C   LIG    1       -4.989   0.786   5.644  0.00  0.00    +0.150 C 
ATOM     24  C   LIG    1       -6.139  -0.208   5.465  0.00  0.00    +0.220 C 
ATOM     25  O   LIG    1       -6.362  -0.898   6.697  0.00  0.00    -0.380 OA
ATOM     26  C   LIG    1       -5.218  -1.612   7.172  0.00  0.00    +0.220 C 
ATOM     27  C   LIG    1       -4.058  -0.632   7.369  0.00  0.00    +0.150 C 
ENDBRANCH  19  22
ENDBRANCH  18  19
ENDBRANCH   2  18
TORSDOF 7
