REMARK  Name = ZINCrD0000073fGL.0
REMARK                            x       y       z     vdW  Elec       q    Type
REMARK                         _______ _______ _______ _____ _____    ______ ____
ROOT
ATOM      1  C   LIG    1        0.009   1.066  -0.013  0.00  0.00    +0.090 C 
ENDROOT
BRANCH   1   4
ATOM      2  C   LIG    1       -0.995   3.207  -2.959  0.00  0.00    +0.160 A 
ATOM      3  C   LIG    1       -0.319   2.740  -1.845  0.00  0.00    -0.020 A 
ATOM      4  C   LIG    1       -0.731   1.576  -1.223  0.00  0.00    -0.000 A 
ATOM      5  C   LIG    1       -1.824   0.881  -1.706  0.00  0.00    -0.040 A 
ATOM      6  C   LIG    1       -2.507   1.344  -2.815  0.00  0.00    +0.060 A 
ATOM      7  C   LIG    1       -2.096   2.508  -3.445  0.00  0.00    +0.110 A 
BRANCH   5   8
ATOM      8  N   LIG    1       -2.264  -0.362  -1.034  0.00  0.00    +0.040 N 
ATOM      9  O   LIG    1       -1.732  -0.715   0.003  0.00  0.00    -0.150 OA
ATOM     10  O   LIG    1       -3.158  -1.032  -1.518  0.00  0.00    -0.160 OA
ENDBRANCH   5   8
BRANCH   2  12
ATOM     11  C   LIG    1        0.549   5.015  -3.021  0.00  0.00    +0.250 C 
ATOM     12  O   LIG    1       -0.588   4.349  -3.575  0.00  0.00    -0.290 OA
ENDBRANCH   2  12
BRANCH   7  13
ATOM     13  O   LIG    1       -2.767   2.965  -4.537  0.00  0.00    -0.290 OA
ATOM     14  C   LIG    1       -3.886   2.195  -4.980  0.00  0.00    +0.250 C 
ENDBRANCH   7  13
ENDBRANCH   1   4
BRANCH   1  15
ATOM     15  C   LIG    1       -0.732   1.492   1.255  0.00  0.00    +0.280 C 
BRANCH  15  16
ATOM     16  N   LIG    1       -0.013   0.997   2.431  0.00  0.00    -0.720 N 
ATOM     17  H   LIG    1        0.804   0.484   2.320  0.00  0.00    +0.400 HD
ATOM     18  C   LIG    1       -0.484   1.253   3.667  0.00  0.00    +0.530 C 
ATOM     19  O   LIG    1       -1.505   1.893   3.806  0.00  0.00    -0.520 OA
BRANCH  18  20
ATOM     20  C   LIG    1        0.256   0.743   4.877  0.00  0.00    +0.080 C 
BRANCH  20  21
ATOM     21  S   LIG    1       -0.624   1.248   6.381  0.00  0.00    -0.020 S 
BRANCH  21  22
ATOM     22  C   LIG    1        0.373   0.574   7.668  0.00  0.00    -0.110 A 
ATOM     23  C   LIG    1        1.523  -0.142   7.356  0.00  0.00    -0.010 A 
ATOM     24  C   LIG    1        2.302  -0.669   8.368  0.00  0.00    +0.010 A 
ATOM     25  C   LIG    1        1.939  -0.485   9.689  0.00  0.00    +0.010 A 
ATOM     26  C   LIG    1        0.795   0.227  10.004  0.00  0.00    +0.030 A 
ATOM     27  C   LIG    1        0.015   0.762   8.998  0.00  0.00    -0.060 A 
ATOM     28  C   LIG    1       -1.227   1.543   9.341  0.00  0.00    +0.100 C 
ENDBRANCH  21  22
ENDBRANCH  20  21
ENDBRANCH  18  20
ENDBRANCH  15  16
ENDBRANCH   1  15
TORSDOF 9
