REMARK  Name = ZINCrH00000tj1pE.0
REMARK                            x       y       z     vdW  Elec       q    Type
REMARK                         _______ _______ _______ _____ _____    ______ ____
ROOT
ATOM      1  N   LIG    1       -0.875   1.865   1.354  0.00  0.00    -0.970 NA
ENDROOT
BRANCH   1   2
ATOM      2  S   LIG    1       -0.017   1.417   0.010  0.00  0.00    +2.710 S 
ATOM      3  O   LIG    1        1.162   2.210   0.003  0.00  0.00    -0.940 OA
ATOM      4  O   LIG    1        0.002  -0.004   0.002  0.00  0.00    -0.940 OA
BRANCH   2   5
ATOM      5  C   LIG    1       -0.957   1.909  -1.397  0.00  0.00    -0.800 A 
ATOM      6  C   LIG    1       -0.861   3.090  -2.011  0.00  0.00    +0.160 A 
ATOM      7  C   LIG    1       -1.702   3.252  -3.099  0.00  0.00    -0.010 A 
ATOM      8  C   LIG    1       -2.480   2.202  -3.368  0.00  0.00    +0.000 A 
ATOM      9  S   LIG    1       -2.159   0.917  -2.212  0.00  0.00    +0.210 S 
ENDBRANCH   2   5
ENDBRANCH   1   2
BRANCH   1  10
ATOM     10  C   LIG    1       -1.942   1.001   1.864  0.00  0.00    +0.320 C 
BRANCH  10  11
ATOM     11  C   LIG    1       -1.392   0.115   2.952  0.00  0.00    +0.410 C 
ATOM     12  O   LIG    1       -0.224   0.197   3.270  0.00  0.00    -0.460 OA
BRANCH  11  16
ATOM     13  C   LIG    1       -5.476  -2.611   4.313  0.00  0.00    +0.120 C 
ATOM     14  C   LIG    1       -4.084  -2.042   4.215  0.00  0.00    +0.010 A 
ATOM     15  C   LIG    1       -3.696  -1.075   3.367  0.00  0.00    -0.010 A 
ATOM     16  C   LIG    1       -2.269  -0.846   3.626  0.00  0.00    -0.270 A 
ATOM     17  C   LIG    1       -1.921  -1.728   4.632  0.00  0.00    +0.110 A 
ATOM     18  C   LIG    1       -0.551  -1.876   5.243  0.00  0.00    +0.150 C 
ATOM     19  N   LIG    1       -3.017  -2.428   4.974  0.00  0.00    -0.440 N 
ATOM     20  C   LIG    1       -3.059  -3.462   6.010  0.00  0.00    +0.320 C 
ENDBRANCH  11  16
ENDBRANCH  10  11
ENDBRANCH   1  10
BRANCH   1  21
ATOM     21  C   LIG    1       -0.567   3.127   2.032  0.00  0.00    +0.370 C 
BRANCH  21  22
ATOM     22  C   LIG    1       -1.487   4.207   1.525  0.00  0.00    -0.110 A 
ATOM     23  C   LIG    1       -1.118   4.976   0.437  0.00  0.00    +0.010 A 
ATOM     24  C   LIG    1       -1.964   5.964  -0.030  0.00  0.00    +0.000 A 
ATOM     25  C   LIG    1       -3.175   6.190   0.597  0.00  0.00    +0.010 A 
ATOM     26  C   LIG    1       -3.542   5.425   1.688  0.00  0.00    +0.000 A 
ATOM     27  C   LIG    1       -2.698   4.434   2.152  0.00  0.00    +0.020 A 
ENDBRANCH  21  22
ENDBRANCH   1  21
TORSDOF 7
