REMARK  Name = ZINCvU00000006rI.0
REMARK                            x       y       z     vdW  Elec       q    Type
REMARK                         _______ _______ _______ _____ _____    ______ ____
ROOT
ATOM      1  O   LIG    1       -3.758   3.362   0.169  0.00  0.00    -0.520 OA
ATOM      2  C   LIG    1       -3.741   2.148   0.081  0.00  0.00    +0.560 C 
ATOM      3  N   LIG    1       -4.894   1.467  -0.069  0.00  0.00    -0.580 N 
ENDROOT
BRANCH   3   4
ATOM      4  C   LIG    1       -4.883   0.002  -0.077  0.00  0.00    +0.200 C 
ATOM      5  C   LIG    1       -6.166  -0.712  -0.508  0.00  0.00    +0.040 C 
ATOM      6  C   LIG    1       -5.745  -0.717   0.963  0.00  0.00    +0.020 C 
ENDBRANCH   3   4
BRANCH   2   7
ATOM      7  C   LIG    1       -2.467   1.428   0.138  0.00  0.00    -0.070 C 
ATOM      8  C   LIG    1       -1.306   2.114   0.171  0.00  0.00    +0.130 C 
BRANCH   8   9
ATOM      9  C   LIG    1       -0.026   1.390   0.229  0.00  0.00    -0.080 A 
ATOM     10  C   LIG    1       -0.009  -0.008   0.249  0.00  0.00    +0.070 A 
ATOM     11  C   LIG    1        1.195  -0.679   0.297  0.00  0.00    +0.020 A 
ATOM     12  C   LIG    1        2.384   0.028   0.325  0.00  0.00    +0.080 A 
ATOM     13  C   LIG    1        2.376   1.412   0.305  0.00  0.00    -0.180 A 
ATOM     14  C   LIG    1        1.181   2.097   0.257  0.00  0.00    +0.100 A 
BRANCH  13  15
ATOM     15  C   LIG    1        3.677   2.172   0.335  0.00  0.00    +0.510 C 
ATOM     16  F   LIG    1        3.712   2.993   1.467  0.00  0.00    -0.170 F 
ATOM     17  F   LIG    1        3.783   2.960  -0.816  0.00  0.00    -0.170 F 
ATOM     18  F   LIG    1        4.744   1.268   0.381  0.00  0.00    -0.180 F 
ENDBRANCH  13  15
ENDBRANCH   8   9
ENDBRANCH   2   7
BRANCH   3  19
ATOM     19  C   LIG    1       -6.158   2.191  -0.223  0.00  0.00    +0.460 C 
BRANCH  19  20
ATOM     20  C   LIG    1       -6.414   2.448  -1.685  0.00  0.00    +0.140 A 
ATOM     21  N   LIG    1       -7.055   1.663  -2.505  0.00  0.00    -0.270 NA
ATOM     22  N   LIG    1       -7.088   2.196  -3.675  0.00  0.00    -0.270 NA
ATOM     23  C   LIG    1       -6.456   3.346  -3.644  0.00  0.00    +0.210 A 
ATOM     24  O   LIG    1       -6.017   3.527  -2.383  0.00  0.00    -0.190 OA
BRANCH  23  25
ATOM     25  C   LIG    1       -6.262   4.270  -4.782  0.00  0.00    -0.020 A 
ATOM     26  C   LIG    1       -6.774   3.951  -6.040  0.00  0.00    +0.090 A 
ATOM     27  C   LIG    1       -6.590   4.819  -7.097  0.00  0.00    +0.020 A 
ATOM     28  C   LIG    1       -5.898   6.002  -6.912  0.00  0.00    +0.060 A 
ATOM     29  C   LIG    1       -5.386   6.326  -5.668  0.00  0.00    +0.030 A 
ATOM     30  C   LIG    1       -5.569   5.470  -4.600  0.00  0.00    -0.010 A 
ATOM     31 CL   LIG    1       -4.933   5.880  -3.038  0.00  0.00    -0.030 Cl
ENDBRANCH  23  25
ENDBRANCH  19  20
ENDBRANCH   3  19
TORSDOF 7
