REMARK  Name = ZINCrD0000073PzJ.0
REMARK                            x       y       z     vdW  Elec       q    Type
REMARK                         _______ _______ _______ _____ _____    ______ ____
ROOT
ATOM      1  C   LIG    1       -4.976   0.536  -0.973  0.00  0.00    +0.030 C 
ATOM      2  C   LIG    1       -4.911   1.390   0.294  0.00  0.00    +0.180 C 
ENDROOT
BRANCH   2   3
ATOM      3  N   LIG    1       -6.019   2.354   0.293  0.00  0.00    -0.520 NA
ATOM      4  C   LIG    1       -7.290   1.696   0.624  0.00  0.00    +0.190 C 
ATOM      5  C   LIG    1       -8.403   2.744   0.689  0.00  0.00    +0.200 C 
ATOM      6  N   LIG    1       -8.494   3.440  -0.602  0.00  0.00    -0.490 N 
ATOM      7  C   LIG    1       -7.223   4.098  -0.933  0.00  0.00    +0.210 C 
ATOM      8  C   LIG    1       -6.110   3.049  -0.999  0.00  0.00    +0.200 C 
BRANCH   6   9
ATOM      9  C   LIG    1       -9.548   4.356  -0.604  0.00  0.00    +0.110 A 
ATOM     10  C   LIG    1       -9.306   5.694  -0.890  0.00  0.00    -0.040 A 
ATOM     11  C   LIG    1      -10.351   6.597  -0.896  0.00  0.00    +0.030 A 
ATOM     12  C   LIG    1      -11.636   6.173  -0.607  0.00  0.00    -0.030 A 
ATOM     13  C   LIG    1      -11.879   4.843  -0.317  0.00  0.00    +0.020 A 
ATOM     14  C   LIG    1      -10.839   3.933  -0.315  0.00  0.00    -0.020 A 
ENDBRANCH   6   9
ENDBRANCH   2   3
BRANCH   2  15
ATOM     15  C   LIG    1       -3.600   2.132   0.334  0.00  0.00    +0.520 C 
ATOM     16  N   LIG    1       -2.461   1.473   0.628  0.00  0.00    -0.670 N 
ATOM     17  H   LIG    1       -2.476   0.512   0.753  0.00  0.00    +0.410 HD
ATOM     18  O   LIG    1       -3.569   3.322   0.101  0.00  0.00    -0.490 OA
BRANCH  16  19
ATOM     19  C   LIG    1       -1.261   2.175   0.752  0.00  0.00    +0.160 A 
ATOM     20  C   LIG    1       -1.058   3.337   0.039  0.00  0.00    +0.020 A 
ATOM     21  C   LIG    1        0.134   4.045   0.162  0.00  0.00    +0.050 A 
ATOM     22  C   LIG    1        1.131   3.610   0.980  0.00  0.00    +0.030 A 
ATOM     23  C   LIG    1        0.967   2.426   1.720  0.00  0.00    +0.140 A 
ATOM     24  N   LIG    1        1.934   1.981   2.530  0.00  0.00    -0.470 NA
ATOM     25  C   LIG    1        1.789   0.878   3.224  0.00  0.00    +0.290 A 
ATOM     26  C   LIG    1        0.625   0.117   3.153  0.00  0.00    -0.030 A 
ATOM     27  C   LIG    1       -0.402   0.515   2.344  0.00  0.00    +0.070 A 
ATOM     28  C   LIG    1       -0.242   1.698   1.603  0.00  0.00    -0.120 A 
ENDBRANCH  16  19
ENDBRANCH   2  15
TORSDOF 4
