REMARK  Name = ZINCrg000000oBCp.0
REMARK                            x       y       z     vdW  Elec       q    Type
REMARK                         _______ _______ _______ _____ _____    ______ ____
ROOT
ATOM      1  N   LIG    1        2.600   1.724   3.091  0.00  0.00    -0.530 NA
ATOM      2  C   LIG    1        2.612   0.498   2.282  0.00  0.00    +0.190 C 
ATOM      3  C   LIG    1        2.267   0.845   0.830  0.00  0.00    +0.300 C 
ATOM      4  N   LIG    1        0.998   1.587   0.816  0.00  0.00    -0.610 N 
ATOM      5  C   LIG    1        0.863   2.754   1.701  0.00  0.00    +0.280 C 
ATOM      6  C   LIG    1       -0.014   1.212   0.009  0.00  0.00    +0.560 C 
ATOM      7  O   LIG    1        0.146   0.305  -0.786  0.00  0.00    -0.520 OA
ATOM      8  C   LIG    1        1.261   2.328   3.123  0.00  0.00    +0.170 C 
ENDROOT
BRANCH   6   9
ATOM      9  C   LIG    1       -1.315   1.904   0.085  0.00  0.00    -0.090 A 
ATOM     10  C   LIG    1       -1.376   3.297  -0.001  0.00  0.00    +0.070 A 
ATOM     11  C   LIG    1       -2.594   3.942   0.066  0.00  0.00    +0.050 A 
ATOM     12  C   LIG    1       -3.762   3.219   0.228  0.00  0.00    +0.060 A 
ATOM     13  C   LIG    1       -3.717   1.837   0.321  0.00  0.00    +0.070 A 
ATOM     14  N   LIG    1       -4.697   0.857   0.483  0.00  0.00    -0.550 N 
ATOM     15  C   LIG    1       -6.139   1.084   0.606  0.00  0.00    +0.360 C 
ATOM     16  C   LIG    1       -4.074  -0.338   0.507  0.00  0.00    +0.630 A 
ATOM     17  O   LIG    1       -4.623  -1.415   0.635  0.00  0.00    -0.480 OA
ATOM     18  O   LIG    1       -2.751  -0.154   0.367  0.00  0.00    -0.230 OA
ATOM     19  C   LIG    1       -2.496   1.170   0.250  0.00  0.00    +0.080 A 
ENDBRANCH   6   9
BRANCH   1  20
ATOM     20  C   LIG    1        3.092   1.462   4.451  0.00  0.00    +0.330 C 
BRANCH  20  23
ATOM     21  C   LIG    1        1.942   4.057   6.639  0.00  0.00    +0.180 A 
ATOM     22  N   LIG    1        1.734   2.904   6.050  0.00  0.00    -0.480 NA
ATOM     23  C   LIG    1        2.838   2.668   5.318  0.00  0.00    +0.170 A 
ATOM     24  N   LIG    1        3.647   3.668   5.500  0.00  0.00    -0.360 NA
ATOM     25  O   LIG    1        3.149   4.480   6.252  0.00  0.00    +0.080 OA
BRANCH  21  27
ATOM     26  C   LIG    1        1.278   4.329   9.013  0.00  0.00    +0.050 C 
ATOM     27  C   LIG    1        0.999   4.769   7.574  0.00  0.00    +0.180 C 
ENDBRANCH  21  27
ENDBRANCH  20  23
ENDBRANCH   1  20
TORSDOF 4
