REMARK  Name = ZINCqH00000030gD.0
REMARK                            x       y       z     vdW  Elec       q    Type
REMARK                         _______ _______ _______ _____ _____    ______ ____
ROOT
ATOM      1  N   LIG    1        5.858  -1.571   1.268  0.00  0.00    -0.680 N 
ATOM      2  H   LIG    1        6.451  -0.916   1.669  0.00  0.00    +0.410 HD
ATOM      3  C   LIG    1        6.317  -2.801   0.965  0.00  0.00    +0.510 C 
ATOM      4  O   LIG    1        5.601  -3.590   0.385  0.00  0.00    -0.510 OA
ENDROOT
BRANCH   1   8
ATOM      5  C   LIG    1        1.889  -0.577   0.483  0.00  0.00    -0.150 A 
ATOM      6  C   LIG    1        2.891   0.389   0.356  0.00  0.00    +0.070 A 
ATOM      7  C   LIG    1        4.201   0.058   0.621  0.00  0.00    -0.020 A 
ATOM      8  C   LIG    1        4.529  -1.238   1.005  0.00  0.00    +0.170 A 
ATOM      9  C   LIG    1        3.535  -2.204   1.127  0.00  0.00    +0.010 A 
ATOM     10  C   LIG    1        2.222  -1.879   0.869  0.00  0.00    +0.100 A 
BRANCH   5  12
ATOM     11  N   LIG    1        0.002   0.976   0.582  0.00  0.00    -0.610 N 
ATOM     12  C   LIG    1        0.483  -0.225   0.205  0.00  0.00    +0.560 C 
ATOM     13  O   LIG    1       -0.241  -1.019  -0.363  0.00  0.00    -0.530 OA
BRANCH  11  15
ATOM     14  C   LIG    1        1.349   3.008   0.385  0.00  0.00    +0.020 C 
ATOM     15  C   LIG    1        0.855   1.907   1.325  0.00  0.00    +0.260 C 
ENDBRANCH  11  15
BRANCH  11  16
ATOM     16  C   LIG    1       -1.372   1.354   0.243  0.00  0.00    +0.270 C 
ATOM     17  C   LIG    1       -2.315   0.911   1.364  0.00  0.00    +0.020 C 
ENDBRANCH  11  16
ENDBRANCH   5  12
ENDBRANCH   1   8
BRANCH   3  18
ATOM     18  C   LIG    1        7.721  -3.196   1.345  0.00  0.00    +0.070 C 
BRANCH  18  19
ATOM     19  C   LIG    1        7.988  -4.632   0.889  0.00  0.00    +0.100 C 
BRANCH  19  20
ATOM     20  C   LIG    1        9.391  -5.027   1.269  0.00  0.00    -0.120 A 
ATOM     21  C   LIG    1       10.434  -4.804   0.389  0.00  0.00    +0.060 A 
ATOM     22  C   LIG    1       11.722  -5.160   0.738  0.00  0.00    -0.080 A 
ATOM     23  C   LIG    1       11.968  -5.753   1.968  0.00  0.00    +0.130 A 
ATOM     24  C   LIG    1       10.919  -5.981   2.847  0.00  0.00    -0.020 A 
ATOM     25  C   LIG    1        9.633  -5.617   2.496  0.00  0.00    +0.060 A 
BRANCH  23  26
ATOM     26  O   LIG    1       13.233  -6.110   2.311  0.00  0.00    -0.320 OA
ATOM     27  C   LIG    1       14.263  -5.845   1.356  0.00  0.00    +0.250 C 
ENDBRANCH  23  26
ENDBRANCH  19  20
ENDBRANCH  18  19
ENDBRANCH   3  18
TORSDOF 8
