REMARK  Name = ZINCvU0000000FR1.0
REMARK                            x       y       z     vdW  Elec       q    Type
REMARK                         _______ _______ _______ _____ _____    ______ ____
ROOT
ATOM      1  C   LIG    1       -8.956  -1.757   0.081  0.00  0.00    +0.160 A 
ATOM      2  N   LIG    1       -8.834  -0.449   0.091  0.00  0.00    -0.280 NA
ATOM      3  N   LIG    1       -9.994   0.104   0.100  0.00  0.00    -0.250 NA
ATOM      4  C   LIG    1      -10.931  -0.819   0.105  0.00  0.00    +0.260 A 
ATOM      5  N   LIG    1      -10.293  -2.040   0.093  0.00  0.00    -0.450 N 
ENDROOT
BRANCH   4   6
ATOM      6  C   LIG    1      -12.384  -0.590   0.121  0.00  0.00    +0.040 A 
ATOM      7  C   LIG    1      -13.006   0.584   0.423  0.00  0.00    +0.030 A 
ATOM      8  C   LIG    1      -14.390   0.349   0.311  0.00  0.00    -0.050 A 
ATOM      9  C   LIG    1      -14.546  -0.943  -0.041  0.00  0.00    +0.190 A 
ATOM     10  O   LIG    1      -13.332  -1.507  -0.156  0.00  0.00    -0.180 OA
ENDBRANCH   4   6
BRANCH   1  11
ATOM     11  S   LIG    1       -7.640  -2.929   0.062  0.00  0.00    +0.070 S 
BRANCH  11  12
ATOM     12  C   LIG    1       -6.220  -1.807   0.053  0.00  0.00    +0.110 C 
BRANCH  12  14
ATOM     13  O   LIG    1       -4.992  -3.822   0.031  0.00  0.00    -0.440 OA
ATOM     14  C   LIG    1       -4.945  -2.610   0.037  0.00  0.00    +0.420 C 
BRANCH  14  15
ATOM     15  C   LIG    1       -3.646  -1.926   0.027  0.00  0.00    -0.190 A 
ATOM     16  C   LIG    1       -2.460  -2.670   0.012  0.00  0.00    +0.130 A 
ATOM     17  C   LIG    1       -1.249  -2.026   0.003  0.00  0.00    +0.000 A 
ATOM     18  C   LIG    1       -1.198  -0.636   0.010  0.00  0.00    +0.150 A 
ATOM     19  C   LIG    1       -2.373   0.107   0.031  0.00  0.00    -0.060 A 
ATOM     20  C   LIG    1       -3.589  -0.527   0.034  0.00  0.00    +0.110 A 
BRANCH  18  21
ATOM     21  O   LIG    1        0.002  -0.004   0.002  0.00  0.00    -0.320 OA
BRANCH  21  22
ATOM     22  C   LIG    1       -0.017   1.425   0.010  0.00  0.00    +0.600 C 
ATOM     23  F   LIG    1       -0.672   1.876   1.161  0.00  0.00    -0.190 F 
ATOM     24  F   LIG    1       -0.694   1.888  -1.123  0.00  0.00    -0.190 F 
ENDBRANCH  21  22
ENDBRANCH  18  21
ENDBRANCH  14  15
ENDBRANCH  12  14
ENDBRANCH  11  12
ENDBRANCH   1  11
BRANCH   5  25
ATOM     25  C   LIG    1      -10.918  -3.365   0.093  0.00  0.00    +0.370 C 
BRANCH  25  26
ATOM     26  C   LIG    1      -11.117  -3.826   1.513  0.00  0.00    -0.130 A 
ATOM     27  C   LIG    1      -10.129  -4.553   2.149  0.00  0.00    +0.040 A 
ATOM     28  C   LIG    1      -10.309  -4.972   3.454  0.00  0.00    +0.010 A 
ATOM     29  C   LIG    1      -11.484  -4.673   4.119  0.00  0.00    +0.030 A 
ATOM     30  C   LIG    1      -12.475  -3.951   3.482  0.00  0.00    +0.010 A 
ATOM     31  C   LIG    1      -12.292  -3.527   2.179  0.00  0.00    +0.030 A 
ENDBRANCH  25  26
ENDBRANCH   5  25
TORSDOF 9
