REMARK  Name = ZINCah0000002IEv.0
REMARK                            x       y       z     vdW  Elec       q    Type
REMARK                         _______ _______ _______ _____ _____    ______ ____
ROOT
ATOM      1  C   LIG    1       -0.019   1.528   0.010  0.00  0.00    -0.020 C 
ATOM      2  C   LIG    1        1.422   2.047  -0.001  0.00  0.00    +0.000 C 
ATOM      3  C   LIG    1        2.151   1.482  -1.223  0.00  0.00    +0.200 C 
ATOM      4  O   LIG    1        2.106   0.054  -1.185  0.00  0.00    -0.380 OA
ATOM      5  C   LIG    1        0.785  -0.489  -1.221  0.00  0.00    +0.200 C 
ATOM      6  C   LIG    1        0.002  -0.004   0.002  0.00  0.00    -0.010 C 
ENDROOT
BRANCH   1   7
ATOM      7  C   LIG    1       -0.732   2.023   1.270  0.00  0.00    +0.030 C 
BRANCH   7   8
ATOM      8  C   LIG    1       -0.862   3.546   1.217  0.00  0.00    +0.020 C 
BRANCH   8   9
ATOM      9  C   LIG    1       -1.575   4.042   2.477  0.00  0.00    +0.160 C 
BRANCH   9  10
ATOM     10  O   LIG    1       -1.696   5.465   2.427  0.00  0.00    -0.580 OA
ATOM     11  H   LIG    1       -2.140   5.848   3.196  0.00  0.00    +0.380 HD
ENDBRANCH   9  10
ENDBRANCH   8   9
ENDBRANCH   7   8
ENDBRANCH   1   7
TORSDOF 4
