REMARK  Name = ZINCqH0000002edP.0
REMARK                            x       y       z     vdW  Elec       q    Type
REMARK                         _______ _______ _______ _____ _____    ______ ____
ROOT
ATOM      1  C   LIG    1        1.323  -0.888   0.289  0.00  0.00    -0.180 A 
ATOM      2  C   LIG    1        2.519  -0.176   0.401  0.00  0.00    +0.090 A 
ATOM      3  C   LIG    1        3.719  -0.805   0.150  0.00  0.00    -0.090 A 
ATOM      4  C   LIG    1        3.739  -2.143  -0.225  0.00  0.00    +0.160 A 
ATOM      5  C   LIG    1        2.550  -2.854  -0.342  0.00  0.00    -0.020 A 
ATOM      6  C   LIG    1        1.347  -2.233  -0.088  0.00  0.00    +0.120 A 
ENDROOT
BRANCH   1   9
ATOM      7  N   LIG    1        0.014   1.078   0.926  0.00  0.00    -0.720 N 
ATOM      8  H   LIG    1        0.844   1.573   1.007  0.00  0.00    +0.400 HD
ATOM      9  C   LIG    1        0.035  -0.220   0.562  0.00  0.00    +0.560 C 
ATOM     10  O   LIG    1       -1.006  -0.840   0.460  0.00  0.00    -0.530 OA
BRANCH   7  11
ATOM     11  C   LIG    1       -1.264   1.743   1.191  0.00  0.00    +0.230 C 
BRANCH  11  13
ATOM     12  C   LIG    1       -0.564   2.400   3.498  0.00  0.00    +0.020 C 
ATOM     13  C   LIG    1       -1.038   2.922   2.140  0.00  0.00    +0.020 C 
ENDBRANCH  11  13
BRANCH  11  14
ATOM     14  C   LIG    1       -1.857   2.253  -0.124  0.00  0.00    +0.000 C 
ATOM     15  C   LIG    1       -2.199   1.064  -1.025  0.00  0.00    +0.020 C 
ENDBRANCH  11  14
ENDBRANCH   7  11
ENDBRANCH   1   9
BRANCH   4  16
ATOM     16  O   LIG    1        4.923  -2.757  -0.476  0.00  0.00    -0.290 OA
BRANCH  16  17
ATOM     17  C   LIG    1        6.106  -1.968  -0.337  0.00  0.00    +0.240 C 
BRANCH  17  18
ATOM     18  C   LIG    1        7.313  -2.813  -0.654  0.00  0.00    +0.520 C 
ATOM     19  N   LIG    1        8.550  -2.296  -0.521  0.00  0.00    -0.610 N 
ATOM     20  C   LIG    1        9.726  -3.175  -0.456  0.00  0.00    +0.220 C 
ATOM     21  C   LIG    1       10.734  -2.731  -1.520  0.00  0.00    +0.020 C 
ATOM     22  C   LIG    1       11.049  -1.245  -1.329  0.00  0.00    +0.020 C 
ATOM     23  C   LIG    1        9.769  -0.424  -1.504  0.00  0.00    +0.020 C 
ATOM     24  C   LIG    1        9.300  -4.621  -0.720  0.00  0.00    +0.040 C 
ATOM     25  C   LIG    1        8.751  -0.842  -0.445  0.00  0.00    +0.220 C 
ATOM     26  C   LIG    1        7.423  -0.128  -0.703  0.00  0.00    +0.040 C 
ATOM     27  O   LIG    1        7.171  -3.957  -1.029  0.00  0.00    -0.500 OA
ENDBRANCH  17  18
ENDBRANCH  16  17
ENDBRANCH   4  16
TORSDOF 7
