REMARK  Name = ZINCtV00000L6knr.0
REMARK                            x       y       z     vdW  Elec       q    Type
REMARK                         _______ _______ _______ _____ _____    ______ ____
ROOT
ATOM      1  C   LIG    1       -1.305   3.568   0.482  0.00  0.00    +0.480 A 
ATOM      2  C   LIG    1       -1.325   2.218   0.688  0.00  0.00    -0.140 A 
ATOM      3  C   LIG    1       -0.159   1.574   1.135  0.00  0.00    +0.290 A 
ATOM      4  N   LIG    1        0.948   2.272   1.342  0.00  0.00    -0.490 NA
ATOM      5  C   LIG    1        0.976   3.590   1.136  0.00  0.00    +0.320 A 
ATOM      6  C   LIG    1        1.991   4.547   1.274  0.00  0.00    -0.210 A 
ATOM      7  C   LIG    1        1.444   5.785   0.915  0.00  0.00    +0.320 A 
ATOM      8  N   LIG    1        0.189   5.613   0.581  0.00  0.00    -0.330 NA
ATOM      9  N   LIG    1       -0.140   4.258   0.706  0.00  0.00    -0.340 N 
ENDROOT
BRANCH   6  10
ATOM     10  C   LIG    1        3.382   4.295   1.716  0.00  0.00    +0.010 A 
ATOM     11  C   LIG    1        3.626   3.569   2.882  0.00  0.00    +0.020 A 
ATOM     12  C   LIG    1        4.924   3.332   3.285  0.00  0.00    +0.000 A 
ATOM     13  C   LIG    1        5.982   3.825   2.542  0.00  0.00    -0.010 A 
ATOM     14  C   LIG    1        5.747   4.551   1.389  0.00  0.00    +0.000 A 
ATOM     15  C   LIG    1        4.454   4.789   0.972  0.00  0.00    +0.010 A 
ENDBRANCH   6  10
BRANCH   3  16
ATOM     16  C   LIG    1       -0.166   0.110   1.371  0.00  0.00    -0.060 A 
ATOM     17  C   LIG    1       -1.331  -0.627   1.160  0.00  0.00    +0.040 A 
ATOM     18  C   LIG    1       -1.329  -1.990   1.375  0.00  0.00    +0.000 A 
ATOM     19  C   LIG    1       -0.178  -2.623   1.809  0.00  0.00    +0.030 A 
ATOM     20  C   LIG    1        0.979  -1.896   2.026  0.00  0.00    +0.000 A 
ATOM     21  C   LIG    1        0.991  -0.533   1.809  0.00  0.00    +0.070 A 
ENDBRANCH   3  16
BRANCH   1  22
ATOM     22  N   LIG    1       -2.437   4.227   0.048  0.00  0.00    -0.650 N 
ATOM     23  H   LIG    1       -2.390   5.167  -0.190  0.00  0.00    +0.430 HD
BRANCH  22  29
ATOM     24  C   LIG    1       -5.667   1.053   1.957  0.00  0.00    +0.100 C 
ATOM     25  C   LIG    1       -5.242   1.996   0.862  0.00  0.00    -0.060 A 
ATOM     26  C   LIG    1       -6.054   2.184  -0.241  0.00  0.00    +0.000 A 
ATOM     27  C   LIG    1       -5.668   3.049  -1.249  0.00  0.00    +0.040 A 
ATOM     28  C   LIG    1       -4.471   3.732  -1.154  0.00  0.00    -0.010 A 
ATOM     29  C   LIG    1       -3.651   3.542  -0.049  0.00  0.00    +0.150 A 
ATOM     30  C   LIG    1       -4.042   2.672   0.961  0.00  0.00    -0.020 A 
ENDBRANCH  22  29
ENDBRANCH   1  22
TORSDOF 4
