REMARK  Name = ZINCvU0000000BKl.0
REMARK                            x       y       z     vdW  Elec       q    Type
REMARK                         _______ _______ _______ _____ _____    ______ ____
ROOT
ATOM      1  N   LIG    1        3.010   5.453   1.597  0.00  0.00    -0.720 N 
ATOM      2  H   LIG    1        2.373   5.972   2.112  0.00  0.00    +0.410 HD
ATOM      3  C   LIG    1        3.065   4.114   1.746  0.00  0.00    +0.570 C 
ATOM      4  O   LIG    1        3.864   3.463   1.100  0.00  0.00    -0.520 OA
ENDROOT
BRANCH   3   5
ATOM      5  C   LIG    1        2.158   3.439   2.693  0.00  0.00    -0.170 A 
ATOM      6  C   LIG    1        1.240   4.183   3.438  0.00  0.00    +0.080 A 
ATOM      7  C   LIG    1        0.395   3.546   4.321  0.00  0.00    -0.030 A 
ATOM      8  C   LIG    1        0.448   2.170   4.471  0.00  0.00    +0.080 A 
ATOM      9  C   LIG    1        1.355   1.423   3.745  0.00  0.00    -0.080 A 
ATOM     10  C   LIG    1        2.212   2.047   2.852  0.00  0.00    +0.190 A 
BRANCH  10  11
ATOM     11  O   LIG    1        3.100   1.314   2.134  0.00  0.00    -0.280 OA
BRANCH  11  12
ATOM     12  C   LIG    1        3.098  -0.099   2.348  0.00  0.00    +0.270 C 
BRANCH  12  13
ATOM     13  C   LIG    1        4.141  -0.741   1.471  0.00  0.00    -0.080 A 
ATOM     14  C   LIG    1        4.911   0.038   0.628  0.00  0.00    +0.090 A 
ATOM     15  C   LIG    1        5.872  -0.550  -0.172  0.00  0.00    +0.040 A 
ATOM     16  C   LIG    1        6.056  -1.920  -0.139  0.00  0.00    -0.020 A 
ATOM     17  C   LIG    1        5.282  -2.702   0.701  0.00  0.00    +0.050 A 
ATOM     18 CL   LIG    1        7.259  -2.660  -1.149  0.00  0.00    -0.050 Cl
ATOM     19  C   LIG    1        4.325  -2.112   1.506  0.00  0.00    -0.020 A 
ATOM     20 CL   LIG    1        3.353  -3.092   2.558  0.00  0.00    -0.050 Cl
ENDBRANCH  12  13
ENDBRANCH  11  12
ENDBRANCH  10  11
ENDBRANCH   3   5
BRANCH   1  21
ATOM     21  C   LIG    1        3.911   6.123   0.656  0.00  0.00    +0.300 C 
BRANCH  21  24
ATOM     22  N   LIG    1        4.363   8.430  -0.112  0.00  0.00    -0.670 N 
ATOM     23  H   LIG    1        5.083   8.075  -0.656  0.00  0.00    +0.410 HD
ATOM     24  C   LIG    1        3.647   7.607   0.679  0.00  0.00    +0.510 C 
ATOM     25  O   LIG    1        2.791   8.059   1.409  0.00  0.00    -0.510 OA
BRANCH  22  33
ATOM     26  C   LIG    1        1.674   9.211  -0.619  0.00  0.00    +0.080 C 
ATOM     27  C   LIG    1        2.768  10.223  -0.392  0.00  0.00    -0.070 A 
ATOM     28  C   LIG    1        2.479  11.573  -0.422  0.00  0.00    +0.020 A 
ATOM     29  C   LIG    1        3.483  12.501  -0.220  0.00  0.00    +0.020 A 
ATOM     30  C   LIG    1        4.779  12.081   0.019  0.00  0.00    +0.020 A 
ATOM     31  C   LIG    1        5.074  10.733   0.055  0.00  0.00    -0.090 A 
ATOM     32  C   LIG    1        6.487  10.276   0.314  0.00  0.00    +0.080 C 
ATOM     33  C   LIG    1        4.067   9.798  -0.148  0.00  0.00    +0.130 A 
ENDBRANCH  22  33
ENDBRANCH  21  24
ENDBRANCH   1  21
TORSDOF 7
