REMARK  Name = ZINCqH0000003Sw7.0
REMARK                            x       y       z     vdW  Elec       q    Type
REMARK                         _______ _______ _______ _____ _____    ______ ____
ROOT
ATOM      1  C   LIG    1       -0.660   1.749   3.454  0.00  0.00    +0.070 A 
ATOM      2  C   LIG    1        0.008   1.393   4.615  0.00  0.00    +0.080 A 
ATOM      3  C   LIG    1        1.236   0.762   4.543  0.00  0.00    -0.070 A 
ATOM      4  C   LIG    1        1.802   0.483   3.307  0.00  0.00    +0.240 A 
ATOM      5  C   LIG    1        1.134   0.833   2.141  0.00  0.00    -0.130 A 
ATOM      6  C   LIG    1       -0.093   1.470   2.212  0.00  0.00    +0.160 A 
ENDROOT
BRANCH   1   7
ATOM      7  N   LIG    1       -1.905   2.390   3.529  0.00  0.00    -1.050 N 
ATOM      8  H   LIG    1       -2.589   2.201   2.867  0.00  0.00    +0.430 HD
BRANCH   7   9
ATOM      9  S   LIG    1       -2.208   3.471   4.746  0.00  0.00    +2.610 S 
ATOM     10  O   LIG    1       -1.962   2.735   5.937  0.00  0.00    -0.950 OA
ATOM     11  O   LIG    1       -3.503   3.976   4.452  0.00  0.00    -0.950 OA
BRANCH   9  13
ATOM     12  C   LIG    1       -1.133   5.834   5.605  0.00  0.00    +0.070 C 
ATOM     13  C   LIG    1       -0.955   4.764   4.527  0.00  0.00    -0.370 C 
ENDBRANCH   9  13
ENDBRANCH   7   9
ENDBRANCH   1   7
BRANCH   4  14
ATOM     14  N   LIG    1        3.046  -0.156   3.235  0.00  0.00    -0.740 N 
ATOM     15  H   LIG    1        3.442  -0.351   2.372  0.00  0.00    +0.410 HD
BRANCH  14  16
ATOM     16  C   LIG    1        3.749  -0.531   4.465  0.00  0.00    +0.380 C 
ATOM     17  C   LIG    1        4.556   0.664   4.975  0.00  0.00    +0.060 C 
BRANCH  16  18
ATOM     18  C   LIG    1        4.679  -1.682   4.181  0.00  0.00    +0.240 A 
ATOM     19  N   LIG    1        4.805  -2.736   4.930  0.00  0.00    -0.460 NA
ATOM     20  C   LIG    1        5.729  -3.563   4.370  0.00  0.00    +0.020 A 
ATOM     21  C   LIG    1        6.256  -4.805   4.726  0.00  0.00    +0.080 A 
ATOM     22  C   LIG    1        7.206  -5.399   3.926  0.00  0.00    +0.020 A 
ATOM     23  C   LIG    1        7.643  -4.771   2.769  0.00  0.00    +0.050 A 
ATOM     24  C   LIG    1        7.131  -3.543   2.405  0.00  0.00    +0.050 A 
ATOM     25  C   LIG    1        6.173  -2.930   3.199  0.00  0.00    +0.010 A 
ATOM     26  O   LIG    1        5.491  -1.767   3.116  0.00  0.00    -0.210 OA
ENDBRANCH  16  18
ENDBRANCH  14  16
ENDBRANCH   4  14
BRANCH   6  27
ATOM     27  O   LIG    1       -0.746   1.819   1.071  0.00  0.00    -0.310 OA
ATOM     28  C   LIG    1       -0.105   1.503  -0.166  0.00  0.00    +0.250 C 
ENDBRANCH   6  27
TORSDOF 7
