REMARK  Name = ZINCpe000000Y1tp.0
REMARK                            x       y       z     vdW  Elec       q    Type
REMARK                         _______ _______ _______ _____ _____    ______ ____
ROOT
ATOM      1  N   LIG    1       -1.193  -0.711   0.009  0.00  0.00    -0.590 N 
ATOM      2  C   LIG    1       -1.323  -2.179  -0.004  0.00  0.00    +0.280 C 
ATOM      3  C   LIG    1       -2.724  -2.451  -0.600  0.00  0.00    +0.070 C 
ATOM      4  C   LIG    1       -3.552  -1.283  -0.001  0.00  0.00    +0.040 C 
ATOM      5  C   LIG    1       -2.539  -0.119   0.025  0.00  0.00    +0.350 C 
ENDROOT
BRANCH   1   9
ATOM      6  C   LIG    1        0.995   3.547   0.011  0.00  0.00    +0.200 C 
ATOM      7  C   LIG    1        1.081   2.042   0.003  0.00  0.00    +0.400 A 
ATOM      8  N   LIG    1       -0.016   1.337   0.009  0.00  0.00    -0.510 NA
ATOM      9  C   LIG    1        0.002  -0.004   0.002  0.00  0.00    +0.430 A 
ATOM     10  C   LIG    1        1.193  -0.680  -0.013  0.00  0.00    -0.070 A 
ATOM     11  C   LIG    1        2.384   0.067  -0.020  0.00  0.00    +0.260 A 
ATOM     12  N   LIG    1        3.669  -0.237  -0.034  0.00  0.00    -0.310 NA
ATOM     13  N   LIG    1        4.368   0.845  -0.034  0.00  0.00    -0.240 NA
ATOM     14  C   LIG    1        3.586   1.892  -0.022  0.00  0.00    +0.350 A 
ATOM     15  N   LIG    1        2.299   1.443  -0.012  0.00  0.00    -0.450 N 
ENDBRANCH   1   9
BRANCH   5  16
ATOM     16  C   LIG    1       -2.724   0.699   1.277  0.00  0.00    +0.280 A 
ATOM     17  N   LIG    1       -2.210   0.432   2.434  0.00  0.00    -0.260 NA
ATOM     18  N   LIG    1       -2.614   1.430   3.332  0.00  0.00    -0.550 N 
ATOM     19  H   LIG    1       -2.378   1.488   4.271  0.00  0.00    +0.460 HD
ATOM     20  C   LIG    1       -3.398   2.291   2.649  0.00  0.00    +0.650 A 
ATOM     21  O   LIG    1       -3.938   3.286   3.098  0.00  0.00    -0.550 OA
ATOM     22  N   LIG    1       -3.471   1.847   1.378  0.00  0.00    -0.540 N 
ATOM     23  C   LIG    1       -4.220   2.482   0.290  0.00  0.00    +0.360 C 
ENDBRANCH   5  16
BRANCH   4  24
ATOM     24  C   LIG    1       -4.744  -0.944  -0.897  0.00  0.00    -0.040 C 
ATOM     25  C   LIG    1       -6.098  -0.725  -0.219  0.00  0.00    +0.010 C 
ATOM     26  C   LIG    1       -5.847  -1.995  -1.034  0.00  0.00    +0.030 C 
ENDBRANCH   4  24
TORSDOF 3
