REMARK  Name = ZINCpk00000jTmJq.0
REMARK                            x       y       z     vdW  Elec       q    Type
REMARK                         _______ _______ _______ _____ _____    ______ ____
ROOT
ATOM      1  N   LIG    1       -3.461   5.853   6.081  0.00  0.00    -0.990 NA
ENDROOT
BRANCH   1   2
ATOM      2  S   LIG    1       -3.148   7.120   7.100  0.00  0.00    +2.590 S 
ATOM      3  O   LIG    1       -3.502   6.631   8.387  0.00  0.00    -0.950 OA
ATOM      4  O   LIG    1       -3.838   8.217   6.518  0.00  0.00    -0.920 OA
ATOM      5  C   LIG    1       -1.354   7.362   6.983  0.00  0.00    -0.280 C 
ENDBRANCH   1   2
BRANCH   1   6
ATOM      6  C   LIG    1       -3.772   6.106   4.672  0.00  0.00    +0.440 C 
BRANCH   6  10
ATOM      7  C   LIG    1       -7.639   5.851   4.129  0.00  0.00    -0.010 A 
ATOM      8  N   LIG    1       -7.245   7.056   4.392  0.00  0.00    -0.260 NA
ATOM      9  N   LIG    1       -6.005   7.215   4.579  0.00  0.00    -0.220 NA
ATOM     10  C   LIG    1       -5.267   6.155   4.489  0.00  0.00    -0.050 A 
ATOM     11  S   LIG    1       -6.273   4.820   4.118  0.00  0.00    +0.170 S 
BRANCH   7  13
ATOM     12  C   LIG    1       -9.361   5.534   2.374  0.00  0.00    +0.040 C 
ATOM     13  C   LIG    1       -9.062   5.429   3.871  0.00  0.00    +0.140 C 
ENDBRANCH   7  13
ENDBRANCH   6  10
ENDBRANCH   1   6
BRANCH   1  14
ATOM     14  C   LIG    1       -3.428   4.479   6.589  0.00  0.00    +0.320 C 
BRANCH  14  15
ATOM     15  C   LIG    1       -2.048   3.873   6.327  0.00  0.00    +0.130 C 
ATOM     16  C   LIG    1       -2.004   2.421   6.843  0.00  0.00    +0.030 C 
ATOM     17  C   LIG    1       -1.648   1.584   5.590  0.00  0.00    +0.040 C 
ATOM     18  C   LIG    1       -1.007   2.647   4.661  0.00  0.00    +0.290 C 
ATOM     19  O   LIG    1       -1.792   3.832   4.913  0.00  0.00    -0.350 OA
BRANCH  18  20
ATOM     20  C   LIG    1       -1.124   2.230   3.217  0.00  0.00    +0.180 A 
ATOM     21  N   LIG    1       -0.147   1.838   2.436  0.00  0.00    -0.470 NA
ATOM     22  C   LIG    1       -0.718   1.572   1.248  0.00  0.00    +0.170 A 
ATOM     23  N   LIG    1       -1.989   1.816   1.364  0.00  0.00    -0.380 NA
ATOM     24  C   LIG    1       -0.013   1.086   0.008  0.00  0.00    +0.200 C 
ATOM     25  O   LIG    1       -2.244   2.190   2.489  0.00  0.00    +0.090 OA
ENDBRANCH  18  20
ENDBRANCH  14  15
ENDBRANCH   1  14
TORSDOF 7
