REMARK  Name = ZINCvU0000000BHD.0
REMARK                            x       y       z     vdW  Elec       q    Type
REMARK                         _______ _______ _______ _____ _____    ______ ____
ROOT
ATOM      1  C   LIG    1       -1.589   2.151   6.306  0.00  0.00    +0.070 A 
ATOM      2  C   LIG    1       -1.547   1.854   7.689  0.00  0.00    -0.060 A 
ATOM      3  C   LIG    1       -0.621   0.965   8.243  0.00  0.00    +0.050 A 
ATOM      4  C   LIG    1       -0.641   0.728   9.587  0.00  0.00    +0.050 A 
ATOM      5  C   LIG    1       -1.570   1.357  10.412  0.00  0.00    +0.050 A 
ATOM      6  C   LIG    1       -2.486   2.230   9.902  0.00  0.00    +0.050 A 
ATOM      7  C   LIG    1       -2.492   2.495   8.529  0.00  0.00    -0.050 A 
ATOM      8  C   LIG    1       -3.412   3.388   7.926  0.00  0.00    +0.140 A 
ATOM      9  N   LIG    1       -3.351   3.583   6.619  0.00  0.00    -0.240 NA
ATOM     10  N   LIG    1       -2.493   3.007   5.862  0.00  0.00    -0.270 NA
ENDROOT
BRANCH   8  11
ATOM     11  C   LIG    1       -4.426   4.091   8.744  0.00  0.00    -0.050 A 
ATOM     12  C   LIG    1       -5.745   4.181   8.299  0.00  0.00    +0.090 A 
ATOM     13  C   LIG    1       -6.687   4.832   9.068  0.00  0.00    -0.010 A 
ATOM     14  C   LIG    1       -6.322   5.405  10.276  0.00  0.00    +0.110 A 
ATOM     15  C   LIG    1       -5.012   5.323  10.720  0.00  0.00    -0.010 A 
ATOM     16  F   LIG    1       -7.248   6.046  11.023  0.00  0.00    -0.130 F 
ATOM     17  C   LIG    1       -4.064   4.669   9.961  0.00  0.00    +0.070 A 
ENDBRANCH   8  11
BRANCH   1  18
ATOM     18  S   LIG    1       -0.448   1.397   5.194  0.00  0.00    +0.070 S 
BRANCH  18  19
ATOM     19  C   LIG    1       -0.986   2.146   3.637  0.00  0.00    +0.110 C 
BRANCH  19  21
ATOM     20  O   LIG    1        0.761   0.839   2.737  0.00  0.00    -0.510 OA
ATOM     21  C   LIG    1       -0.127   1.633   2.510  0.00  0.00    +0.550 C 
ATOM     22  N   LIG    1       -0.346   2.056   1.249  0.00  0.00    -0.610 N 
ATOM     23  C   LIG    1       -1.385   3.015   0.833  0.00  0.00    +0.260 C 
ATOM     24  C   LIG    1       -1.637   2.702  -0.663  0.00  0.00    +0.040 C 
ATOM     25  C   LIG    1       -0.203   2.358  -1.157  0.00  0.00    +0.050 C 
ATOM     26  C   LIG    1        0.413   1.639   0.061  0.00  0.00    +0.310 C 
BRANCH  26  27
ATOM     27  C   LIG    1        1.860   2.034   0.212  0.00  0.00    -0.180 A 
ATOM     28  C   LIG    1        2.902   1.303  -0.184  0.00  0.00    +0.010 A 
ATOM     29  C   LIG    1        4.141   1.872   0.059  0.00  0.00    +0.010 A 
ATOM     30  C   LIG    1        4.103   3.066   0.653  0.00  0.00    -0.050 A 
ATOM     31  S   LIG    1        2.431   3.534   0.931  0.00  0.00    +0.100 S 
ENDBRANCH  26  27
ENDBRANCH  19  21
ENDBRANCH  18  19
ENDBRANCH   1  18
TORSDOF 5
