REMARK  Name = ZINC9p0000002CyG.0
REMARK                            x       y       z     vdW  Elec       q    Type
REMARK                         _______ _______ _______ _____ _____    ______ ____
ROOT
ATOM      1  C   LIG    1       -0.753   1.593  -1.232  0.00  0.00    -0.020 C 
ATOM      2  C   LIG    1       -2.180   1.008  -1.235  0.00  0.00    +0.020 C 
ATOM      3  C   LIG    1       -3.046   1.867  -2.116  0.00  0.00    +0.020 C 
ATOM      4  C   LIG    1       -3.132   1.333  -3.559  0.00  0.00    +0.010 C 
ATOM      5  C   LIG    1       -1.776   0.837  -4.094  0.00  0.00    +0.000 C 
ATOM      6  C   LIG    1       -0.639   1.748  -3.716  0.00  0.00    +0.020 C 
ATOM      7  C   LIG    1        0.003   1.218  -2.418  0.00  0.00    +0.020 C 
ENDROOT
BRANCH   1   8
ATOM      8  C   LIG    1       -0.013   1.086   0.008  0.00  0.00    +0.260 C 
BRANCH   8   9
ATOM      9  N   LIG    1       -0.700   1.560   1.217  0.00  0.00    -0.640 N 
ATOM     10  H   LIG    1       -0.212   1.225   2.034  0.00  0.00    +0.440 HD
ATOM     11  H   LIG    1       -1.647   1.210   1.224  0.00  0.00    +0.430 HD
ATOM     12  H   LIG    1       -0.714   2.568   1.222  0.00  0.00    +0.440 HD
ENDBRANCH   8   9
ENDBRANCH   1   8
TORSDOF 2
