REMARK  Name = ZINCvU00000006Gu.0
REMARK                            x       y       z     vdW  Elec       q    Type
REMARK                         _______ _______ _______ _____ _____    ______ ____
ROOT
ATOM      1  C   LIG    1        0.204   3.642  -1.895  0.00  0.00    +0.570 C 
ATOM      2  N   LIG    1       -0.387   4.540  -2.708  0.00  0.00    -0.610 N 
ATOM      3  C   LIG    1        0.041   5.946  -2.707  0.00  0.00    +0.270 C 
ATOM      4  C   LIG    1        0.382   6.354  -4.148  0.00  0.00    +0.020 C 
ATOM      5  C   LIG    1       -0.819   6.063  -5.051  0.00  0.00    +0.000 C 
ATOM      6  C   LIG    1       -1.122   4.563  -5.034  0.00  0.00    +0.020 C 
ATOM      7  C   LIG    1       -1.475   4.134  -3.607  0.00  0.00    +0.280 C 
ATOM      8  O   LIG    1       -0.120   2.471  -1.945  0.00  0.00    -0.530 OA
ENDROOT
BRANCH   1  14
ATOM      9  C   LIG    1        2.405   3.307  -0.759  0.00  0.00    +0.060 A 
ATOM     10  C   LIG    1        3.375   3.729   0.145  0.00  0.00    +0.010 A 
ATOM     11  C   LIG    1        3.200   4.905   0.847  0.00  0.00    +0.040 A 
ATOM     12  C   LIG    1        2.058   5.667   0.665  0.00  0.00    +0.000 A 
ATOM     13  C   LIG    1        1.083   5.263  -0.222  0.00  0.00    +0.040 A 
ATOM     14  C   LIG    1        1.244   4.080  -0.944  0.00  0.00    -0.130 A 
BRANCH   9  18
ATOM     15  C   LIG    1        4.393  -0.283  -3.608  0.00  0.00    +0.350 C 
ATOM     16  N   LIG    1        3.466   0.477  -2.767  0.00  0.00    -0.380 N 
ATOM     17  C   LIG    1        3.700   1.690  -2.230  0.00  0.00    +0.240 A 
ATOM     18  C   LIG    1        2.591   2.047  -1.518  0.00  0.00    -0.230 A 
ATOM     19  C   LIG    1        1.655   1.000  -1.637  0.00  0.00    +0.320 A 
ATOM     20  N   LIG    1        2.183   0.067  -2.383  0.00  0.00    -0.310 NA
ENDBRANCH   9  18
ENDBRANCH   1  14
BRANCH   5  21
ATOM     21  C   LIG    1       -0.499   6.502  -6.482  0.00  0.00    +0.150 C 
BRANCH  21  22
ATOM     22  C   LIG    1       -0.322   7.998  -6.520  0.00  0.00    +0.060 A 
ATOM     23  N   LIG    1        0.797   8.615  -6.339  0.00  0.00    -0.470 NA
ATOM     24  C   LIG    1        0.776   9.930  -6.410  0.00  0.00    +0.080 A 
ATOM     25  C   LIG    1       -0.428  10.454  -6.655  0.00  0.00    -0.080 A 
ATOM     26  S   LIG    1       -1.577   9.125  -6.803  0.00  0.00    +0.110 S 
BRANCH  24  27
ATOM     27  C   LIG    1        2.010  10.776  -6.223  0.00  0.00    +0.070 C 
ATOM     28  C   LIG    1        2.086  11.286  -4.769  0.00  0.00    +0.030 C 
ATOM     29  C   LIG    1        2.656  12.721  -4.901  0.00  0.00    +0.010 C 
ATOM     30  C   LIG    1        1.970  13.246  -6.186  0.00  0.00    +0.010 C 
ATOM     31  C   LIG    1        1.936  12.021  -7.124  0.00  0.00    +0.020 C 
ENDBRANCH  24  27
ENDBRANCH  21  22
ENDBRANCH   5  21
TORSDOF 5
