REMARK  Name = ZINCrD00000F5LBI.0
REMARK                            x       y       z     vdW  Elec       q    Type
REMARK                         _______ _______ _______ _____ _____    ______ ____
ROOT
ATOM      1  N   LIG    1       -2.506   4.756   2.860  0.00  0.00    -0.990 NA
ENDROOT
BRANCH   1   2
ATOM      2  S   LIG    1       -1.827   5.636   4.087  0.00  0.00    +2.660 S 
ATOM      3  O   LIG    1       -1.073   6.670   3.470  0.00  0.00    -0.930 OA
ATOM      4  O   LIG    1       -1.262   4.696   4.990  0.00  0.00    -0.950 OA
BRANCH   2   7
ATOM      5  C   LIG    1       -4.438   6.881   6.970  0.00  0.00    +0.080 C 
ATOM      6  C   LIG    1       -3.313   6.204   6.231  0.00  0.00    +0.140 C 
ATOM      7  C   LIG    1       -3.142   6.428   4.952  0.00  0.00    -0.620 C 
ENDBRANCH   2   7
ENDBRANCH   1   2
BRANCH   1   8
ATOM      8  C   LIG    1       -2.846   3.346   3.071  0.00  0.00    +0.350 C 
BRANCH   8   9
ATOM      9  C   LIG    1       -1.675   2.467   2.629  0.00  0.00    -0.110 C 
ATOM     10  C   LIG    1       -1.623   2.045   1.160  0.00  0.00    +0.050 C 
ATOM     11  C   LIG    1       -1.984   1.021   2.239  0.00  0.00    +0.030 C 
BRANCH   9  12
ATOM     12  C   LIG    1       -0.364   2.735   3.323  0.00  0.00    +0.010 A 
ATOM     13  C   LIG    1        0.190   1.774   4.148  0.00  0.00    -0.030 A 
ATOM     14  C   LIG    1        1.393   2.016   4.785  0.00  0.00    +0.050 A 
ATOM     15  C   LIG    1        2.045   3.220   4.599  0.00  0.00    -0.090 A 
ATOM     16  C   LIG    1        1.490   4.187   3.772  0.00  0.00    +0.140 A 
ATOM     17  C   LIG    1        0.287   3.939   3.129  0.00  0.00    -0.030 A 
BRANCH  16  18
ATOM     18  O   LIG    1        2.129   5.372   3.587  0.00  0.00    -0.310 OA
ATOM     19  C   LIG    1        3.368   5.555   4.276  0.00  0.00    +0.230 C 
ENDBRANCH  16  18
ENDBRANCH   9  12
ENDBRANCH   8   9
ENDBRANCH   1   8
BRANCH   1  20
ATOM     20  C   LIG    1       -2.767   5.386   1.564  0.00  0.00    +0.400 C 
BRANCH  20  21
ATOM     21  C   LIG    1       -1.527   5.311   0.710  0.00  0.00    +0.030 A 
ATOM     22  N   LIG    1       -0.523   6.150   0.740  0.00  0.00    -0.240 NA
ATOM     23  N   LIG    1        0.425   5.732  -0.203  0.00  0.00    -0.370 N 
ATOM     24  C   LIG    1       -0.044   4.614  -0.796  0.00  0.00    +0.210 A 
ATOM     25  C   LIG    1       -1.252   4.336  -0.254  0.00  0.00    -0.110 A 
BRANCH  23  26
ATOM     26  C   LIG    1        1.702   6.390  -0.492  0.00  0.00    +0.310 C 
ATOM     27  C   LIG    1        1.450   7.856  -0.849  0.00  0.00    +0.040 C 
ENDBRANCH  23  26
ENDBRANCH  20  21
ENDBRANCH   1  20
TORSDOF 9
