REMARK  Name = ZINCrD000000Adwp.0
REMARK                            x       y       z     vdW  Elec       q    Type
REMARK                         _______ _______ _______ _____ _____    ______ ____
ROOT
ATOM      1  O   LIG    1       -1.907   3.516   3.317  0.00  0.00    -0.530 OA
ATOM      2  C   LIG    1       -1.465   4.315   2.519  0.00  0.00    +0.520 C 
ATOM      3  N   LIG    1       -1.604   5.637   2.741  0.00  0.00    -0.620 N 
ATOM      4  C   LIG    1       -1.069   6.622   1.789  0.00  0.00    +0.300 C 
ATOM      5  C   LIG    1       -2.191   7.614   1.441  0.00  0.00    +0.210 C 
ATOM      6  N   LIG    1       -2.737   8.182   2.681  0.00  0.00    -0.460 N 
ATOM      7  C   LIG    1       -3.357   7.144   3.515  0.00  0.00    +0.220 C 
ATOM      8  C   LIG    1       -2.289   6.133   3.944  0.00  0.00    +0.290 C 
ENDROOT
BRANCH   6   9
ATOM      9  C   LIG    1       -3.634   9.200   2.407  0.00  0.00    +0.490 A 
ATOM     10  N   LIG    1       -4.865   9.124   2.890  0.00  0.00    -0.550 NA
ATOM     11  C   LIG    1       -5.745  10.082   2.652  0.00  0.00    +0.350 A 
ATOM     12  C   LIG    1       -5.369  11.169   1.878  0.00  0.00    -0.110 A 
ATOM     13  C   LIG    1       -4.075  11.214   1.384  0.00  0.00    +0.350 A 
ATOM     14  N   LIG    1       -3.242  10.225   1.664  0.00  0.00    -0.530 NA
ENDBRANCH   6   9
BRANCH   2  15
ATOM     15  C   LIG    1       -0.759   3.829   1.279  0.00  0.00    +0.070 C 
BRANCH  15  16
ATOM     16  C   LIG    1       -0.739   2.299   1.271  0.00  0.00    +0.070 C 
BRANCH  16  17
ATOM     17  C   LIG    1       -0.022   1.806   0.012  0.00  0.00    +0.090 C 
BRANCH  17  18
ATOM     18  S   LIG    1        0.002  -0.004   0.002  0.00  0.00    +0.010 S 
BRANCH  18  19
ATOM     19  C   LIG    1        0.859  -0.290  -1.510  0.00  0.00    +0.090 A 
ATOM     20  N   LIG    1        1.289   0.635  -2.300  0.00  0.00    -0.470 NA
ATOM     21  C   LIG    1        1.933   0.257  -3.422  0.00  0.00    +0.090 A 
ATOM     22  C   LIG    1        2.495   1.065  -4.432  0.00  0.00    +0.070 A 
ATOM     23  C   LIG    1        3.112   0.494  -5.517  0.00  0.00    +0.040 A 
ATOM     24  C   LIG    1        3.195  -0.885  -5.637  0.00  0.00    +0.040 A 
ATOM     25  C   LIG    1        2.653  -1.694  -4.662  0.00  0.00    +0.060 A 
ATOM     26  C   LIG    1        2.023  -1.132  -3.555  0.00  0.00    -0.180 A 
ATOM     27  S   LIG    1        1.244  -1.877  -2.162  0.00  0.00    +0.110 S 
ENDBRANCH  18  19
ENDBRANCH  17  18
ENDBRANCH  16  17
ENDBRANCH  15  16
ENDBRANCH   2  15
TORSDOF 6
