REMARK  Name = ZINCkj00000xGy5L.1
REMARK                            x       y       z     vdW  Elec       q    Type
REMARK                         _______ _______ _______ _____ _____    ______ ____
ROOT
ATOM      1  N   LIG    1        0.929  -1.935   1.300  0.00  0.00    -0.690 N 
ATOM      2  H   LIG    1        1.125  -2.344   0.443  0.00  0.00    +0.420 HD
ENDROOT
BRANCH   1  11
ATOM      3  C   LIG    1        2.989  -0.273   2.743  0.00  0.00    +0.230 A 
ATOM      4  N   LIG    1        3.998   0.563   2.749  0.00  0.00    -0.290 NA
ATOM      5  N   LIG    1        3.757   1.549   1.780  0.00  0.00    -0.460 N 
ATOM      6  H   LIG    1        4.340   2.295   1.568  0.00  0.00    +0.440 HD
ATOM      7  C   LIG    1        2.577   1.277   1.201  0.00  0.00    +0.120 A 
ATOM      8  C   LIG    1        1.879   2.046   0.107  0.00  0.00    +0.110 C 
ATOM      9  C   LIG    1        0.409   1.610   0.071  0.00  0.00    +0.050 C 
ATOM     10  C   LIG    1        0.331   0.081   0.039  0.00  0.00    +0.030 C 
ATOM     11  C   LIG    1        0.765  -0.482   1.398  0.00  0.00    +0.330 C 
ATOM     12  C   LIG    1        2.080   0.153   1.777  0.00  0.00    -0.280 A 
ENDBRANCH   1  11
BRANCH   1  13
ATOM     13  C   LIG    1        0.804  -2.724   2.432  0.00  0.00    +0.460 A 
ATOM     14  C   LIG    1        0.529  -2.146   3.673  0.00  0.00    -0.160 A 
ATOM     15  C   LIG    1        0.410  -2.975   4.771  0.00  0.00    +0.190 A 
ATOM     16  N   LIG    1        0.569  -4.282   4.614  0.00  0.00    -0.550 NA
ATOM     17  C   LIG    1        0.833  -4.796   3.430  0.00  0.00    +0.570 A 
ATOM     18  N   LIG    1        0.951  -4.043   2.355  0.00  0.00    -0.570 NA
BRANCH  15  19
ATOM     19  C   LIG    1        0.107  -2.401   6.131  0.00  0.00    +0.070 C 
ATOM     20  C   LIG    1       -1.237  -1.654   6.203  0.00  0.00    +0.320 C 
ATOM     21  N   LIG    1       -0.514  -0.639   7.006  0.00  0.00    -0.530 N 
ATOM     22  H   LIG    1       -0.783   0.307   6.781  0.00  0.00    +0.430 HD
ATOM     23  H   LIG    1       -0.549  -0.826   7.997  0.00  0.00    +0.440 HD
ATOM     24  C   LIG    1        0.771  -1.036   6.389  0.00  0.00    +0.310 C 
ENDBRANCH  15  19
ENDBRANCH   1  13
TORSDOF 3
