REMARK  Name = ZINCkj00000xGy5L.0
REMARK                            x       y       z     vdW  Elec       q    Type
REMARK                         _______ _______ _______ _____ _____    ______ ____
ROOT
ATOM      1  C   LIG    1       -0.012   1.079  -0.076  0.00  0.00    +0.570 A 
ATOM      2  N   LIG    1        1.130   1.732  -0.003  0.00  0.00    -0.570 NA
ATOM      3  C   LIG    1        1.149   3.058   0.090  0.00  0.00    +0.450 A 
ATOM      4  C   LIG    1       -0.064   3.751   0.108  0.00  0.00    -0.170 A 
ATOM      5  C   LIG    1       -1.235   3.025   0.029  0.00  0.00    +0.200 A 
ATOM      6  N   LIG    1       -1.172   1.704  -0.066  0.00  0.00    -0.550 NA
ENDROOT
BRANCH   5   7
ATOM      7  C   LIG    1       -2.570   3.725   0.045  0.00  0.00    +0.070 C 
ATOM      8  C   LIG    1       -2.771   4.701  -1.128  0.00  0.00    +0.320 C 
ATOM      9  N   LIG    1       -3.368   5.619  -0.130  0.00  0.00    -0.530 N 
ATOM     10  H   LIG    1       -3.103   6.582  -0.271  0.00  0.00    +0.430 HD
ATOM     11  H   LIG    1       -4.366   5.503  -0.038  0.00  0.00    +0.440 HD
ATOM     12  C   LIG    1       -2.608   4.964   0.958  0.00  0.00    +0.310 C 
ENDBRANCH   5   7
BRANCH   3  13
ATOM     13  N   LIG    1        2.351   3.742   0.167  0.00  0.00    -0.690 N 
ATOM     14  H   LIG    1        3.189   3.253   0.154  0.00  0.00    +0.420 HD
BRANCH  13  15
ATOM     15  C   LIG    1        2.358   5.203   0.268  0.00  0.00    +0.320 C 
ATOM     16  C   LIG    1        3.690   5.753  -0.258  0.00  0.00    +0.030 C 
ATOM     17  C   LIG    1        3.799   7.244   0.068  0.00  0.00    +0.050 C 
ATOM     18  C   LIG    1        4.028   7.429   1.573  0.00  0.00    +0.130 C 
ATOM     19  C   LIG    1        2.982   6.630   2.311  0.00  0.00    +0.100 A 
ATOM     20  N   LIG    1        2.620   6.731   3.557  0.00  0.00    -0.270 NA
ATOM     21  N   LIG    1        1.612   5.786   3.798  0.00  0.00    -0.480 N 
ATOM     22  H   LIG    1        1.157   5.639   4.642  0.00  0.00    +0.440 HD
ATOM     23  C   LIG    1        1.386   5.114   2.646  0.00  0.00    +0.240 A 
ATOM     24  C   LIG    1        2.217   5.614   1.713  0.00  0.00    -0.270 A 
ENDBRANCH  13  15
ENDBRANCH   3  13
TORSDOF 3
