REMARK  Name = ZINCvU0000000D3o.0
REMARK                            x       y       z     vdW  Elec       q    Type
REMARK                         _______ _______ _______ _____ _____    ______ ____
ROOT
ATOM      1  C   LIG    1        1.212   1.781   0.299  0.00  0.00    -0.080 A 
ATOM      2  C   LIG    1        0.023   1.062   0.441  0.00  0.00    +0.090 A 
ATOM      3  C   LIG    1       -1.164   1.728   0.661  0.00  0.00    -0.050 A 
ATOM      4  C   LIG    1       -1.179   3.112   0.753  0.00  0.00    +0.140 A 
ATOM      5  C   LIG    1        0.003   3.837   0.613  0.00  0.00    +0.100 A 
ATOM      6  C   LIG    1        1.195   3.176   0.387  0.00  0.00    +0.010 A 
ENDROOT
BRANCH   1   8
ATOM      7  N   LIG    1        2.495  -0.225  -0.021  0.00  0.00    -0.270 NA
ATOM      8  C   LIG    1        2.481   1.071   0.059  0.00  0.00    +0.350 C 
BRANCH   7  15
ATOM      9  O   LIG    1        4.360  -0.290   1.901  0.00  0.00    -0.440 OA
ATOM     10  C   LIG    1        4.572  -0.881   0.864  0.00  0.00    +0.510 C 
ATOM     11  C   LIG    1        5.843  -1.657   0.600  0.00  0.00    +0.170 C 
ATOM     12  S   LIG    1        5.585  -2.308  -1.085  0.00  0.00    +0.030 S 
ATOM     13  C   LIG    1        3.982  -1.573  -1.266  0.00  0.00    +0.270 C 
ATOM     14  S   LIG    1        2.963  -1.695  -2.636  0.00  0.00    -0.330 S 
ATOM     15  N   LIG    1        3.713  -0.906  -0.141  0.00  0.00    -0.390 N 
ENDBRANCH   7  15
ENDBRANCH   1   8
BRANCH   5  16
ATOM     16  O   LIG    1       -0.017   5.194   0.698  0.00  0.00    -0.290 OA
BRANCH  16  17
ATOM     17  C   LIG    1        1.232   5.872   0.544  0.00  0.00    +0.240 C 
BRANCH  17  18
ATOM     18  C   LIG    1        1.015   7.358   0.668  0.00  0.00    -0.100 A 
ATOM     19  C   LIG    1        0.737   8.112  -0.456  0.00  0.00    +0.030 A 
ATOM     20  C   LIG    1        0.533   9.474  -0.342  0.00  0.00    +0.010 A 
ATOM     21  C   LIG    1        0.618  10.085   0.896  0.00  0.00    +0.010 A 
ATOM     22  C   LIG    1        0.901   9.331   2.020  0.00  0.00    +0.010 A 
ATOM     23  C   LIG    1        1.099   7.968   1.906  0.00  0.00    +0.030 A 
ENDBRANCH  17  18
ENDBRANCH  16  17
ENDBRANCH   5  16
BRANCH   4  24
ATOM     24  O   LIG    1       -2.351   3.764   0.975  0.00  0.00    -0.290 OA
BRANCH  24  25
ATOM     25  C   LIG    1       -3.525   2.960   1.110  0.00  0.00    +0.260 C 
BRANCH  25  26
ATOM     26  C   LIG    1       -4.718   3.850   1.350  0.00  0.00    -0.100 A 
ATOM     27  C   LIG    1       -5.084   4.182   2.641  0.00  0.00    +0.030 A 
ATOM     28  C   LIG    1       -6.176   5.001   2.860  0.00  0.00    +0.010 A 
ATOM     29  C   LIG    1       -6.907   5.481   1.790  0.00  0.00    +0.010 A 
ATOM     30  C   LIG    1       -6.544   5.144   0.499  0.00  0.00    +0.010 A 
ATOM     31  C   LIG    1       -5.449   4.329   0.279  0.00  0.00    +0.030 A 
ENDBRANCH  25  26
ENDBRANCH  24  25
ENDBRANCH   4  24
TORSDOF 8
