REMARK  Name = ZINCrD00000l98GM.0
REMARK                            x       y       z     vdW  Elec       q    Type
REMARK                         _______ _______ _______ _____ _____    ______ ____
ROOT
ATOM      1  C   LIG    1        0.386  -1.384   1.993  0.00  0.00    +0.540 C 
ATOM      2  N   LIG    1        0.842  -0.466   1.117  0.00  0.00    -0.600 N 
ATOM      3  C   LIG    1        0.002  -0.004   0.002  0.00  0.00    +0.300 C 
ATOM      4  C   LIG    1       -0.019   1.528   0.010  0.00  0.00    +0.170 C 
ATOM      5  N   LIG    1        1.361   2.034   0.000  0.00  0.00    -0.530 NA
ATOM      6  C   LIG    1        2.086   1.629   1.212  0.00  0.00    +0.180 C 
ATOM      7  C   LIG    1        2.193   0.101   1.253  0.00  0.00    +0.280 C 
ATOM      8  O   LIG    1       -0.730  -1.841   1.866  0.00  0.00    -0.520 OA
ENDROOT
BRANCH   1  10
ATOM      9  C   LIG    1        1.129  -0.872   4.302  0.00  0.00    +0.090 C 
ATOM     10  C   LIG    1        1.264  -1.843   3.128  0.00  0.00    +0.030 C 
BRANCH  10  11
ATOM     11  S   LIG    1        0.754  -3.499   3.654  0.00  0.00    +0.060 S 
BRANCH  11  12
ATOM     12  C   LIG    1        2.004  -3.840   4.848  0.00  0.00    +0.250 A 
ATOM     13  N   LIG    1        2.983  -3.028   5.166  0.00  0.00    -0.490 NA
ATOM     14  C   LIG    1        3.761  -3.603   6.120  0.00  0.00    +0.060 A 
ATOM     15  C   LIG    1        4.907  -3.188   6.802  0.00  0.00    +0.060 A 
ATOM     16  C   LIG    1        5.486  -4.020   7.735  0.00  0.00    +0.010 A 
ATOM     17  C   LIG    1        4.941  -5.266   8.002  0.00  0.00    +0.030 A 
ATOM     18  C   LIG    1        3.809  -5.691   7.336  0.00  0.00    +0.010 A 
ATOM     19  C   LIG    1        3.212  -4.867   6.394  0.00  0.00    +0.060 A 
ATOM     20  N   LIG    1        2.102  -4.992   5.575  0.00  0.00    -0.580 N 
ATOM     21  H   LIG    1        1.504  -5.755   5.528  0.00  0.00    +0.430 HD
ENDBRANCH  11  12
ENDBRANCH  10  11
ENDBRANCH   1  10
BRANCH   5  22
ATOM     22  C   LIG    1        1.385   3.493  -0.166  0.00  0.00    +0.230 C 
BRANCH  22  23
ATOM     23  C   LIG    1        2.784   4.002   0.073  0.00  0.00    -0.090 A 
ATOM     24  C   LIG    1        3.175   4.377   1.344  0.00  0.00    +0.000 A 
ATOM     25  C   LIG    1        4.460   4.840   1.563  0.00  0.00    +0.000 A 
ATOM     26  C   LIG    1        5.349   4.936   0.510  0.00  0.00    +0.000 A 
ATOM     27  C   LIG    1        4.955   4.566  -0.763  0.00  0.00    +0.000 A 
ATOM     28  C   LIG    1        3.673   4.099  -0.981  0.00  0.00    +0.020 A 
ENDBRANCH  22  23
ENDBRANCH   5  22
TORSDOF 5
