REMARK  Name = ZINCrH000004rkzw.0
REMARK                            x       y       z     vdW  Elec       q    Type
REMARK                         _______ _______ _______ _____ _____    ______ ____
ROOT
ATOM      1  N   LIG    1        6.622   1.803  -1.716  0.00  0.00    -0.560 N 
ATOM      2  C   LIG    1        5.383   2.273  -1.468  0.00  0.00    +0.500 C 
ATOM      3  O   LIG    1        4.675   2.627  -2.387  0.00  0.00    -0.500 OA
ENDROOT
BRANCH   1   8
ATOM      4  C   LIG    1        8.368   1.082  -7.065  0.00  0.00    +0.090 C 
ATOM      5  C   LIG    1        7.904   1.274  -5.644  0.00  0.00    -0.080 A 
ATOM      6  C   LIG    1        8.489   2.245  -4.853  0.00  0.00    +0.020 A 
ATOM      7  C   LIG    1        8.067   2.423  -3.550  0.00  0.00    +0.020 A 
ATOM      8  C   LIG    1        7.053   1.625  -3.035  0.00  0.00    +0.130 A 
ATOM      9  C   LIG    1        6.471   0.648  -3.831  0.00  0.00    +0.020 A 
ATOM     10  C   LIG    1        6.894   0.478  -5.135  0.00  0.00    +0.020 A 
ENDBRANCH   1   8
BRANCH   2  11
ATOM     11  C   LIG    1        4.879   2.358  -0.051  0.00  0.00    +0.380 C 
BRANCH  11  12
ATOM     12  N   LIG    1        3.517   2.897  -0.049  0.00  0.00    -0.530 N 
ATOM     13  C   LIG    1        3.173   4.197   0.033  0.00  0.00    +0.640 A 
ATOM     14  O   LIG    1        1.836   4.309   0.006  0.00  0.00    -0.230 OA
ATOM     15  C   LIG    1        1.287   3.074  -0.094  0.00  0.00    +0.040 A 
ATOM     16  C   LIG    1       -0.021   2.624  -0.160  0.00  0.00    +0.060 A 
ATOM     17  C   LIG    1       -0.280   1.270  -0.261  0.00  0.00    +0.030 A 
ATOM     18  C   LIG    1        0.762   0.361  -0.298  0.00  0.00    +0.040 A 
ATOM     19  C   LIG    1        2.070   0.800  -0.234  0.00  0.00    +0.030 A 
ATOM     20  O   LIG    1        3.954   5.125   0.118  0.00  0.00    -0.480 OA
ATOM     21  C   LIG    1        2.337   2.156  -0.132  0.00  0.00    +0.080 A 
ENDBRANCH  11  12
ENDBRANCH   2  11
BRANCH   1  22
ATOM     22  C   LIG    1        7.519   1.479  -0.603  0.00  0.00    +0.410 C 
BRANCH  22  23
ATOM     23  C   LIG    1        7.325   0.038  -0.205  0.00  0.00    -0.050 A 
ATOM     24  C   LIG    1        7.997  -1.013  -0.708  0.00  0.00    -0.020 A 
ATOM     25  C   LIG    1        7.500  -2.166  -0.057  0.00  0.00    -0.060 A 
ATOM     26  C   LIG    1        6.554  -1.749   0.805  0.00  0.00    +0.180 A 
ATOM     27  O   LIG    1        6.457  -0.413   0.714  0.00  0.00    -0.180 OA
ENDBRANCH  22  23
ENDBRANCH   1  22
TORSDOF 5
