REMARK  Name = ZINCpk00000l5He5.0
REMARK                            x       y       z     vdW  Elec       q    Type
REMARK                         _______ _______ _______ _____ _____    ______ ____
ROOT
ATOM      1  O   LIG    1       -1.710   0.887   0.756  0.00  0.00    -0.510 OA
ATOM      2  C   LIG    1       -1.839   1.713   1.635  0.00  0.00    +0.560 C 
ATOM      3  N   LIG    1       -1.448   2.986   1.427  0.00  0.00    -0.720 N 
ATOM      4  H   LIG    1       -1.619   3.662   2.101  0.00  0.00    +0.400 HD
ENDROOT
BRANCH   3   5
ATOM      5  C   LIG    1       -0.766   3.348   0.182  0.00  0.00    +0.260 C 
ATOM      6  C   LIG    1        0.094   4.611   0.399  0.00  0.00    +0.050 C 
ATOM      7  C   LIG    1       -0.811   5.774  -0.077  0.00  0.00    -0.020 C 
ATOM      8  C   LIG    1       -1.530   5.166  -1.307  0.00  0.00    +0.000 C 
ATOM      9  C   LIG    1       -1.799   3.701  -0.903  0.00  0.00    +0.150 C 
BRANCH   9  10
ATOM     10  O   LIG    1       -1.634   2.843  -2.033  0.00  0.00    -0.550 OA
ATOM     11  H   LIG    1       -2.256   3.016  -2.753  0.00  0.00    +0.380 HD
ENDBRANCH   9  10
BRANCH   7  12
ATOM     12  C   LIG    1        0.030   6.984  -0.485  0.00  0.00    +0.310 C 
BRANCH  12  13
ATOM     13  N   LIG    1       -0.854   8.105  -0.816  0.00  0.00    -0.460 N 
ATOM     14  C   LIG    1       -1.369   8.396  -2.050  0.00  0.00    +0.120 A 
ATOM     15  C   LIG    1       -2.127   9.499  -1.905  0.00  0.00    +0.140 A 
ATOM     16  N   LIG    1       -2.068   9.877  -0.620  0.00  0.00    -0.490 NA
ATOM     17  C   LIG    1       -1.308   9.046   0.039  0.00  0.00    +0.380 A 
ENDBRANCH  12  13
ENDBRANCH   7  12
ENDBRANCH   3   5
BRANCH   2  18
ATOM     18  C   LIG    1       -2.437   1.315   2.960  0.00  0.00    -0.130 C 
ATOM     19  C   LIG    1       -3.439   0.159   2.965  0.00  0.00    +0.090 C 
ATOM     20  C   LIG    1       -3.925   1.595   3.177  0.00  0.00    +0.090 C 
BRANCH  18  21
ATOM     21  C   LIG    1       -1.523   1.448   4.151  0.00  0.00    +0.130 A 
ATOM     22  N   LIG    1       -1.807   2.322   5.096  0.00  0.00    -0.450 NA
ATOM     23  C   LIG    1       -1.037   2.473   6.156  0.00  0.00    +0.260 A 
ATOM     24  C   LIG    1        0.106   1.714   6.315  0.00  0.00    +0.010 A 
ATOM     25  C   LIG    1        0.440   0.783   5.343  0.00  0.00    +0.040 A 
ATOM     26  C   LIG    1       -0.397   0.648   4.243  0.00  0.00    +0.070 A 
ATOM     27  F   LIG    1       -0.114  -0.250   3.274  0.00  0.00    -0.120 F 
ENDBRANCH  18  21
ENDBRANCH   2  18
TORSDOF 6
