REMARK  Name = ZINCkj000005jmmo.0
REMARK                            x       y       z     vdW  Elec       q    Type
REMARK                         _______ _______ _______ _____ _____    ______ ____
ROOT
ATOM      1  C   LIG    1       -1.860   3.342   2.518  0.00  0.00    +0.080 C 
ATOM      2  C   LIG    1       -1.438   2.957   1.098  0.00  0.00    +0.230 C 
ATOM      3  C   LIG    1       -2.462   3.495   0.093  0.00  0.00    +0.270 C 
ATOM      4  N   LIG    1       -2.126   3.013  -1.252  0.00  0.00    -0.510 N 
ATOM      5  C   LIG    1       -2.251   1.551  -1.305  0.00  0.00    +0.270 C 
ATOM      6  C   LIG    1       -1.217   0.917  -0.369  0.00  0.00    +0.310 C 
ATOM      7  H   LIG    1       -2.755   3.428  -1.924  0.00  0.00    +0.440 HD
ATOM      8  H   LIG    1       -1.178   3.277  -1.475  0.00  0.00    +0.430 HD
ATOM      9  N   LIG    1       -1.383   1.492   0.974  0.00  0.00    -0.630 N 
ATOM     10  C   LIG    1       -1.486   0.699   2.059  0.00  0.00    +0.580 C 
ATOM     11  O   LIG    1       -1.733   1.185   3.146  0.00  0.00    -0.490 OA
ENDROOT
BRANCH  10  12
ATOM     12  C   LIG    1       -1.299  -0.760   1.928  0.00  0.00    -0.160 A 
ATOM     13  C   LIG    1       -0.496  -1.274   0.908  0.00  0.00    +0.070 A 
ATOM     14  C   LIG    1       -0.320  -2.635   0.792  0.00  0.00    +0.000 A 
ATOM     15  C   LIG    1       -0.949  -3.498   1.683  0.00  0.00    +0.180 A 
ATOM     16  C   LIG    1       -1.754  -2.990   2.696  0.00  0.00    +0.010 A 
ATOM     17  C   LIG    1       -1.930  -1.630   2.821  0.00  0.00    +0.130 A 
BRANCH  15  18
ATOM     18  N   LIG    1       -0.771  -4.879   1.559  0.00  0.00    -0.420 N 
ATOM     19  C   LIG    1       -0.016  -5.523   0.612  0.00  0.00    +0.120 A 
ATOM     20  C   LIG    1       -0.121  -6.842   0.861  0.00  0.00    +0.170 A 
ATOM     21  N   LIG    1       -0.923  -7.006   1.923  0.00  0.00    -0.470 NA
ATOM     22  C   LIG    1       -1.320  -5.839   2.350  0.00  0.00    +0.410 A 
ENDBRANCH  15  18
ENDBRANCH  10  12
TORSDOF 2
