REMARK  Name = ZINCrD00000F5Ljl.0
REMARK                            x       y       z     vdW  Elec       q    Type
REMARK                         _______ _______ _______ _____ _____    ______ ____
ROOT
ATOM      1  N   LIG    1        2.721   4.039  -1.423  0.00  0.00    -0.520 NA
ENDROOT
BRANCH   1   2
ATOM      2  C   LIG    1        4.188   4.011  -1.359  0.00  0.00    +0.200 C 
BRANCH   2   5
ATOM      3  C   LIG    1        6.280   4.273  -2.908  0.00  0.00    -0.050 C 
ATOM      4  C   LIG    1        5.595   2.962  -3.300  0.00  0.00    +0.010 C 
ATOM      5  C   LIG    1        4.763   4.133  -2.772  0.00  0.00    -0.040 C 
BRANCH   3   7
ATOM      6  C   LIG    1        8.574   4.553  -1.959  0.00  0.00    +0.020 C 
ATOM      7  C   LIG    1        7.107   4.281  -1.621  0.00  0.00    +0.030 C 
ENDBRANCH   3   7
ENDBRANCH   2   5
ENDBRANCH   1   2
BRANCH   1   8
ATOM      8  C   LIG    1        2.223   5.419  -1.500  0.00  0.00    +0.300 C 
BRANCH   8   9
ATOM      9  C   LIG    1        2.654   6.036  -2.806  0.00  0.00    +0.190 A 
ATOM     10  N   LIG    1        2.072   5.881  -3.964  0.00  0.00    -0.270 NA
ATOM     11  N   LIG    1        2.705   6.551  -4.860  0.00  0.00    -0.300 NA
ATOM     12  C   LIG    1        3.720   7.165  -4.314  0.00  0.00    +0.370 A 
ATOM     13  N   LIG    1        3.713   6.859  -2.994  0.00  0.00    -0.470 N 
ATOM     14  C   LIG    1        4.661   7.322  -1.977  0.00  0.00    +0.340 C 
ENDBRANCH   8   9
ENDBRANCH   1   8
BRANCH   1  15
ATOM     15  C   LIG    1        2.131   3.330  -0.280  0.00  0.00    +0.240 C 
BRANCH  15  16
ATOM     16  C   LIG    1        0.649   3.164  -0.501  0.00  0.00    -0.070 A 
ATOM     17  C   LIG    1        0.170   2.042  -1.150  0.00  0.00    +0.050 A 
ATOM     18  C   LIG    1       -1.188   1.887  -1.354  0.00  0.00    +0.020 A 
ATOM     19  C   LIG    1       -2.070   2.863  -0.912  0.00  0.00    +0.120 A 
ATOM     20  C   LIG    1       -1.586   3.987  -0.257  0.00  0.00    -0.070 A 
ATOM     21  C   LIG    1       -2.541   5.047   0.229  0.00  0.00    +0.100 C 
ATOM     22  C   LIG    1       -0.228   4.136  -0.055  0.00  0.00    +0.030 A 
BRANCH  19  23
ATOM     23  N   LIG    1       -3.448   2.712  -1.123  0.00  0.00    -0.410 N 
ATOM     24  C   LIG    1       -4.062   2.403  -2.310  0.00  0.00    +0.140 A 
ATOM     25  C   LIG    1       -5.385   2.357  -2.064  0.00  0.00    +0.140 A 
ATOM     26  N   LIG    1       -5.579   2.629  -0.765  0.00  0.00    -0.490 NA
ATOM     27  C   LIG    1       -4.427   2.838  -0.190  0.00  0.00    +0.400 A 
ENDBRANCH  19  23
ENDBRANCH  15  16
ENDBRANCH   1  15
TORSDOF 8
