REMARK  Name = ZINCpe000000UjJI.0
REMARK                            x       y       z     vdW  Elec       q    Type
REMARK                         _______ _______ _______ _____ _____    ______ ____
ROOT
ATOM      1  N   LIG    1       -2.787  -2.098  -1.427  0.00  0.00    -0.720 N 
ATOM      2  H   LIG    1       -3.166  -2.395  -0.585  0.00  0.00    +0.410 HD
ATOM      3  C   LIG    1       -3.335  -2.498  -2.591  0.00  0.00    +0.510 C 
ATOM      4  O   LIG    1       -2.861  -2.127  -3.644  0.00  0.00    -0.500 OA
ENDROOT
BRANCH   3   5
ATOM      5  C   LIG    1       -4.536  -3.408  -2.586  0.00  0.00    +0.290 C 
ATOM      6  C   LIG    1       -5.690  -2.724  -1.850  0.00  0.00    +0.120 C 
BRANCH   5   7
ATOM      7  N   LIG    1       -4.938  -3.695  -3.965  0.00  0.00    -0.130 N 
ATOM      8  N   LIG    1       -5.297  -2.817  -4.834  0.00  0.00    -0.030 NA
ATOM      9  N   LIG    1       -5.582  -3.414  -5.941  0.00  0.00    -0.270 NA
ATOM     10  C   LIG    1       -5.389  -4.726  -5.746  0.00  0.00    +0.220 A 
ATOM     11  N   LIG    1       -4.981  -4.867  -4.500  0.00  0.00    -0.300 NA
BRANCH  10  12
ATOM     12  C   LIG    1       -5.590  -5.810  -6.740  0.00  0.00    -0.020 A 
ATOM     13  C   LIG    1       -5.342  -7.135  -6.390  0.00  0.00    +0.050 A 
ATOM     14  C   LIG    1       -5.537  -8.140  -7.316  0.00  0.00    +0.010 A 
ATOM     15  C   LIG    1       -5.966  -7.831  -8.595  0.00  0.00    +0.030 A 
ATOM     16  C   LIG    1       -6.208  -6.516  -8.950  0.00  0.00    +0.010 A 
ATOM     17  C   LIG    1       -6.022  -5.505  -8.029  0.00  0.00    +0.060 A 
ENDBRANCH  10  12
ENDBRANCH   5   7
ENDBRANCH   3   5
BRANCH   1  18
ATOM     18  C   LIG    1       -1.619  -1.214  -1.433  0.00  0.00    +0.280 C 
BRANCH  18  19
ATOM     19  C   LIG    1       -1.200  -0.914   0.008  0.00  0.00    +0.160 C 
BRANCH  19  24
ATOM     20  N   LIG    1       -0.016   1.351   0.009  0.00  0.00    -0.470 N 
ATOM     21  C   LIG    1        1.281   1.743  -0.001  0.00  0.00    +0.380 A 
ATOM     22  N   LIG    1        2.013   0.662  -0.014  0.00  0.00    -0.290 NA
ATOM     23  N   LIG    1        1.253  -0.375  -0.012  0.00  0.00    -0.280 NA
ATOM     24  C   LIG    1        0.002  -0.004   0.002  0.00  0.00    +0.170 A 
BRANCH  20  26
ATOM     25  C   LIG    1       -1.677   2.408   1.460  0.00  0.00    +0.040 C 
ATOM     26  C   LIG    1       -1.198   2.216   0.020  0.00  0.00    +0.300 C 
ENDBRANCH  20  26
ENDBRANCH  19  24
ENDBRANCH  18  19
ENDBRANCH   1  18
TORSDOF 7
