REMARK  Name = ZINCrH000004tmyZ.0
REMARK                            x       y       z     vdW  Elec       q    Type
REMARK                         _______ _______ _______ _____ _____    ______ ____
ROOT
ATOM      1  N   LIG    1       -2.649   8.226  -0.243  0.00  0.00    -0.720 N 
ATOM      2  H   LIG    1       -3.379   7.588  -0.224  0.00  0.00    +0.420 HD
ENDROOT
BRANCH   1   3
ATOM      3  C   LIG    1       -2.918   9.596  -0.348  0.00  0.00    +0.260 A 
ATOM      4  C   LIG    1       -1.876  10.509  -0.369  0.00  0.00    -0.050 A 
ATOM      5  C   LIG    1       -2.145  11.863  -0.478  0.00  0.00    +0.020 A 
ATOM      6  C   LIG    1       -3.452  12.308  -0.554  0.00  0.00    -0.030 A 
ATOM      7  C   LIG    1       -4.498  11.402  -0.529  0.00  0.00    +0.050 A 
ATOM      8 CL   LIG    1       -0.838  13.005  -0.510  0.00  0.00    -0.070 Cl
ATOM      9  C   LIG    1       -4.237  10.045  -0.426  0.00  0.00    +0.020 A 
BRANCH   9  10
ATOM     10  N   LIG    1       -5.294   9.127  -0.401  0.00  0.00    -0.490 N 
ATOM     11  C   LIG    1       -6.047   9.155  -1.663  0.00  0.00    +0.160 C 
ATOM     12  C   LIG    1       -7.154   8.098  -1.615  0.00  0.00    +0.220 C 
ATOM     13  O   LIG    1       -7.989   8.341  -0.480  0.00  0.00    -0.380 OA
ATOM     14  C   LIG    1       -7.288   8.319   0.766  0.00  0.00    +0.220 C 
ATOM     15  C   LIG    1       -6.184   9.379   0.743  0.00  0.00    +0.160 C 
ENDBRANCH   9  10
ENDBRANCH   1   3
BRANCH   1  16
ATOM     16  C   LIG    1       -1.264   7.756  -0.161  0.00  0.00    +0.300 C 
BRANCH  16  19
ATOM     17  N   LIG    1       -0.075   5.595   0.032  0.00  0.00    -0.670 N 
ATOM     18  H   LIG    1        0.755   6.092   0.104  0.00  0.00    +0.420 HD
ATOM     19  C   LIG    1       -1.248   6.253  -0.056  0.00  0.00    +0.510 C 
ATOM     20  O   LIG    1       -2.292   5.635  -0.050  0.00  0.00    -0.500 OA
BRANCH  17  24
ATOM     21  C   LIG    1       -0.012   1.428  -0.008  0.00  0.00    -0.030 A 
ATOM     22  C   LIG    1        0.925   2.136   0.750  0.00  0.00    +0.120 A 
ATOM     23  C   LIG    1        0.904   3.513   0.756  0.00  0.00    +0.010 A 
ATOM     24  C   LIG    1       -0.055   4.200   0.018  0.00  0.00    +0.190 A 
ATOM     25  C   LIG    1       -0.992   3.500  -0.733  0.00  0.00    +0.040 A 
ATOM     26  C   LIG    1       -0.975   2.122  -0.749  0.00  0.00    +0.030 A 
ATOM     27 CL   LIG    1       -2.146   1.248  -1.687  0.00  0.00    -0.040 Cl
BRANCH  21  29
ATOM     28  N   LIG    1        0.028  -1.140  -0.032  0.00  0.00    -0.390 NA
ATOM     29  C   LIG    1        0.010  -0.004  -0.021  0.00  0.00    +0.250 C 
ENDBRANCH  21  29
ENDBRANCH  17  24
ENDBRANCH  16  19
ENDBRANCH   1  16
TORSDOF 6
