REMARK  Name = ZINCrD00000l3YjV.0
REMARK                            x       y       z     vdW  Elec       q    Type
REMARK                         _______ _______ _______ _____ _____    ______ ____
ROOT
ATOM      1  C   LIG    1       -3.723   1.494   6.570  0.00  0.00    +0.450 C 
ENDROOT
BRANCH   1   2
ATOM      2  N   LIG    1       -5.163   1.417   6.312  0.00  0.00    -0.580 N 
ATOM      3  C   LIG    1       -5.822   0.280   6.058  0.00  0.00    +0.700 C 
ATOM      4  N   LIG    1       -7.139   0.483   5.857  0.00  0.00    -0.710 N 
ATOM      5  H   LIG    1       -7.807  -0.192   5.659  0.00  0.00    +0.440 HD
ATOM      6  C   LIG    1       -7.362   1.927   5.997  0.00  0.00    +0.130 C 
ATOM      7  C   LIG    1       -7.897   2.514   4.695  0.00  0.00    +0.050 C 
ATOM      8  C   LIG    1       -9.270   1.911   4.389  0.00  0.00    +0.030 C 
ATOM      9  C   LIG    1      -10.230   2.220   5.540  0.00  0.00    +0.010 C 
ATOM     10  C   LIG    1       -9.691   1.608   6.835  0.00  0.00    +0.040 C 
ATOM     11  C   LIG    1       -8.319   2.210   7.150  0.00  0.00    +0.020 C 
ATOM     12  C   LIG    1       -7.770   1.584   8.433  0.00  0.00    +0.020 C 
ATOM     13  O   LIG    1       -5.293  -0.813   6.014  0.00  0.00    -0.530 OA
ATOM     14  C   LIG    1       -5.991   2.482   6.307  0.00  0.00    +0.540 C 
ATOM     15  O   LIG    1       -5.696   3.641   6.506  0.00  0.00    -0.460 OA
ENDBRANCH   1   2
BRANCH   1  19
ATOM     16  C   LIG    1       -1.997   2.502   3.497  0.00  0.00    +0.060 A 
ATOM     17  N   LIG    1       -1.980   1.192   3.481  0.00  0.00    -0.320 NA
ATOM     18  O   LIG    1       -2.522   0.732   4.458  0.00  0.00    +0.120 OA
ATOM     19  C   LIG    1       -2.990   1.692   5.269  0.00  0.00    -0.070 A 
ATOM     20  C   LIG    1       -2.676   2.874   4.691  0.00  0.00    -0.010 A 
BRANCH  16  26
ATOM     21  C   LIG    1       -0.787   2.891   1.346  0.00  0.00    +0.150 A 
ATOM     22  C   LIG    1       -0.254   3.750   0.398  0.00  0.00    -0.080 A 
ATOM     23  C   LIG    1       -0.368   5.117   0.562  0.00  0.00    +0.060 A 
ATOM     24  C   LIG    1       -1.002   5.637   1.676  0.00  0.00    -0.030 A 
ATOM     25  C   LIG    1       -1.533   4.793   2.631  0.00  0.00    +0.070 A 
ATOM     26  C   LIG    1       -1.429   3.413   2.473  0.00  0.00    -0.060 A 
BRANCH  21  28
ATOM     27  C   LIG    1       -0.013   1.086   0.008  0.00  0.00    +0.240 C 
ATOM     28  O   LIG    1       -0.682   1.547   1.184  0.00  0.00    -0.290 OA
ENDBRANCH  21  28
ENDBRANCH  16  26
ENDBRANCH   1  19
TORSDOF 4
