REMARK  Name = ZINCbw0000000HcE.0
REMARK                            x       y       z     vdW  Elec       q    Type
REMARK                         _______ _______ _______ _____ _____    ______ ____
ROOT
ATOM      1  C   LIG    1       -0.729   1.579   1.267  0.00  0.00    -0.030 C 
ATOM      2  C   LIG    1        0.009   1.073   2.511  0.00  0.00    +0.040 C 
ATOM      3  C   LIG    1       -0.786   1.449   3.762  0.00  0.00    +0.020 C 
ATOM      4  C   LIG    1       -2.142   0.740   3.747  0.00  0.00    -0.020 C 
ATOM      5  C   LIG    1       -2.961   1.233   2.549  0.00  0.00    +0.020 C 
ATOM      6  C   LIG    1       -2.894   1.050   5.042  0.00  0.00    +0.030 C 
ATOM      7  C   LIG    1       -2.141   1.038   1.293  0.00  0.00    +0.360 C 
ATOM      8  O   LIG    1       -2.603   0.466   0.335  0.00  0.00    -0.450 OA
ENDROOT
BRANCH   1  10
ATOM      9  C   LIG    1        1.423   1.615  -0.003  0.00  0.00    +0.030 C 
ATOM     10  C   LIG    1       -0.013   1.086   0.008  0.00  0.00    -0.010 C 
ATOM     11  C   LIG    1       -0.753   1.593  -1.232  0.00  0.00    +0.020 C 
ENDBRANCH   1  10
TORSDOF 1
