REMARK  Name = ZINCkj000005hpBZ.0
REMARK                            x       y       z     vdW  Elec       q    Type
REMARK                         _______ _______ _______ _____ _____    ______ ____
ROOT
ATOM      1  C   LIG    1       -2.838   5.633   3.670  0.00  0.00    +0.320 C 
ATOM      2  N   LIG    1       -3.080   4.439   2.850  0.00  0.00    -0.390 N 
ATOM      3  C   LIG    1       -2.352   3.299   3.420  0.00  0.00    +0.270 C 
ATOM      4  C   LIG    1       -2.678   2.035   2.620  0.00  0.00    +0.080 C 
ATOM      5  C   LIG    1       -2.270   2.226   1.158  0.00  0.00    +0.250 C 
ATOM      6  C   LIG    1       -2.945   3.480   0.596  0.00  0.00    -0.010 C 
ATOM      7  C   LIG    1       -2.424   3.739  -0.821  0.00  0.00    +0.050 C 
ATOM      8  C   LIG    1       -0.914   3.984  -0.771  0.00  0.00    +0.000 C 
ATOM      9  C   LIG    1       -0.214   2.738  -0.219  0.00  0.00    +0.300 C 
ATOM     10  N   LIG    1       -0.811   2.392   1.079  0.00  0.00    -0.590 N 
ATOM     11  C   LIG    1       -0.037   2.234   2.171  0.00  0.00    +0.580 C 
ATOM     12  O   LIG    1       -0.544   1.953   3.239  0.00  0.00    -0.520 OA
ATOM     13  C   LIG    1       -2.617   4.686   1.479  0.00  0.00    +0.250 C 
ATOM     14  H   LIG    1       -4.068   4.234   2.839  0.00  0.00    +0.420 HD
ENDROOT
BRANCH  11  15
ATOM     15  C   LIG    1        1.429   2.402   2.069  0.00  0.00    +0.030 A 
ATOM     16  N   LIG    1        2.068   1.972   0.988  0.00  0.00    -0.440 NA
ATOM     17  C   LIG    1        3.369   2.107   0.856  0.00  0.00    +0.260 A 
ATOM     18  C   LIG    1        4.132   2.697   1.852  0.00  0.00    +0.030 A 
ATOM     19  C   LIG    1        3.513   3.157   3.001  0.00  0.00    +0.050 A 
ATOM     20  C   LIG    1        2.133   3.008   3.116  0.00  0.00    +0.120 A 
BRANCH  20  21
ATOM     21  O   LIG    1        1.482   3.443   4.223  0.00  0.00    -0.490 OA
ATOM     22  H   LIG    1        1.410   2.780   4.923  0.00  0.00    +0.410 HD
ENDBRANCH  20  21
ENDBRANCH  11  15
TORSDOF 2
