REMARK  Name = ZINCkj000005hpBZ.1
REMARK                            x       y       z     vdW  Elec       q    Type
REMARK                         _______ _______ _______ _____ _____    ______ ____
ROOT
ATOM      1  C   LIG    1       10.389   2.210  -0.168  0.00  0.00    +0.320 C 
ATOM      2  N   LIG    1        9.013   1.695  -0.158  0.00  0.00    -0.390 N 
ATOM      3  C   LIG    1        8.317   2.187   1.038  0.00  0.00    +0.260 C 
ATOM      4  C   LIG    1        6.912   1.583   1.096  0.00  0.00    +0.050 C 
ATOM      5  C   LIG    1        6.133   1.996  -0.157  0.00  0.00    +0.270 C 
ATOM      6  C   LIG    1        6.905   1.559  -1.400  0.00  0.00    -0.010 C 
ATOM      7  C   LIG    1        6.992   0.032  -1.438  0.00  0.00    +0.010 C 
ATOM      8  C   LIG    1        5.582  -0.560  -1.508  0.00  0.00    +0.040 C 
ATOM      9  C   LIG    1        4.796  -0.148  -0.259  0.00  0.00    +0.270 C 
ATOM     10  N   LIG    1        4.830   1.316  -0.140  0.00  0.00    -0.600 N 
ATOM     11  C   LIG    1        3.688   2.023  -0.023  0.00  0.00    +0.580 C 
ATOM     12  O   LIG    1        2.621   1.445   0.053  0.00  0.00    -0.490 OA
ATOM     13  C   LIG    1        8.312   2.154  -1.363  0.00  0.00    +0.260 C 
ATOM     14  H   LIG    1        9.032   0.687  -0.144  0.00  0.00    +0.420 HD
ENDROOT
BRANCH  11  15
ATOM     15  C   LIG    1        3.733   3.500   0.013  0.00  0.00    +0.040 A 
ATOM     16  N   LIG    1        4.697   4.114   0.689  0.00  0.00    -0.450 NA
ATOM     17  C   LIG    1        4.773   5.425   0.746  0.00  0.00    +0.250 A 
ATOM     18  C   LIG    1        3.844   6.225   0.098  0.00  0.00    +0.030 A 
ATOM     19  C   LIG    1        2.820   5.633  -0.621  0.00  0.00    +0.050 A 
ATOM     20  C   LIG    1        2.761   4.242  -0.667  0.00  0.00    +0.120 A 
BRANCH  20  21
ATOM     21  O   LIG    1        1.776   3.616  -1.359  0.00  0.00    -0.470 OA
ATOM     22  H   LIG    1        1.996   3.437  -2.283  0.00  0.00    +0.400 HD
ENDBRANCH  20  21
ENDBRANCH  11  15
TORSDOF 2
