REMARK  Name = ZINCwl0000000bAh.0
REMARK                            x       y       z     vdW  Elec       q    Type
REMARK                         _______ _______ _______ _____ _____    ______ ____
ROOT
ATOM      1  C   LIG    1       -1.126  -2.046  -0.176  0.00  0.00    +0.530 C 
ATOM      2  N   LIG    1       -1.128  -0.777   0.277  0.00  0.00    -0.670 N 
ATOM      3  H   LIG    1       -1.947  -0.386   0.620  0.00  0.00    +0.420 HD
ATOM      4  O   LIG    1       -0.089  -2.558  -0.541  0.00  0.00    -0.490 OA
ENDROOT
BRANCH   2   5
ATOM      5  C   LIG    1        0.053  -0.022   0.251  0.00  0.00    +0.100 A 
ATOM      6  C   LIG    1        0.999  -0.226  -0.751  0.00  0.00    +0.100 A 
ATOM      7  C   LIG    1        2.149   0.541  -0.738  0.00  0.00    -0.010 A 
ATOM      8  C   LIG    1        2.322   1.486   0.268  0.00  0.00    +0.270 A 
ATOM      9  N   LIG    1        1.402   1.653   1.204  0.00  0.00    -0.490 NA
ATOM     10  C   LIG    1        0.293   0.939   1.222  0.00  0.00    +0.270 A 
BRANCH   8  11
ATOM     11  N   LIG    1        3.477   2.264   0.290  0.00  0.00    -0.470 N 
ATOM     12  C   LIG    1        4.680   1.421   0.321  0.00  0.00    +0.230 C 
ATOM     13  C   LIG    1        5.924   2.311   0.284  0.00  0.00    +0.280 C 
ATOM     14  N   LIG    1        5.912   3.217   1.440  0.00  0.00    -0.390 N 
ATOM     15  C   LIG    1        4.717   4.070   1.383  0.00  0.00    +0.270 C 
ATOM     16  C   LIG    1        7.115   4.059   1.414  0.00  0.00    +0.320 C 
ATOM     17  H   LIG    1        5.898   2.676   2.291  0.00  0.00    +0.420 HD
ATOM     18  C   LIG    1        3.463   3.194   1.428  0.00  0.00    +0.250 C 
ENDBRANCH   8  11
ENDBRANCH   2   5
BRANCH   1  19
ATOM     19  C   LIG    1       -2.413  -2.829  -0.229  0.00  0.00    +0.130 C 
BRANCH  19  20
ATOM     20  N   LIG    1       -2.112  -4.263  -0.218  0.00  0.00    -0.480 NA
ATOM     21  C   LIG    1       -2.570  -5.017   0.741  0.00  0.00    +0.400 C 
ATOM     22  N   LIG    1       -3.331  -4.498   1.757  0.00  0.00    -1.050 N 
ATOM     23  H   LIG    1       -3.600  -3.574   1.874  0.00  0.00    +0.450 HD
ATOM     24  S   LIG    1       -3.700  -5.791   2.749  0.00  0.00    +2.670 S 
ATOM     25  C   LIG    1       -2.865  -7.093   1.888  0.00  0.00    -0.630 A 
ATOM     26  C   LIG    1       -2.721  -8.436   2.110  0.00  0.00    +0.160 A 
ATOM     27  C   LIG    1       -1.984  -9.206   1.223  0.00  0.00    +0.050 A 
ATOM     28  C   LIG    1       -1.401  -8.607   0.121  0.00  0.00    +0.080 A 
ATOM     29  C   LIG    1       -1.544  -7.256  -0.106  0.00  0.00    +0.100 A 
ATOM     30  O   LIG    1       -3.022  -5.591   3.982  0.00  0.00    -0.930 OA
ATOM     31  O   LIG    1       -5.096  -6.033   2.639  0.00  0.00    -0.920 OA
ATOM     32  C   LIG    1       -2.287  -6.461   0.782  0.00  0.00    -0.030 A 
ENDBRANCH  19  20
BRANCH  19  34
ATOM     33  C   LIG    1       -4.422  -3.353  -1.618  0.00  0.00    +0.040 C 
ATOM     34  C   LIG    1       -3.172  -2.477  -1.509  0.00  0.00    +0.010 C 
ATOM     35  C   LIG    1       -3.583  -1.004  -1.470  0.00  0.00    +0.030 C 
ENDBRANCH  19  34
ENDBRANCH   1  19
TORSDOF 5
