REMARK  Name = ZINCkj000005m4tX.1
REMARK                            x       y       z     vdW  Elec       q    Type
REMARK                         _______ _______ _______ _____ _____    ______ ____
ROOT
ATOM      1  O   LIG    1        1.101   7.941  -3.383  0.00  0.00    -0.500 OA
ATOM      2  C   LIG    1        0.396   8.191  -2.429  0.00  0.00    +0.500 C 
ATOM      3  N   LIG    1        0.004   7.202  -1.602  0.00  0.00    -0.630 N 
ATOM      4  C   LIG    1       -0.759   7.496  -0.379  0.00  0.00    +0.300 C 
ATOM      5  C   LIG    1       -0.081   6.790   0.799  0.00  0.00    +0.270 C 
ATOM      6  N   LIG    1        0.054   5.359   0.498  0.00  0.00    -0.500 N 
ATOM      7  C   LIG    1        0.955   5.171  -0.647  0.00  0.00    +0.220 C 
ATOM      8  H   LIG    1        0.432   4.881   1.303  0.00  0.00    +0.440 HD
ATOM      9  H   LIG    1       -0.853   4.975   0.277  0.00  0.00    +0.430 HD
ATOM     10  C   LIG    1        0.327   5.798  -1.897  0.00  0.00    +0.340 C 
ENDROOT
BRANCH   7  11
ATOM     11  C   LIG    1        1.173   3.698  -0.878  0.00  0.00    -0.150 A 
ATOM     12  C   LIG    1        2.428   3.230  -1.219  0.00  0.00    +0.050 A 
ATOM     13  C   LIG    1        2.628   1.879  -1.431  0.00  0.00    +0.040 A 
ATOM     14  C   LIG    1        1.573   0.996  -1.302  0.00  0.00    +0.050 A 
ATOM     15  C   LIG    1        0.316   1.464  -0.967  0.00  0.00    +0.040 A 
ATOM     16  C   LIG    1        0.117   2.814  -0.750  0.00  0.00    +0.000 A 
ENDBRANCH   7  11
BRANCH   2  17
ATOM     17  C   LIG    1       -0.042   9.610  -2.168  0.00  0.00    +0.220 C 
BRANCH  17  18
ATOM     18  C   LIG    1        0.975  10.298  -1.255  0.00  0.00    -0.050 C 
ATOM     19  C   LIG    1        0.671  10.129   0.243  0.00  0.00    +0.020 C 
ATOM     20  C   LIG    1        1.098  11.598   0.413  0.00  0.00    +0.030 C 
ATOM     21  C   LIG    1        0.711  11.800  -1.061  0.00  0.00    +0.050 C 
ENDBRANCH  17  18
BRANCH  17  22
ATOM     22  O   LIG    1       -0.126  10.318  -3.406  0.00  0.00    -0.530 OA
ATOM     23  H   LIG    1        0.709  10.362  -3.892  0.00  0.00    +0.390 HD
ENDBRANCH  17  22
ENDBRANCH   2  17
TORSDOF 4
