REMARK  Name = ZINCqH0000034pil.0
REMARK                            x       y       z     vdW  Elec       q    Type
REMARK                         _______ _______ _______ _____ _____    ______ ____
ROOT
ATOM      1  C   LIG    1        1.333   5.826   0.283  0.00  0.00    +0.590 C 
ATOM      2  N   LIG    1        0.218   5.165   0.653  0.00  0.00    -0.540 N 
ATOM      3  O   LIG    1        1.322   7.039   0.204  0.00  0.00    -0.490 OA
ENDROOT
BRANCH   1   9
ATOM      4  N   LIG    1        5.921   2.946  -0.984  0.00  0.00    -0.390 N 
ATOM      5  N   LIG    1        5.462   2.220  -2.086  0.00  0.00    -0.240 NA
ATOM      6  C   LIG    1        4.218   2.515  -2.331  0.00  0.00    +0.290 A 
ATOM      7  C   LIG    1        3.795   3.501  -1.341  0.00  0.00    -0.230 A 
ATOM      8  C   LIG    1        2.601   4.181  -1.095  0.00  0.00    +0.190 A 
ATOM      9  C   LIG    1        2.567   5.077  -0.026  0.00  0.00    -0.180 A 
ATOM     10  C   LIG    1        3.721   5.262   0.748  0.00  0.00    +0.250 A 
ATOM     11  N   LIG    1        4.827   4.603   0.493  0.00  0.00    -0.500 NA
ATOM     12  C   LIG    1        3.690   6.233   1.900  0.00  0.00    +0.130 C 
ATOM     13  C   LIG    1        4.912   3.738  -0.512  0.00  0.00    +0.330 A 
BRANCH   4  15
ATOM     14  C   LIG    1        7.318   1.781   0.652  0.00  0.00    +0.030 C 
ATOM     15  C   LIG    1        7.272   2.871  -0.422  0.00  0.00    +0.330 C 
ENDBRANCH   4  15
ENDBRANCH   1   9
BRANCH   2  16
ATOM     16  C   LIG    1        0.254   3.783   0.828  0.00  0.00    +0.360 A 
ATOM     17  C   LIG    1       -0.936   3.069   0.915  0.00  0.00    -0.060 A 
ATOM     18  C   LIG    1       -0.886   1.696   1.083  0.00  0.00    +0.100 A 
ATOM     19  C   LIG    1        0.356   1.084   1.169  0.00  0.00    -0.060 A 
ATOM     20  C   LIG    1        1.498   1.855   1.074  0.00  0.00    +0.290 A 
ATOM     21  N   LIG    1        1.420   3.162   0.909  0.00  0.00    -0.500 NA
ENDBRANCH   2  16
BRANCH   2  22
ATOM     22  C   LIG    1       -1.030   5.899   0.872  0.00  0.00    +0.230 C 
ATOM     23  C   LIG    1       -1.425   6.662  -0.409  0.00  0.00    +0.020 C 
ATOM     24  C   LIG    1       -2.025   7.992   0.111  0.00  0.00    +0.020 C 
ATOM     25  C   LIG    1       -1.117   8.327   1.320  0.00  0.00    +0.020 C 
ATOM     26  C   LIG    1       -0.834   6.957   1.971  0.00  0.00    +0.010 C 
ENDBRANCH   2  22
TORSDOF 4
