REMARK  Name = ZINCvU0000000FFz.0
REMARK                            x       y       z     vdW  Elec       q    Type
REMARK                         _______ _______ _______ _____ _____    ______ ____
ROOT
ATOM      1  C   LIG    1       -4.001   5.933  -2.660  0.00  0.00    +0.170 A 
ATOM      2  N   LIG    1       -3.680   4.686  -2.458  0.00  0.00    -0.250 NA
ATOM      3  N   LIG    1       -2.620   4.627  -1.730  0.00  0.00    -0.260 NA
ATOM      4  C   LIG    1       -2.225   5.845  -1.441  0.00  0.00    +0.260 A 
ATOM      5  O   LIG    1       -3.096   6.696  -2.020  0.00  0.00    -0.210 OA
ENDROOT
BRANCH   4   6
ATOM      6  C   LIG    1       -1.049   6.215  -0.627  0.00  0.00    -0.160 A 
ATOM      7  C   LIG    1       -0.598   7.465  -0.299  0.00  0.00    +0.040 A 
ATOM      8  O   LIG    1        0.497   7.292   0.450  0.00  0.00    +0.110 OA
ATOM      9  N   LIG    1        0.773   6.131   0.630  0.00  0.00    -0.340 NA
ATOM     10  C   LIG    1       -1.214   8.780  -0.703  0.00  0.00    +0.210 C 
ATOM     11  C   LIG    1       -0.070   5.327   0.031  0.00  0.00    +0.120 A 
BRANCH  11  12
ATOM     12  C   LIG    1       -0.050   3.844   0.023  0.00  0.00    -0.040 A 
ATOM     13  C   LIG    1        1.165   3.161   0.008  0.00  0.00    +0.050 A 
ATOM     14  C   LIG    1        1.177   1.781   0.000  0.00  0.00    +0.000 A 
ATOM     15  C   LIG    1       -0.013   1.076   0.008  0.00  0.00    +0.030 A 
ATOM     16  C   LIG    1       -1.221   1.748   0.017  0.00  0.00    +0.010 A 
ATOM     17  C   LIG    1       -1.246   3.128   0.030  0.00  0.00    +0.070 A 
ENDBRANCH  11  12
ENDBRANCH   4   6
BRANCH   1  18
ATOM     18  C   LIG    1       -5.177   6.430  -3.461  0.00  0.00    +0.270 C 
BRANCH  18  19
ATOM     19  S   LIG    1       -6.614   6.607  -2.375  0.00  0.00    +0.050 S 
BRANCH  19  21
ATOM     20  N   LIG    1       -9.111   7.496  -3.273  0.00  0.00    -0.460 N 
ATOM     21  C   LIG    1       -7.806   7.184  -3.537  0.00  0.00    +0.160 A 
ATOM     22  N   LIG    1       -7.605   7.401  -4.817  0.00  0.00    -0.280 NA
ATOM     23  N   LIG    1       -8.687   7.815  -5.372  0.00  0.00    -0.260 NA
ATOM     24  C   LIG    1       -9.647   7.898  -4.477  0.00  0.00    +0.260 A 
BRANCH  24  25
ATOM     25  C   LIG    1      -11.031   8.337  -4.715  0.00  0.00    -0.140 A 
ATOM     26  C   LIG    1      -11.463   8.996  -5.813  0.00  0.00    +0.080 A 
ATOM     27  C   LIG    1      -12.808   9.299  -5.811  0.00  0.00    +0.010 A 
ATOM     28  C   LIG    1      -13.476   8.904  -4.722  0.00  0.00    -0.020 A 
ATOM     29  S   LIG    1      -12.379   8.093  -3.612  0.00  0.00    +0.130 S 
ENDBRANCH  24  25
BRANCH  20  31
ATOM     30  C   LIG    1       -9.652   8.753  -1.246  0.00  0.00    +0.060 C 
ATOM     31  C   LIG    1       -9.796   7.419  -1.981  0.00  0.00    +0.310 C 
ENDBRANCH  20  31
ENDBRANCH  19  21
ENDBRANCH  18  19
ENDBRANCH   1  18
TORSDOF 7
