REMARK  Name = ZINCrg000000tdSI.0
REMARK                            x       y       z     vdW  Elec       q    Type
REMARK                         _______ _______ _______ _____ _____    ______ ____
ROOT
ATOM      1  O   LIG    1        9.657   1.075  -0.989  0.00  0.00    -0.530 OA
ATOM      2  C   LIG    1        9.531   2.115  -0.377  0.00  0.00    +0.510 C 
ATOM      3  N   LIG    1        8.302   2.548  -0.032  0.00  0.00    -0.510 N 
ATOM      4  H   LIG    1        8.201   3.380   0.458  0.00  0.00    +0.440 HD
ENDROOT
BRANCH   3   5
ATOM      5  N   LIG    1        7.171   1.798  -0.380  0.00  0.00    -0.520 N 
ATOM      6  H   LIG    1        7.272   0.967  -0.870  0.00  0.00    +0.440 HD
ATOM      7  C   LIG    1        5.943   2.232  -0.035  0.00  0.00    +0.530 C 
ATOM      8  O   LIG    1        5.816   3.272   0.577  0.00  0.00    -0.500 OA
BRANCH   7   9
ATOM      9  C   LIG    1        4.726   1.425  -0.410  0.00  0.00    +0.170 C 
ATOM     10  C   LIG    1        4.753   0.078   0.324  0.00  0.00    +0.250 C 
ATOM     11  O   LIG    1        3.579  -0.656  -0.043  0.00  0.00    -0.300 OA
ATOM     12  C   LIG    1        2.401   0.025  -0.023  0.00  0.00    +0.040 A 
ATOM     13  C   LIG    1        1.207  -0.681  -0.015  0.00  0.00    +0.030 A 
ATOM     14  C   LIG    1        0.002  -0.004   0.002  0.00  0.00    +0.030 A 
ATOM     15  C   LIG    1       -0.017   1.378   0.010  0.00  0.00    +0.030 A 
ATOM     16  C   LIG    1        1.170   2.088   0.002  0.00  0.00    +0.030 A 
ATOM     17  C   LIG    1        2.382   1.415  -0.013  0.00  0.00    +0.050 A 
ATOM     18  O   LIG    1        3.542   2.127  -0.016  0.00  0.00    -0.280 OA
ENDBRANCH   7   9
ENDBRANCH   3   5
BRANCH   2  19
ATOM     19  C   LIG    1       10.747   2.921  -0.002  0.00  0.00    +0.330 C 
BRANCH  19  20
ATOM     20  N   LIG    1       11.952   2.243  -0.487  0.00  0.00    -0.720 N 
ATOM     21  H   LIG    1       11.875   1.403  -0.968  0.00  0.00    +0.410 HD
ATOM     22  C   LIG    1       13.166   2.784  -0.266  0.00  0.00    +0.550 C 
ATOM     23  O   LIG    1       13.261   3.836   0.336  0.00  0.00    -0.500 OA
BRANCH  22  24
ATOM     24  C   LIG    1       14.381   2.099  -0.755  0.00  0.00    -0.110 A 
ATOM     25  C   LIG    1       14.275   0.889  -1.442  0.00  0.00    +0.050 A 
ATOM     26  C   LIG    1       15.412   0.257  -1.900  0.00  0.00    +0.030 A 
ATOM     27  C   LIG    1       16.658   0.816  -1.672  0.00  0.00    +0.050 A 
ATOM     28  C   LIG    1       16.771   2.013  -0.987  0.00  0.00    +0.050 A 
ATOM     29  C   LIG    1       15.640   2.658  -0.528  0.00  0.00    -0.060 A 
ATOM     30  I   LIG    1       15.814   4.470   0.509  0.00  0.00    +0.010 I 
ENDBRANCH  22  24
ENDBRANCH  19  20
ENDBRANCH   2  19
TORSDOF 5
