REMARK  Name = ZINCpe00000bcVYd.0
REMARK                            x       y       z     vdW  Elec       q    Type
REMARK                         _______ _______ _______ _____ _____    ______ ____
ROOT
ATOM      1  C   LIG    1       -0.742   1.585  -1.213  0.00  0.00    +0.520 C 
ATOM      2  N   LIG    1       -0.288   1.272  -2.443  0.00  0.00    -0.610 N 
ATOM      3  C   LIG    1        0.919   0.451  -2.609  0.00  0.00    +0.270 C 
ATOM      4  C   LIG    1        0.564  -0.761  -3.487  0.00  0.00    +0.300 C 
ATOM      5  N   LIG    1       -0.137  -0.282  -4.686  0.00  0.00    -1.000 NA
ATOM      6  C   LIG    1       -1.341   0.545  -4.521  0.00  0.00    +0.300 C 
ATOM      7  C   LIG    1       -0.989   1.752  -3.643  0.00  0.00    +0.280 C 
ATOM      8  O   LIG    1       -1.736   2.268  -1.088  0.00  0.00    -0.530 OA
ENDROOT
BRANCH   5   9
ATOM      9  S   LIG    1        0.420  -0.666  -6.198  0.00  0.00    +2.690 S 
ATOM     10  O   LIG    1       -0.694  -0.563  -7.074  0.00  0.00    -0.950 OA
ATOM     11  O   LIG    1        1.188  -1.853  -6.053  0.00  0.00    -0.950 OA
BRANCH   9  12
ATOM     12  C   LIG    1        1.548   0.601  -6.676  0.00  0.00    -0.680 A 
ATOM     13  C   LIG    1        1.089   1.713  -7.357  0.00  0.00    +0.140 A 
ATOM     14  C   LIG    1        1.973   2.709  -7.728  0.00  0.00    +0.020 A 
ATOM     15  C   LIG    1        3.317   2.588  -7.426  0.00  0.00    +0.020 A 
ATOM     16  C   LIG    1        3.776   1.473  -6.749  0.00  0.00    +0.020 A 
ATOM     17 CL   LIG    1        4.429   3.837  -7.896  0.00  0.00    -0.050 Cl
ATOM     18  C   LIG    1        2.891   0.479  -6.374  0.00  0.00    +0.140 A 
ENDBRANCH   9  12
ENDBRANCH   5   9
BRANCH   1  19
ATOM     19  C   LIG    1       -0.013   1.086   0.008  0.00  0.00    +0.050 C 
BRANCH  19  20
ATOM     20  C   LIG    1       -0.729   1.579   1.267  0.00  0.00    +0.290 C 
BRANCH  20  22
ATOM     21  C   LIG    1       -0.473   1.407   3.684  0.00  0.00    +0.540 C 
ATOM     22  N   LIG    1       -0.020   1.094   2.454  0.00  0.00    -0.730 N 
ATOM     23  H   LIG    1        0.775   0.547   2.354  0.00  0.00    +0.400 HD
ATOM     24  O   LIG    1       -1.470   2.092   3.809  0.00  0.00    -0.540 OA
BRANCH  21  26
ATOM     25  C   LIG    1       -0.209   1.228   6.090  0.00  0.00    +0.150 C 
ATOM     26  C   LIG    1        0.238   0.919   4.876  0.00  0.00    -0.090 C 
ENDBRANCH  21  26
ENDBRANCH  20  22
ENDBRANCH  19  20
ENDBRANCH   1  19
TORSDOF 6
