REMARK  Name = ZINCpe00000gNbVQ.0
REMARK                            x       y       z     vdW  Elec       q    Type
REMARK                         _______ _______ _______ _____ _____    ______ ____
ROOT
ATOM      1  O   LIG    1        1.430   4.967   1.933  0.00  0.00    -0.510 OA
ATOM      2  C   LIG    1        0.917   5.774   1.187  0.00  0.00    +0.520 C 
ATOM      3  N   LIG    1        1.099   7.093   1.394  0.00  0.00    -0.610 N 
ATOM      4  C   LIG    1        0.477   8.079   0.478  0.00  0.00    +0.280 C 
ATOM      5  C   LIG    1       -0.719   8.670   1.108  0.00  0.00    -0.010 C 
ATOM      6  C   LIG    1       -0.383   9.360   2.441  0.00  0.00    +0.290 C 
ATOM      7  N   LIG    1       -0.247   8.343   3.444  0.00  0.00    -1.000 NA
ATOM      8  C   LIG    1        1.071   7.743   3.790  0.00  0.00    +0.280 C 
ATOM      9  C   LIG    1        1.901   7.543   2.498  0.00  0.00    +0.280 C 
ENDROOT
BRANCH   7  10
ATOM     10  S   LIG    1       -1.600   7.819   4.241  0.00  0.00    +2.770 S 
ATOM     11  O   LIG    1       -1.304   6.514   4.721  0.00  0.00    -0.970 OA
ATOM     12  O   LIG    1       -2.703   8.102   3.391  0.00  0.00    -0.970 OA
BRANCH  10  13
ATOM     13  N   LIG    1       -1.783   8.778   5.579  0.00  0.00    -1.010 NA
ATOM     14  C   LIG    1       -1.163   8.405   6.858  0.00  0.00    +0.280 C 
ATOM     15  C   LIG    1       -0.317   9.588   7.354  0.00  0.00    +0.020 C 
ATOM     16  C   LIG    1       -1.193  10.841   7.422  0.00  0.00    +0.010 C 
ATOM     17  C   LIG    1       -1.716  11.176   6.023  0.00  0.00    +0.020 C 
ATOM     18  C   LIG    1       -2.573  10.015   5.511  0.00  0.00    +0.280 C 
ENDBRANCH  10  13
ENDBRANCH   7  10
BRANCH   2  19
ATOM     19  C   LIG    1        0.077   5.302   0.029  0.00  0.00    +0.130 C 
BRANCH  19  20
ATOM     20  C   LIG    1        0.033   3.795   0.022  0.00  0.00    +0.140 A 
ATOM     21  C   LIG    1       -1.188   3.148   0.030  0.00  0.00    -0.040 A 
ATOM     22  C   LIG    1       -1.217   1.761   0.017  0.00  0.00    +0.070 A 
ATOM     23  C   LIG    1       -0.013   1.076   0.008  0.00  0.00    -0.030 A 
ATOM     24  C   LIG    1        1.170   1.792   0.001  0.00  0.00    +0.260 A 
ATOM     25  N   LIG    1        1.160   3.110   0.007  0.00  0.00    -0.460 NA
ENDBRANCH  19  20
ENDBRANCH   2  19
TORSDOF 4
