REMARK  Name = ZINCfA000000bmT2.0
REMARK                            x       y       z     vdW  Elec       q    Type
REMARK                         _______ _______ _______ _____ _____    ______ ____
ROOT
ATOM      1  N   LIG    1       -0.700   1.560   1.217  0.00  0.00    -0.510 N 
ATOM      2  H   LIG    1       -1.669   1.280   1.184  0.00  0.00    +0.430 HD
ATOM      3  H   LIG    1       -0.642   2.566   1.264  0.00  0.00    +0.420 HD
ENDROOT
BRANCH   1  11
ATOM      4  C   LIG    1       -0.773   3.123  -1.223  0.00  0.00    +0.040 C 
ATOM      5  C   LIG    1       -0.753   1.593  -1.232  0.00  0.00    -0.010 C 
ATOM      6  C   LIG    1       -0.037   1.099  -2.490  0.00  0.00    +0.060 C 
ATOM      7  C   LIG    1        1.399   1.629  -2.501  0.00  0.00    -0.020 C 
ATOM      8  C   LIG    1        2.139   1.122  -1.262  0.00  0.00    +0.060 C 
ATOM      9  C   LIG    1        1.423   1.615  -0.003  0.00  0.00    +0.040 C 
ATOM     10  C   LIG    1        2.115   1.135  -3.760  0.00  0.00    +0.030 C 
ATOM     11  C   LIG    1       -0.013   1.086   0.008  0.00  0.00    +0.170 C 
ENDBRANCH   1  11
BRANCH   1  12
ATOM     12  C   LIG    1       -0.062   0.976   2.404  0.00  0.00    +0.380 C 
BRANCH  12  13
ATOM     13  C   LIG    1       -0.767   1.462   3.644  0.00  0.00    -0.340 A 
ATOM     14  C   LIG    1       -1.808   0.872   4.238  0.00  0.00    +0.300 A 
ATOM     15  N   LIG    1       -2.249   1.494   5.313  0.00  0.00    -0.470 NA
ATOM     16  C   LIG    1       -1.636   2.576   5.659  0.00  0.00    +0.280 A 
ATOM     17  S   LIG    1       -0.360   2.904   4.570  0.00  0.00    +0.180 S 
ENDBRANCH  12  13
ENDBRANCH   1  12
TORSDOF 3
