REMARK  Name = ZINCvU0000000Bnx.0
REMARK                            x       y       z     vdW  Elec       q    Type
REMARK                         _______ _______ _______ _____ _____    ______ ____
ROOT
ATOM      1  C   LIG    1        0.697  10.138   4.606  0.00  0.00    +0.100 C 
ATOM      2  C   LIG    1        1.618  10.645   3.493  0.00  0.00    +0.170 C 
ATOM      3  N   LIG    1        2.797   9.772   3.358  0.00  0.00    -0.720 N 
ATOM      4  H   LIG    1        3.470   9.599   4.035  0.00  0.00    +0.440 HD
ATOM      5  C   LIG    1        2.757   9.261   2.115  0.00  0.00    +0.710 C 
ATOM      6  N   LIG    1        1.699   9.691   1.419  0.00  0.00    -0.580 N 
ATOM      7  O   LIG    1        3.590   8.494   1.672  0.00  0.00    -0.530 OA
ATOM      8  C   LIG    1        0.938  10.536   2.142  0.00  0.00    +0.540 C 
ATOM      9  O   LIG    1       -0.079  11.093   1.788  0.00  0.00    -0.440 OA
ENDROOT
BRANCH   2  10
ATOM     10  C   LIG    1        2.038  12.066   3.761  0.00  0.00    -0.090 A 
ATOM     11  C   LIG    1        3.183  12.307   4.458  0.00  0.00    +0.050 A 
ATOM     12  C   LIG    1        3.578  13.632   4.710  0.00  0.00    -0.050 A 
ATOM     13  C   LIG    1        4.753  13.919   5.424  0.00  0.00    +0.030 A 
ATOM     14  C   LIG    1        5.105  15.215   5.649  0.00  0.00    +0.020 A 
ATOM     15  C   LIG    1        4.317  16.264   5.181  0.00  0.00    +0.020 A 
ATOM     16  C   LIG    1        3.171  16.023   4.485  0.00  0.00    +0.020 A 
ATOM     17  C   LIG    1        2.776  14.699   4.233  0.00  0.00    -0.050 A 
ATOM     18  C   LIG    1        1.601  14.411   3.518  0.00  0.00    +0.040 A 
ATOM     19  C   LIG    1        1.253  13.116   3.288  0.00  0.00    +0.030 A 
ENDBRANCH   2  10
BRANCH   6  20
ATOM     20  C   LIG    1        1.406   9.298   0.038  0.00  0.00    +0.490 C 
BRANCH  20  21
ATOM     21  C   LIG    1        0.544   8.061   0.041  0.00  0.00    +0.160 A 
ATOM     22  N   LIG    1       -0.759   8.047   0.053  0.00  0.00    -0.450 NA
ATOM     23  C   LIG    1       -1.180   6.773   0.050  0.00  0.00    +0.170 A 
ATOM     24  C   LIG    1       -0.079   5.979   0.035  0.00  0.00    +0.010 A 
ATOM     25  O   LIG    1        0.995   6.799   0.035  0.00  0.00    -0.180 OA
BRANCH  24  26
ATOM     26  C   LIG    1       -0.059   4.501   0.027  0.00  0.00    -0.020 A 
ATOM     27  C   LIG    1        1.157   3.817   0.012  0.00  0.00    +0.060 A 
ATOM     28  C   LIG    1        1.170   2.438   0.004  0.00  0.00    +0.030 A 
ATOM     29  C   LIG    1       -0.021   1.732   0.012  0.00  0.00    -0.030 A 
ATOM     30  C   LIG    1       -1.232   2.405   0.021  0.00  0.00    +0.040 A 
ATOM     31 CL   LIG    1        0.002  -0.004   0.002  0.00  0.00    -0.060 Cl
ATOM     32  C   LIG    1       -1.256   3.784   0.034  0.00  0.00    +0.060 A 
ENDBRANCH  24  26
ENDBRANCH  20  21
ENDBRANCH   6  20
TORSDOF 4
