REMARK  Name = ZINCrH000004moKk.0
REMARK                            x       y       z     vdW  Elec       q    Type
REMARK                         _______ _______ _______ _____ _____    ______ ____
ROOT
ATOM      1  C   LIG    1        2.805   0.141  -3.504  0.00  0.00    +0.180 A 
ATOM      2  N   LIG    1        2.131   0.176  -2.376  0.00  0.00    -0.270 NA
ATOM      3  N   LIG    1        2.903   0.817  -1.403  0.00  0.00    -0.350 N 
ATOM      4  C   LIG    1        4.077   1.193  -1.932  0.00  0.00    +0.280 A 
ATOM      5  C   LIG    1        4.092   0.797  -3.254  0.00  0.00    -0.290 A 
ENDROOT
BRANCH   1   9
ATOM      6  C   LIG    1        1.500  -1.553  -7.180  0.00  0.00    +0.140 A 
ATOM      7  C   LIG    1        1.133  -2.142  -5.977  0.00  0.00    -0.040 A 
ATOM      8  C   LIG    1        1.555  -1.595  -4.783  0.00  0.00    +0.080 A 
ATOM      9  C   LIG    1        2.350  -0.449  -4.785  0.00  0.00    -0.070 A 
ATOM     10  C   LIG    1        2.712   0.143  -5.995  0.00  0.00    +0.130 A 
ATOM     11  C   LIG    1        2.292  -0.412  -7.185  0.00  0.00    -0.090 A 
BRANCH   6  13
ATOM     12  C   LIG    1        1.497  -1.438  -9.554  0.00  0.00    +0.250 C 
ATOM     13  O   LIG    1        1.083  -2.094  -8.354  0.00  0.00    -0.320 OA
ENDBRANCH   6  13
ENDBRANCH   1   9
BRANCH   5  14
ATOM     14  C   LIG    1        5.183   0.998  -4.222  0.00  0.00    +0.590 C 
ATOM     15  N   LIG    1        6.315   1.623  -3.842  0.00  0.00    -0.730 N 
ATOM     16  H   LIG    1        6.411   1.940  -2.931  0.00  0.00    +0.400 HD
ATOM     17  O   LIG    1        5.063   0.599  -5.365  0.00  0.00    -0.530 OA
BRANCH  15  18
ATOM     18  C   LIG    1        7.401   1.822  -4.806  0.00  0.00    +0.290 C 
BRANCH  18  19
ATOM     19  C   LIG    1        8.560   2.551  -4.124  0.00  0.00    -0.060 C 
ATOM     20  C   LIG    1        8.924   3.943  -4.645  0.00  0.00    +0.020 C 
ATOM     21  C   LIG    1        9.842   2.753  -4.935  0.00  0.00    +0.030 C 
ENDBRANCH  18  19
ENDBRANCH  15  18
ENDBRANCH   5  14
BRANCH   3  22
ATOM     22  C   LIG    1        2.490   1.048  -0.016  0.00  0.00    +0.380 C 
BRANCH  22  23
ATOM     23  C   LIG    1        1.175   1.783   0.000  0.00  0.00    -0.120 A 
ATOM     24  C   LIG    1       -0.013   1.076   0.008  0.00  0.00    +0.050 A 
ATOM     25  C   LIG    1       -1.219   1.751   0.017  0.00  0.00    +0.010 A 
ATOM     26  C   LIG    1       -1.238   3.133   0.030  0.00  0.00    +0.010 A 
ATOM     27  C   LIG    1       -0.050   3.840   0.022  0.00  0.00    +0.000 A 
ATOM     28  C   LIG    1        1.156   3.165   0.008  0.00  0.00    +0.020 A 
ENDBRANCH  22  23
ENDBRANCH   3  22
TORSDOF 7
