REMARK  Name = ZINCpk00000y681K.0
REMARK                            x       y       z     vdW  Elec       q    Type
REMARK                         _______ _______ _______ _____ _____    ______ ____
ROOT
ATOM      1  C   LIG    1        1.330   0.922   4.126  0.00  0.00    +0.170 A 
ATOM      2  N   LIG    1        0.999   1.710   3.131  0.00  0.00    -0.460 NA
ATOM      3  C   LIG    1        0.000   1.080   2.488  0.00  0.00    +0.180 A 
ATOM      4  N   LIG    1       -0.225  -0.035   3.115  0.00  0.00    -0.380 NA
ATOM      5  O   LIG    1        0.532  -0.148   4.056  0.00  0.00    +0.080 OA
ENDROOT
BRANCH   1  12
ATOM      6  C   LIG    1        4.634  -1.978   4.847  0.00  0.00    +0.110 C 
ATOM      7  C   LIG    1        3.895  -0.721   4.465  0.00  0.00    +0.530 C 
ATOM      8  N   LIG    1        3.171  -0.058   5.388  0.00  0.00    -0.610 N 
ATOM      9  C   LIG    1        3.014  -0.449   6.800  0.00  0.00    +0.240 C 
ATOM     10  C   LIG    1        2.663   0.867   7.539  0.00  0.00    +0.180 C 
ATOM     11  C   LIG    1        1.763   1.580   6.496  0.00  0.00    +0.090 C 
ATOM     12  C   LIG    1        2.405   1.175   5.152  0.00  0.00    +0.370 C 
ATOM     13  O   LIG    1        3.953  -0.306   3.326  0.00  0.00    -0.530 OA
BRANCH  10  14
ATOM     14  O   LIG    1        3.840   1.632   7.809  0.00  0.00    -0.550 OA
ATOM     15  H   LIG    1        4.433   1.226   8.456  0.00  0.00    +0.390 HD
ENDBRANCH  10  14
ENDBRANCH   1  12
BRANCH   3  16
ATOM     16  C   LIG    1       -0.729   1.579   1.267  0.00  0.00    +0.170 C 
BRANCH  16  17
ATOM     17  C   LIG    1       -0.013   1.086   0.008  0.00  0.00    +0.090 C 
BRANCH  17  18
ATOM     18  C   LIG    1       -0.742   1.585  -1.213  0.00  0.00    -0.110 A 
ATOM     19  C   LIG    1       -0.400   2.800  -1.776  0.00  0.00    +0.050 A 
ATOM     20  C   LIG    1       -1.066   3.264  -2.892  0.00  0.00    -0.010 A 
ATOM     21  C   LIG    1       -2.089   2.510  -3.461  0.00  0.00    +0.100 A 
ATOM     22  O   LIG    1       -2.879   2.780  -4.537  0.00  0.00    -0.310 OA
ATOM     23  C   LIG    1       -3.471   1.558  -5.008  0.00  0.00    +0.240 C 
ATOM     24  C   LIG    1       -3.535   0.692  -3.727  0.00  0.00    +0.070 C 
ATOM     25  C   LIG    1       -2.419   1.287  -2.890  0.00  0.00    -0.170 A 
ATOM     26  C   LIG    1       -1.751   0.826  -1.778  0.00  0.00    +0.060 A 
ENDBRANCH  17  18
ENDBRANCH  16  17
ENDBRANCH   3  16
TORSDOF 5
