REMARK  Name = ZINCrg00001JduRV.0
REMARK                            x       y       z     vdW  Elec       q    Type
REMARK                         _______ _______ _______ _____ _____    ______ ____
ROOT
ATOM      1  C   LIG    1        4.211  -0.828  -1.951  0.00  0.00    +0.320 C 
ENDROOT
BRANCH   1   4
ATOM      2  N   LIG    1        2.989  -2.547  -3.243  0.00  0.00    -0.720 N 
ATOM      3  H   LIG    1        3.769  -3.117  -3.164  0.00  0.00    +0.400 HD
ATOM      4  C   LIG    1        2.993  -1.317  -2.691  0.00  0.00    +0.510 C 
ATOM      5  O   LIG    1        2.017  -0.605  -2.791  0.00  0.00    -0.530 OA
BRANCH   2   6
ATOM      6  C   LIG    1        1.805  -3.022  -3.963  0.00  0.00    +0.310 C 
BRANCH   6  10
ATOM      7  C   LIG    1        2.518  -6.973  -5.426  0.00  0.00    +0.140 A 
ATOM      8  C   LIG    1        1.964  -6.788  -4.168  0.00  0.00    -0.020 A 
ATOM      9  C   LIG    1        1.735  -5.510  -3.697  0.00  0.00    +0.070 A 
ATOM     10  C   LIG    1        2.056  -4.415  -4.479  0.00  0.00    -0.150 A 
ATOM     11  C   LIG    1        2.603  -4.598  -5.736  0.00  0.00    +0.070 A 
ATOM     12  C   LIG    1        2.840  -5.874  -6.209  0.00  0.00    -0.080 A 
BRANCH   7  14
ATOM     13  C   LIG    1        3.316  -8.345  -7.196  0.00  0.00    +0.250 C 
ATOM     14  O   LIG    1        2.744  -8.230  -5.892  0.00  0.00    -0.320 OA
ENDBRANCH   7  14
ENDBRANCH   6  10
ENDBRANCH   2   6
ENDBRANCH   1   4
BRANCH   1  15
ATOM     15  N   LIG    1        3.966   0.526  -1.449  0.00  0.00    -0.580 N 
ATOM     16  C   LIG    1        4.173   1.590  -2.251  0.00  0.00    +0.610 C 
ATOM     17  O   LIG    1        4.068   2.715  -1.807  0.00  0.00    -0.490 OA
BRANCH  16  18
ATOM     18  C   LIG    1        4.530   1.385  -3.676  0.00  0.00    -0.020 A 
ATOM     19  N   LIG    1        4.771   0.243  -4.271  0.00  0.00    -0.340 NA
ATOM     20  O   LIG    1        5.032   0.401  -5.441  0.00  0.00    +0.120 OA
ATOM     21  C   LIG    1        5.009   1.696  -5.787  0.00  0.00    +0.180 A 
ATOM     22  C   LIG    1        4.686   2.390  -4.671  0.00  0.00    +0.000 A 
ENDBRANCH  16  18
BRANCH  15  23
ATOM     23  C   LIG    1        3.496   0.725  -0.076  0.00  0.00    +0.440 C 
BRANCH  23  24
ATOM     24  C   LIG    1        1.994   0.840  -0.071  0.00  0.00    +0.150 A 
ATOM     25  N   LIG    1        1.148  -0.138   0.055  0.00  0.00    -0.360 NA
ATOM     26  O   LIG    1        0.011   0.283   0.019  0.00  0.00    +0.080 OA
ATOM     27  C   LIG    1        0.023   1.610  -0.138  0.00  0.00    +0.420 A 
ATOM     28  N   LIG    1        1.282   1.975  -0.196  0.00  0.00    -0.470 NA
ENDBRANCH  23  24
ENDBRANCH  15  23
ENDBRANCH   1  15
TORSDOF 8
