REMARK  Name = ZINCrg000000sI1m.0
REMARK                            x       y       z     vdW  Elec       q    Type
REMARK                         _______ _______ _______ _____ _____    ______ ____
ROOT
ATOM      1  N   LIG    1       -4.299   1.363   0.688  0.00  0.00    -0.680 N 
ATOM      2  H   LIG    1       -4.521   1.457   1.628  0.00  0.00    +0.430 HD
ATOM      3  C   LIG    1       -5.170   0.775  -0.155  0.00  0.00    +0.590 C 
ATOM      4  O   LIG    1       -4.892   0.658  -1.332  0.00  0.00    -0.530 OA
ENDROOT
BRANCH   3   5
ATOM      5  C   LIG    1       -6.465   0.273   0.352  0.00  0.00    -0.000 A 
ATOM      6  C   LIG    1       -7.372  -0.338  -0.522  0.00  0.00    +0.130 A 
ATOM      7  C   LIG    1       -8.571  -0.792  -0.001  0.00  0.00    +0.030 A 
ATOM      8  C   LIG    1       -8.803  -0.613   1.363  0.00  0.00    +0.270 A 
ATOM      9  N   LIG    1       -7.884  -0.022   2.120  0.00  0.00    -0.270 NA
ATOM     10  N   LIG    1       -6.769   0.395   1.639  0.00  0.00    -0.180 NA
BRANCH   8  11
ATOM     11  N   LIG    1       -9.989  -1.052   1.929  0.00  0.00    -0.450 N 
ATOM     12  C   LIG    1      -10.124  -2.526   1.806  0.00  0.00    +0.200 C 
ATOM     13  C   LIG    1      -11.163  -2.878   2.900  0.00  0.00    +0.040 C 
ATOM     14  C   LIG    1      -10.795  -1.913   4.051  0.00  0.00    +0.020 C 
ATOM     15  C   LIG    1      -10.023  -0.762   3.379  0.00  0.00    +0.210 C 
ENDBRANCH   8  11
ENDBRANCH   3   5
BRANCH   1  16
ATOM     16  C   LIG    1       -3.016   1.861   0.186  0.00  0.00    +0.450 C 
BRANCH  16  22
ATOM     17  C   LIG    1       -0.156   0.670   0.142  0.00  0.00    +0.310 C 
ATOM     18  N   LIG    1       -0.770   1.369   1.274  0.00  0.00    -0.450 N 
ATOM     19  C   LIG    1       -0.189   1.616   2.488  0.00  0.00    +0.140 A 
ATOM     20  C   LIG    1       -1.099   2.279   3.227  0.00  0.00    +0.160 A 
ATOM     21  N   LIG    1       -2.206   2.431   2.485  0.00  0.00    -0.440 NA
ATOM     22  C   LIG    1       -2.014   1.894   1.311  0.00  0.00    +0.180 A 
ENDBRANCH  16  22
BRANCH  16  23
ATOM     23  C   LIG    1       -3.197   3.252  -0.366  0.00  0.00    +0.180 A 
ATOM     24  N   LIG    1       -3.784   4.242   0.248  0.00  0.00    -0.450 NA
ATOM     25  C   LIG    1       -3.762   5.327  -0.541  0.00  0.00    +0.140 A 
ATOM     26  C   LIG    1       -3.138   4.995  -1.687  0.00  0.00    +0.130 A 
ATOM     27  N   LIG    1       -2.775   3.680  -1.575  0.00  0.00    -0.450 N 
ATOM     28  C   LIG    1       -2.064   2.886  -2.579  0.00  0.00    +0.330 C 
ENDBRANCH  16  23
ENDBRANCH   1  16
TORSDOF 5
