REMARK  Name = ZINCpe00000MJL9e.0
REMARK                            x       y       z     vdW  Elec       q    Type
REMARK                         _______ _______ _______ _____ _____    ______ ____
ROOT
ATOM      1  N   LIG    1        0.911   8.337  -1.298  0.00  0.00    -0.590 N 
ATOM      2  C   LIG    1        0.036   8.618  -0.151  0.00  0.00    +0.280 C 
ATOM      3  C   LIG    1        0.417   7.675   0.998  0.00  0.00    +0.270 C 
ATOM      4  N   LIG    1        0.482   6.303   0.476  0.00  0.00    -0.620 N 
ATOM      5  C   LIG    1        1.361   6.021  -0.667  0.00  0.00    +0.280 C 
ATOM      6  C   LIG    1       -0.246   5.319   1.041  0.00  0.00    +0.520 C 
ATOM      7  O   LIG    1       -0.106   4.172   0.672  0.00  0.00    -0.530 OA
ATOM      8  C   LIG    1        0.976   6.964  -1.819  0.00  0.00    +0.300 C 
ENDROOT
BRANCH   1  16
ATOM      9  C   LIG    1        4.197   9.012  -5.599  0.00  0.00    +0.210 C 
ATOM     10  C   LIG    1        3.908  10.155  -4.661  0.00  0.00    +0.210 A 
ATOM     11  N   LIG    1        4.381  11.374  -4.757  0.00  0.00    -0.260 NA
ATOM     12  N   LIG    1        3.935  12.101  -3.792  0.00  0.00    -0.240 NA
ATOM     13  C   LIG    1        3.145  11.368  -3.024  0.00  0.00    +0.110 A 
ATOM     14  C   LIG    1        2.402  11.633  -1.857  0.00  0.00    +0.200 A 
ATOM     15  C   LIG    1        1.668  10.635  -1.299  0.00  0.00    -0.030 A 
ATOM     16  C   LIG    1        1.663   9.352  -1.881  0.00  0.00    +0.420 A 
ATOM     17  N   LIG    1        2.354   9.104  -2.968  0.00  0.00    -0.340 NA
ATOM     18  N   LIG    1        3.115  10.109  -3.569  0.00  0.00    -0.270 N 
ENDBRANCH   1  16
BRANCH   6  19
ATOM     19  C   LIG    1       -1.235   5.644   2.130  0.00  0.00    +0.000 C 
ATOM     20  C   LIG    1       -2.161   4.479   2.342  0.00  0.00    +0.040 C 
ATOM     21  C   LIG    1       -3.579   4.908   2.783  0.00  0.00    -0.010 C 
ATOM     22  C   LIG    1       -3.528   6.059   3.810  0.00  0.00    +0.190 C 
ATOM     23  O   LIG    1       -2.507   5.891   4.752  0.00  0.00    -0.370 OA
ATOM     24  C   LIG    1       -1.317   6.632   4.410  0.00  0.00    +0.210 C 
ATOM     25  C   LIG    1       -0.483   5.917   3.449  0.00  0.00    +0.010 C 
ENDBRANCH   6  19
TORSDOF 2
