REMARK  Name = ZINCrD000000B9pN.0
REMARK                            x       y       z     vdW  Elec       q    Type
REMARK                         _______ _______ _______ _____ _____    ______ ____
ROOT
ATOM      1  C   LIG    1        3.165   0.015  -0.019  0.00  0.00    +0.110 C 
ENDROOT
BRANCH   1   2
ATOM      2  C   LIG    1        2.616   1.418  -0.006  0.00  0.00    -0.160 A 
ATOM      3  C   LIG    1        3.330   2.555  -0.012  0.00  0.00    +0.240 A 
ATOM      4  N   LIG    1        2.489   3.634   0.004  0.00  0.00    -0.590 N 
ATOM      5  H   LIG    1        2.772   4.561   0.003  0.00  0.00    +0.420 HD
ATOM      6  C   LIG    1        1.180   3.207   0.022  0.00  0.00    +0.100 A 
ATOM      7  C   LIG    1       -0.043   3.869   0.042  0.00  0.00    -0.010 A 
ATOM      8  C   LIG    1       -1.214   3.143   0.057  0.00  0.00    +0.030 A 
ATOM      9  C   LIG    1       -1.187   1.755   0.046  0.00  0.00    -0.020 A 
ATOM     10  C   LIG    1        0.003   1.085   0.031  0.00  0.00    +0.050 A 
ATOM     11  C   LIG    1        1.202   1.800   0.016  0.00  0.00    -0.100 A 
ENDBRANCH   1   2
BRANCH   1  12
ATOM     12  C   LIG    1        4.027  -0.199   1.198  0.00  0.00    -0.070 A 
ATOM     13  C   LIG    1        5.144   0.590   1.401  0.00  0.00    +0.010 A 
ATOM     14  C   LIG    1        5.933   0.397   2.519  0.00  0.00    +0.000 A 
ATOM     15  C   LIG    1        5.610  -0.590   3.431  0.00  0.00    +0.000 A 
ATOM     16  C   LIG    1        4.496  -1.383   3.226  0.00  0.00    +0.000 A 
ATOM     17  C   LIG    1        3.705  -1.187   2.109  0.00  0.00    +0.000 A 
ENDBRANCH   1  12
BRANCH   1  18
ATOM     18  C   LIG    1        4.004  -0.193  -1.281  0.00  0.00    +0.280 C 
BRANCH  18  21
ATOM     19  O   LIG    1        5.440  -1.250  -3.308  0.00  0.00    -0.460 OA
ATOM     20  C   LIG    1        5.195  -2.007  -2.389  0.00  0.00    +0.550 C 
ATOM     21  N   LIG    1        4.439  -1.590  -1.355  0.00  0.00    -0.720 N 
ATOM     22  H   LIG    1        4.182  -2.215  -0.658  0.00  0.00    +0.400 HD
BRANCH  20  23
ATOM     23  C   LIG    1        5.728  -3.387  -2.407  0.00  0.00    +0.050 C 
ATOM     24  C   LIG    1        5.354  -4.286  -1.409  0.00  0.00    +0.070 C 
ATOM     25  C   LIG    1        5.861  -5.575  -1.439  0.00  0.00    +0.070 C 
ATOM     26  C   LIG    1        6.726  -5.922  -2.466  0.00  0.00    +0.070 C 
ATOM     27  C   LIG    1        7.056  -4.980  -3.425  0.00  0.00    +0.260 C 
ATOM     28  N   LIG    1        6.556  -3.762  -3.377  0.00  0.00    -0.090 NA
ATOM     29  O   LIG    1        6.913  -2.828  -4.380  0.00  0.00    -0.490 OA
ENDBRANCH  20  23
ENDBRANCH  18  21
ENDBRANCH   1  18
TORSDOF 5
