REMARK  Name = ZINCrD000006Gv7L.0
REMARK                            x       y       z     vdW  Elec       q    Type
REMARK                         _______ _______ _______ _____ _____    ______ ____
ROOT
ATOM      1  C   LIG    1        0.553   8.076   1.244  0.00  0.00    +0.080 C 
ATOM      2  C   LIG    1        1.186   7.404   0.025  0.00  0.00    +0.260 C 
ENDROOT
BRANCH   2   3
ATOM      3  N   LIG    1        0.898   5.963   0.054  0.00  0.00    -0.520 NA
ATOM      4  C   LIG    1        1.379   5.305  -1.167  0.00  0.00    +0.180 C 
ATOM      5  C   LIG    1        0.934   3.841  -1.168  0.00  0.00    +0.050 C 
ATOM      6  C   LIG    1        1.502   3.140   0.069  0.00  0.00    +0.270 C 
ATOM      7  C   LIG    1        1.025   3.874   1.325  0.00  0.00    +0.050 C 
ATOM      8  C   LIG    1        1.467   5.337   1.254  0.00  0.00    +0.210 C 
BRANCH   6   9
ATOM      9  N   LIG    1        1.032   1.753   0.104  0.00  0.00    -0.550 N 
ATOM     10  C   LIG    1       -0.280   1.349   0.160  0.00  0.00    +0.490 A 
ATOM     11  N   LIG    1       -0.319   0.056   0.177  0.00  0.00    -0.280 NA
ATOM     12  N   LIG    1        0.998  -0.421   0.132  0.00  0.00    -0.550 N 
ATOM     13  H   LIG    1        1.273  -1.351   0.132  0.00  0.00    +0.460 HD
ATOM     14  C   LIG    1        1.813   0.654   0.087  0.00  0.00    +0.650 A 
ATOM     15  O   LIG    1        3.030   0.635   0.041  0.00  0.00    -0.560 OA
ENDBRANCH   6   9
ENDBRANCH   2   3
BRANCH   2  16
ATOM     16  C   LIG    1        0.615   8.005  -1.233  0.00  0.00    +0.170 A 
ATOM     17  N   LIG    1       -0.582   7.803  -1.708  0.00  0.00    -0.250 NA
ATOM     18  N   LIG    1       -0.733   8.475  -2.795  0.00  0.00    -0.250 NA
ATOM     19  C   LIG    1        0.374   9.128  -3.057  0.00  0.00    +0.200 A 
ATOM     20  O   LIG    1        1.249   8.842  -2.072  0.00  0.00    -0.220 OA
BRANCH  19  21
ATOM     21  C   LIG    1        0.617  10.012  -4.216  0.00  0.00    -0.010 A 
ATOM     22  C   LIG    1        1.850  10.650  -4.365  0.00  0.00    +0.090 A 
ATOM     23  C   LIG    1        2.073  11.469  -5.452  0.00  0.00    +0.040 A 
ATOM     24  C   LIG    1        1.073  11.669  -6.389  0.00  0.00    -0.000 A 
ATOM     25  C   LIG    1       -0.154  11.045  -6.245  0.00  0.00    +0.060 A 
ATOM     26 CL   LIG    1        1.360  12.708  -7.751  0.00  0.00    -0.040 Cl
ATOM     27  C   LIG    1       -0.388  10.218  -5.165  0.00  0.00    +0.010 A 
ATOM     28 CL   LIG    1       -1.927   9.434  -4.985  0.00  0.00    -0.010 Cl
ENDBRANCH  19  21
ENDBRANCH   2  16
TORSDOF 4
