REMARK  Name = ZINCkj00000GeOYo.0
REMARK                            x       y       z     vdW  Elec       q    Type
REMARK                         _______ _______ _______ _____ _____    ______ ____
ROOT
ATOM      1  C   LIG    1        2.755   5.497   0.005  0.00  0.00    +0.070 C 
ENDROOT
BRANCH   1   2
ATOM      2  C   LIG    1        4.191   6.027  -0.006  0.00  0.00    -0.320 C 
BRANCH   2   4
ATOM      3  O   LIG    1        3.657   8.339  -1.225  0.00  0.00    -0.920 OA
ATOM      4  S   LIG    1        4.166   7.841   0.004  0.00  0.00    +2.500 S 
ATOM      5  O   LIG    1        3.681   8.326   1.249  0.00  0.00    -0.920 OA
BRANCH   4   6
ATOM      6  C   LIG    1        5.866   8.304  -0.009  0.00  0.00    -0.670 A 
ATOM      7  C   LIG    1        6.543   8.484   1.182  0.00  0.00    +0.110 A 
ATOM      8  C   LIG    1        7.878   8.843   1.172  0.00  0.00    +0.000 A 
ATOM      9  C   LIG    1        8.533   9.031  -0.031  0.00  0.00    +0.080 A 
ATOM     10  C   LIG    1        7.855   8.855  -1.223  0.00  0.00    +0.000 A 
ATOM     11  C   LIG    1        6.521   8.492  -1.212  0.00  0.00    +0.110 A 
ENDBRANCH   4   6
ENDBRANCH   2   4
ENDBRANCH   1   2
BRANCH   1  12
ATOM     12  C   LIG    1        2.776   3.968  -0.003  0.00  0.00    +0.280 C 
BRANCH  12  13
ATOM     13  N   LIG    1        1.398   3.459   0.007  0.00  0.00    -0.510 N 
ATOM     14  H   LIG    1        0.925   3.785   0.837  0.00  0.00    +0.430 HD
ATOM     15  H   LIG    1        0.910   3.793  -0.810  0.00  0.00    +0.430 HD
BRANCH  13  16
ATOM     16  C   LIG    1        1.418   1.990  -0.001  0.00  0.00    +0.270 C 
BRANCH  16  17
ATOM     17  C   LIG    1       -0.018   1.461   0.010  0.00  0.00    +0.350 C 
BRANCH  17  18
ATOM     18  N   LIG    1        0.002  -0.004   0.002  0.00  0.00    -0.400 N 
ATOM     19  C   LIG    1       -0.604  -0.811   0.897  0.00  0.00    +0.240 A 
ATOM     20  C   LIG    1       -0.347  -2.091   0.540  0.00  0.00    -0.090 A 
ATOM     21  C   LIG    1        0.444  -2.065  -0.614  0.00  0.00    +0.260 A 
ATOM     22  N   LIG    1        0.649  -0.814  -0.940  0.00  0.00    -0.300 NA
ENDBRANCH  17  18
ENDBRANCH  16  17
ENDBRANCH  13  16
ENDBRANCH  12  13
ENDBRANCH   1  12
TORSDOF 8
