REMARK  Name = ZINCrH000004uLwq.0
REMARK                            x       y       z     vdW  Elec       q    Type
REMARK                         _______ _______ _______ _____ _____    ______ ____
ROOT
ATOM      1  O   LIG    1       -2.575   0.514  -6.689  0.00  0.00    -0.520 OA
ATOM      2  C   LIG    1       -3.479   1.222  -6.298  0.00  0.00    +0.530 C 
ATOM      3  N   LIG    1       -4.205   1.937  -7.181  0.00  0.00    -0.520 N 
ATOM      4  H   LIG    1       -4.928   2.503  -6.868  0.00  0.00    +0.430 HD
ENDROOT
BRANCH   2   5
ATOM      5  C   LIG    1       -3.790   1.303  -4.826  0.00  0.00    +0.020 C 
ATOM      6  C   LIG    1       -3.606   2.745  -4.300  0.00  0.00    +0.070 C 
ATOM      7  C   LIG    1       -3.029   2.563  -2.913  0.00  0.00    +0.520 C 
ATOM      8  N   LIG    1       -2.558   1.312  -2.769  0.00  0.00    -0.620 N 
ATOM      9  O   LIG    1       -2.995   3.421  -2.057  0.00  0.00    -0.520 OA
ATOM     10  C   LIG    1       -2.737   0.530  -3.998  0.00  0.00    +0.300 C 
BRANCH   8  11
ATOM     11  C   LIG    1       -1.940   0.798  -1.544  0.00  0.00    +0.260 C 
ATOM     12  C   LIG    1       -0.766   1.601  -1.235  0.00  0.00    -0.000 C 
ATOM     13  C   LIG    1       -0.013   1.086   0.008  0.00  0.00    +0.030 C 
ATOM     14  C   LIG    1       -0.725   1.575   1.240  0.00  0.00    +0.000 C 
ATOM     15  C   LIG    1       -1.741   0.547   1.779  0.00  0.00    +0.000 C 
ATOM     16  C   LIG    1       -2.550  -0.140   0.662  0.00  0.00    +0.000 C 
ATOM     17  C   LIG    1       -2.985   0.823  -0.409  0.00  0.00    +0.020 C 
ENDBRANCH   8  11
ENDBRANCH   2   5
BRANCH   3  18
ATOM     18  N   LIG    1       -3.916   1.862  -8.550  0.00  0.00    -0.540 N 
ATOM     19  H   LIG    1       -3.193   1.296  -8.862  0.00  0.00    +0.440 HD
BRANCH  18  20
ATOM     20  C   LIG    1       -4.668   2.603  -9.464  0.00  0.00    +0.260 A 
ATOM     21  C   LIG    1       -5.707   3.410  -9.018  0.00  0.00    -0.070 A 
ATOM     22  C   LIG    1       -6.446   4.145  -9.925  0.00  0.00    +0.110 A 
ATOM     23  C   LIG    1       -6.159   4.070 -11.275  0.00  0.00    -0.030 A 
ATOM     24  C   LIG    1       -5.129   3.263 -11.723  0.00  0.00    +0.120 A 
ATOM     25  C   LIG    1       -4.383   2.530 -10.822  0.00  0.00    -0.260 A 
BRANCH  25  26
ATOM     26  C   LIG    1       -3.261   1.651 -11.310  0.00  0.00    +0.510 C 
ATOM     27  F   LIG    1       -3.515   0.324 -10.947  0.00  0.00    -0.180 F 
ATOM     28  F   LIG    1       -2.056   2.069 -10.734  0.00  0.00    -0.180 F 
ATOM     29  F   LIG    1       -3.168   1.743 -12.703  0.00  0.00    -0.170 F 
ENDBRANCH  25  26
ENDBRANCH  18  20
ENDBRANCH   3  18
TORSDOF 5
