REMARK  Name = ZINCvU0000000BES.0
REMARK                            x       y       z     vdW  Elec       q    Type
REMARK                         _______ _______ _______ _____ _____    ______ ____
ROOT
ATOM      1  C   LIG    1        4.034   1.589  -0.106  0.00  0.00    +0.150 A 
ATOM      2  N   LIG    1        3.795   2.882  -0.077  0.00  0.00    -0.290 NA
ATOM      3  N   LIG    1        4.901   3.536  -0.068  0.00  0.00    -0.260 NA
ATOM      4  C   LIG    1        5.916   2.704  -0.101  0.00  0.00    +0.240 A 
ATOM      5  N   LIG    1        5.393   1.430  -0.126  0.00  0.00    -0.410 N 
ENDROOT
BRANCH   4   6
ATOM      6  C   LIG    1        7.349   3.066  -0.110  0.00  0.00    -0.030 A 
ATOM      7  C   LIG    1        7.753   4.338   0.300  0.00  0.00    +0.070 A 
ATOM      8  C   LIG    1        9.093   4.668   0.293  0.00  0.00    +0.010 A 
ATOM      9  C   LIG    1       10.033   3.745  -0.128  0.00  0.00    +0.030 A 
ATOM     10  C   LIG    1        9.639   2.485  -0.542  0.00  0.00    +0.010 A 
ATOM     11  C   LIG    1        8.303   2.140  -0.535  0.00  0.00    +0.030 A 
ENDBRANCH   4   6
BRANCH   5  12
ATOM     12  C   LIG    1        6.104   0.222  -0.164  0.00  0.00    +0.100 A 
ATOM     13  C   LIG    1        6.839  -0.187   0.940  0.00  0.00    +0.040 A 
ATOM     14  C   LIG    1        7.534  -1.380   0.902  0.00  0.00    +0.040 A 
ATOM     15  C   LIG    1        7.507  -2.161  -0.239  0.00  0.00    +0.040 A 
ATOM     16  C   LIG    1        6.780  -1.753  -1.343  0.00  0.00    +0.040 A 
ATOM     17  C   LIG    1        6.079  -0.564  -1.308  0.00  0.00    +0.030 A 
ENDBRANCH   5  12
BRANCH   1  18
ATOM     18  S   LIG    1        2.830   0.303  -0.123  0.00  0.00    +0.100 S 
BRANCH  18  19
ATOM     19  C   LIG    1        1.314   1.292  -0.080  0.00  0.00    +0.110 C 
BRANCH  19  22
ATOM     20  N   LIG    1       -1.127   0.893  -0.066  0.00  0.00    -0.670 N 
ATOM     21  H   LIG    1       -1.253   1.849   0.042  0.00  0.00    +0.420 HD
ATOM     22  C   LIG    1        0.117   0.376  -0.088  0.00  0.00    +0.540 C 
ATOM     23  O   LIG    1        0.273  -0.826  -0.120  0.00  0.00    -0.490 OA
BRANCH  20  27
ATOM     24  C   LIG    1       -4.435  -1.611  -0.461  0.00  0.00    -0.030 A 
ATOM     25  C   LIG    1       -4.504  -0.483   0.360  0.00  0.00    +0.120 A 
ATOM     26  C   LIG    1       -3.409   0.342   0.488  0.00  0.00    +0.010 A 
ATOM     27  C   LIG    1       -2.234   0.054  -0.199  0.00  0.00    +0.190 A 
ATOM     28  C   LIG    1       -2.162  -1.064  -1.022  0.00  0.00    +0.040 A 
ATOM     29  C   LIG    1       -3.252  -1.899  -1.151  0.00  0.00    +0.030 A 
ATOM     30 CL   LIG    1       -3.159  -3.299  -2.173  0.00  0.00    -0.040 Cl
BRANCH  24  32
ATOM     31  N   LIG    1       -6.474  -3.154  -0.705  0.00  0.00    -0.390 NA
ATOM     32  C   LIG    1       -5.572  -2.471  -0.597  0.00  0.00    +0.250 C 
ENDBRANCH  24  32
ENDBRANCH  20  27
ENDBRANCH  19  22
ENDBRANCH  18  19
ENDBRANCH   1  18
TORSDOF 7
