REMARK  Name = ZINCtV00000L6k25.0
REMARK                            x       y       z     vdW  Elec       q    Type
REMARK                         _______ _______ _______ _____ _____    ______ ____
ROOT
ATOM      1  C   LIG    1        0.000   1.080   2.488  0.00  0.00    +0.180 A 
ATOM      2  N   LIG    1       -0.692   0.578   3.482  0.00  0.00    -0.460 NA
ATOM      3  C   LIG    1       -0.101   0.115   4.589  0.00  0.00    +0.140 A 
ATOM      4  C   LIG    1       -0.860  -0.425   5.642  0.00  0.00    +0.070 A 
ATOM      5  C   LIG    1       -0.234  -0.884   6.760  0.00  0.00    +0.050 A 
ATOM      6  C   LIG    1        1.153  -0.830   6.879  0.00  0.00    -0.030 A 
ATOM      7  C   LIG    1        1.921  -0.313   5.877  0.00  0.00    +0.060 A 
ATOM      8 CL   LIG    1        1.914  -1.426   8.322  0.00  0.00    -0.060 Cl
ATOM      9  C   LIG    1        1.308   0.169   4.714  0.00  0.00    -0.080 A 
ATOM     10  C   LIG    1        2.070   0.714   3.649  0.00  0.00    +0.020 A 
ATOM     11  C   LIG    1        1.386   1.170   2.530  0.00  0.00    -0.010 A 
ENDROOT
BRANCH   1  18
ATOM     12  C   LIG    1       -1.490   3.616   0.036  0.00  0.00    +0.140 C 
ATOM     13  C   LIG    1       -2.925   3.086   0.047  0.00  0.00    +0.040 C 
ATOM     14  C   LIG    1       -2.904   1.556   0.038  0.00  0.00    -0.010 C 
ATOM     15  C   LIG    1       -2.188   1.063  -1.221  0.00  0.00    +0.030 C 
ATOM     16  C   LIG    1       -0.753   1.593  -1.232  0.00  0.00    +0.000 C 
ATOM     17  C   LIG    1       -0.013   1.086   0.008  0.00  0.00    +0.040 C 
ATOM     18  C   LIG    1       -0.729   1.579   1.267  0.00  0.00    -0.000 C 
ATOM     19  C   LIG    1       -2.164   1.050   1.278  0.00  0.00    +0.060 C 
ATOM     20  C   LIG    1       -0.750   3.109   1.275  0.00  0.00    +0.010 C 
ATOM     21  C   LIG    1       -0.773   3.123  -1.223  0.00  0.00    +0.000 C 
BRANCH  12  22
ATOM     22  O   LIG    1       -1.509   5.045   0.044  0.00  0.00    -0.560 OA
ATOM     23  H   LIG    1       -0.631   5.450   0.037  0.00  0.00    +0.380 HD
ENDBRANCH  12  22
ENDBRANCH   1  18
BRANCH  10  24
ATOM     24  C   LIG    1        3.547   0.794   3.729  0.00  0.00    -0.050 A 
ATOM     25  C   LIG    1        4.180   2.036   3.755  0.00  0.00    +0.040 A 
ATOM     26  C   LIG    1        5.557   2.104   3.829  0.00  0.00    +0.030 A 
ATOM     27  C   LIG    1        6.308   0.944   3.877  0.00  0.00    +0.040 A 
ATOM     28  C   LIG    1        5.687  -0.292   3.852  0.00  0.00    +0.030 A 
ATOM     29  C   LIG    1        4.310  -0.374   3.784  0.00  0.00    -0.020 A 
ATOM     30 CL   LIG    1        3.531  -1.925   3.759  0.00  0.00    -0.050 Cl
ENDBRANCH  10  24
TORSDOF 3
