REMARK  Name = ZINCpe000000Znil.0
REMARK                            x       y       z     vdW  Elec       q    Type
REMARK                         _______ _______ _______ _____ _____    ______ ____
ROOT
ATOM      1  C   LIG    1       -1.991  -2.151   4.950  0.00  0.00    +0.270 C 
ATOM      2  C   LIG    1       -0.536  -1.856   5.382  0.00  0.00    +0.010 C 
ATOM      3  C   LIG    1       -0.323  -0.360   5.084  0.00  0.00    +0.180 C 
ATOM      4  N   LIG    1       -1.598   0.161   4.545  0.00  0.00    -0.490 NA
ATOM      5  C   LIG    1       -2.292  -1.009   3.947  0.00  0.00    +0.190 C 
ENDROOT
BRANCH   1   8
ATOM      6  O   LIG    1       -2.338  -4.494   6.239  0.00  0.00    -0.570 OA
ATOM      7  C   LIG    1       -2.256  -4.572   5.028  0.00  0.00    +0.710 C 
ATOM      8  N   LIG    1       -2.082  -3.456   4.292  0.00  0.00    -0.730 N 
ATOM      9  H   LIG    1       -2.017  -3.518   3.326  0.00  0.00    +0.400 HD
ATOM     10  N   LIG    1       -2.340  -5.772   4.422  0.00  0.00    -0.690 N 
ATOM     11  H   LIG    1       -2.199  -5.844   3.465  0.00  0.00    +0.410 HD
BRANCH  10  12
ATOM     12  C   LIG    1       -2.631  -6.918   5.174  0.00  0.00    +0.160 A 
ATOM     13  C   LIG    1       -2.089  -8.144   4.812  0.00  0.00    +0.020 A 
ATOM     14  C   LIG    1       -2.372  -9.271   5.559  0.00  0.00    +0.010 A 
ATOM     15  C   LIG    1       -3.205  -9.180   6.661  0.00  0.00    +0.080 A 
ATOM     16  C   LIG    1       -3.750  -7.960   7.021  0.00  0.00    +0.010 A 
ATOM     17  F   LIG    1       -3.485 -10.285   7.387  0.00  0.00    -0.140 F 
ATOM     18  C   LIG    1       -3.465  -6.829   6.281  0.00  0.00    +0.060 A 
ENDBRANCH  10  12
ENDBRANCH   1   8
BRANCH   4  19
ATOM     19  C   LIG    1       -1.357   1.201   3.537  0.00  0.00    +0.210 C 
BRANCH  19  20
ATOM     20  C   LIG    1       -2.672   1.648   2.952  0.00  0.00    +0.520 C 
ATOM     21  N   LIG    1       -2.691   2.513   1.918  0.00  0.00    -0.620 N 
ATOM     22  C   LIG    1       -3.962   2.963   1.330  0.00  0.00    +0.260 C 
ATOM     23  C   LIG    1       -3.943   4.494   1.251  0.00  0.00    +0.220 C 
ATOM     24  O   LIG    1       -2.751   4.917   0.585  0.00  0.00    -0.380 OA
ATOM     25  C   LIG    1       -1.544   4.562   1.265  0.00  0.00    +0.220 C 
ATOM     26  C   LIG    1       -1.440   3.035   1.344  0.00  0.00    +0.240 C 
ATOM     27  O   LIG    1       -3.713   1.230   3.412  0.00  0.00    -0.520 OA
ENDBRANCH  19  20
ENDBRANCH   4  19
TORSDOF 4
