REMARK  Name = ZINCkj000005exH2.0
REMARK                            x       y       z     vdW  Elec       q    Type
REMARK                         _______ _______ _______ _____ _____    ______ ____
ROOT
ATOM      1  N   LIG    1       -0.624  -4.056  -0.973  0.00  0.00    -0.750 N 
ATOM      2  H   LIG    1        0.196  -4.470  -0.660  0.00  0.00    +0.400 HD
ATOM      3  C   LIG    1       -1.677  -4.824  -1.318  0.00  0.00    +0.710 C 
ATOM      4  N   LIG    1       -1.590  -6.166  -1.229  0.00  0.00    -0.740 N 
ATOM      5  H   LIG    1       -0.770  -6.580  -0.917  0.00  0.00    +0.400 HD
ATOM      6  O   LIG    1       -2.705  -4.306  -1.709  0.00  0.00    -0.580 OA
ENDROOT
BRANCH   1  10
ATOM      7  N   LIG    1        0.002  -0.004   0.002  0.00  0.00    -0.380 N 
ATOM      8  C   LIG    1       -1.369  -0.511   0.137  0.00  0.00    +0.260 C 
ATOM      9  C   LIG    1       -1.346  -2.039   0.212  0.00  0.00    +0.050 C 
ATOM     10  C   LIG    1       -0.719  -2.598  -1.069  0.00  0.00    +0.270 C 
ATOM     11  C   LIG    1        0.683  -2.004  -1.240  0.00  0.00    +0.060 C 
ATOM     12  C   LIG    1        0.585  -0.477  -1.259  0.00  0.00    +0.260 C 
ATOM     13  H   LIG    1        0.560  -0.336   0.774  0.00  0.00    +0.420 HD
BRANCH   7  14
ATOM     14  C   LIG    1       -0.018   1.465   0.010  0.00  0.00    +0.300 C 
BRANCH  14  16
ATOM     15  C   LIG    1        1.965   2.312  -1.135  0.00  0.00    +0.110 C 
ATOM     16  C   LIG    1        1.396   1.986  -0.001  0.00  0.00    -0.190 C 
ATOM     17  C   LIG    1        2.155   2.134   1.293  0.00  0.00    +0.090 C 
ENDBRANCH  14  16
ENDBRANCH   7  14
ENDBRANCH   1  10
BRANCH   4  18
ATOM     18  C   LIG    1       -2.735  -7.000  -1.605  0.00  0.00    +0.290 C 
BRANCH  18  19
ATOM     19  C   LIG    1       -2.375  -8.475  -1.413  0.00  0.00    -0.050 C 
ATOM     20  C   LIG    1       -3.592  -9.374  -1.728  0.00  0.00    +0.010 C 
ATOM     21  C   LIG    1       -3.117 -10.247  -2.911  0.00  0.00    +0.200 C 
ATOM     22  O   LIG    1       -1.677 -10.260  -2.805  0.00  0.00    -0.370 OA
ATOM     23  C   LIG    1       -1.307  -8.910  -2.440  0.00  0.00    +0.200 C 
ENDBRANCH  18  19
ENDBRANCH   4  18
TORSDOF 5
