REMARK  Name = ZINCrg000000sGCF.0
REMARK                            x       y       z     vdW  Elec       q    Type
REMARK                         _______ _______ _______ _____ _____    ______ ____
ROOT
ATOM      1  N   LIG    1        2.188  -6.301  -1.741  0.00  0.00    -0.720 N 
ATOM      2  H   LIG    1        2.125  -6.340  -0.774  0.00  0.00    +0.400 HD
ATOM      3  C   LIG    1        1.407  -5.448  -2.434  0.00  0.00    +0.520 C 
ATOM      4  O   LIG    1        1.486  -5.400  -3.643  0.00  0.00    -0.530 OA
ENDROOT
BRANCH   3   5
ATOM      5  C   LIG    1        0.436  -4.555  -1.706  0.00  0.00    -0.010 C 
ATOM      6  C   LIG    1       -0.321  -3.692  -2.718  0.00  0.00    +0.050 C 
ATOM      7  C   LIG    1       -1.331  -2.811  -1.978  0.00  0.00    +0.300 C 
ATOM      8  N   LIG    1       -0.622  -2.045  -0.943  0.00  0.00    -0.630 N 
ATOM      9  C   LIG    1        0.214  -2.770   0.024  0.00  0.00    +0.270 C 
ATOM     10  C   LIG    1       -0.732  -0.703  -0.886  0.00  0.00    +0.720 C 
ATOM     11  N   LIG    1       -0.247  -0.032   0.177  0.00  0.00    -0.640 N 
ATOM     12  C   LIG    1        0.006  -0.717   1.454  0.00  0.00    +0.250 C 
ATOM     13  C   LIG    1       -0.666   0.086   2.575  0.00  0.00    +0.210 C 
ATOM     14  O   LIG    1       -0.247   1.450   2.492  0.00  0.00    -0.380 OA
ATOM     15  C   LIG    1       -0.627   2.107   1.281  0.00  0.00    +0.220 C 
ATOM     16  C   LIG    1        0.046   1.408   0.095  0.00  0.00    +0.270 C 
ATOM     17  O   LIG    1       -1.268  -0.098  -1.794  0.00  0.00    -0.580 OA
ATOM     18  C   LIG    1        1.202  -3.652  -0.736  0.00  0.00    +0.030 C 
ENDBRANCH   3   5
BRANCH   1  27
ATOM     19  C   LIG    1       -0.195 -10.482  -4.243  0.00  0.00    +0.350 C 
ATOM     20  N   LIG    1        1.006  -9.886  -3.653  0.00  0.00    -0.380 N 
ATOM     21  C   LIG    1        1.216  -8.568  -3.437  0.00  0.00    +0.250 A 
ATOM     22  C   LIG    1        2.434  -8.435  -2.881  0.00  0.00    -0.260 A 
ATOM     23  C   LIG    1        2.995  -9.716  -2.751  0.00  0.00    +0.080 A 
ATOM     24  C   LIG    1        4.364  -9.971  -2.168  0.00  0.00    +0.120 C 
ATOM     25  C   LIG    1        5.136  -8.646  -2.163  0.00  0.00    +0.040 C 
ATOM     26  C   LIG    1        4.284  -7.553  -1.512  0.00  0.00    +0.020 C 
ATOM     27  C   LIG    1        3.132  -7.169  -2.449  0.00  0.00    +0.320 C 
ATOM     28  N   LIG    1        2.141 -10.583  -3.212  0.00  0.00    -0.290 NA
ENDBRANCH   1  27
TORSDOF 2
