REMARK  Name = ZINCpe000000XaXe.0
REMARK                            x       y       z     vdW  Elec       q    Type
REMARK                         _______ _______ _______ _____ _____    ______ ____
ROOT
ATOM      1  C   LIG    1       -1.216   1.676   0.047  0.00  0.00    +0.150 A 
ATOM      2  C   LIG    1       -1.209   3.063  -0.032  0.00  0.00    -0.010 A 
ATOM      3  C   LIG    1       -2.400   3.761   0.001  0.00  0.00    +0.050 A 
ATOM      4  C   LIG    1       -3.598   3.081   0.124  0.00  0.00    -0.120 A 
ATOM      5  C   LIG    1       -3.608   1.701   0.208  0.00  0.00    +0.050 A 
ATOM      6  C   LIG    1       -2.421   0.997   0.170  0.00  0.00    +0.020 A 
ENDROOT
BRANCH   4   7
ATOM      7  C   LIG    1       -4.896   3.846   0.166  0.00  0.00    +0.290 C 
ATOM      8  C   LIG    1       -5.113   4.405   1.574  0.00  0.00    +0.100 C 
ATOM      9  C   LIG    1       -6.221   5.427   1.536  0.00  0.00    +0.520 C 
ATOM     10  N   LIG    1       -6.377   6.209   0.453  0.00  0.00    -0.680 N 
ATOM     11  H   LIG    1       -7.050   6.908   0.461  0.00  0.00    +0.430 HD
ATOM     12  C   LIG    1       -5.615   6.037  -0.640  0.00  0.00    +0.710 C 
ATOM     13  O   LIG    1       -5.625   6.886  -1.510  0.00  0.00    -0.550 OA
ATOM     14  O   LIG    1       -6.971   5.544   2.482  0.00  0.00    -0.490 OA
ATOM     15  N   LIG    1       -4.844   4.949  -0.795  0.00  0.00    -0.720 N 
ATOM     16  H   LIG    1       -4.243   4.893  -1.555  0.00  0.00    +0.430 HD
ENDBRANCH   4   7
BRANCH   1  18
ATOM     17  C   LIG    1        0.042  -0.237  -0.597  0.00  0.00    +0.520 C 
ATOM     18  N   LIG    1       -0.011   0.966   0.007  0.00  0.00    -0.670 N 
ATOM     19  H   LIG    1        0.785   1.338   0.419  0.00  0.00    +0.410 HD
ATOM     20  O   LIG    1       -0.970  -0.740  -1.038  0.00  0.00    -0.510 OA
BRANCH  17  22
ATOM     21  C   LIG    1        1.936  -1.219   0.667  0.00  0.00    +0.070 C 
ATOM     22  C   LIG    1        1.359  -0.958  -0.726  0.00  0.00    -0.010 C 
BRANCH  22  23
ATOM     23  C   LIG    1        1.143  -2.291  -1.446  0.00  0.00    +0.240 C 
ATOM     24  C   LIG    1        2.488  -3.032  -1.615  0.00  0.00    +0.060 C 
ATOM     25  C   LIG    1        2.304  -3.709  -2.992  0.00  0.00    +0.050 C 
ATOM     26  C   LIG    1        1.282  -2.845  -3.697  0.00  0.00    +0.520 C 
ATOM     27  O   LIG    1        1.062  -2.861  -4.889  0.00  0.00    -0.530 OA
ATOM     28  N   LIG    1        0.648  -2.058  -2.808  0.00  0.00    -0.720 N 
ATOM     29  H   LIG    1       -0.044  -1.419  -3.037  0.00  0.00    +0.410 HD
ENDBRANCH  22  23
ENDBRANCH  17  22
ENDBRANCH   1  18
TORSDOF 4
