REMARK  Name = ZINCpk00001AZj6S.0
REMARK                            x       y       z     vdW  Elec       q    Type
REMARK                         _______ _______ _______ _____ _____    ______ ____
ROOT
ATOM      1  C   LIG    1        1.927   1.636  -1.312  0.00  0.00    +0.350 C 
ENDROOT
BRANCH   1   2
ATOM      2  C   LIG    1        1.572   0.197  -1.041  0.00  0.00    +0.050 A 
ATOM      3  N   LIG    1        0.581  -0.245  -0.310  0.00  0.00    -0.300 NA
ATOM      4  O   LIG    1        0.550  -1.461  -0.282  0.00  0.00    +0.120 OA
ATOM      5  C   LIG    1        1.539  -1.983  -0.998  0.00  0.00    -0.020 A 
ATOM      6  C   LIG    1        1.915  -3.417  -1.263  0.00  0.00    +0.140 C 
ATOM      7  C   LIG    1        2.880  -3.432  -2.459  0.00  0.00    +0.240 C 
ATOM      8  O   LIG    1        3.901  -2.450  -2.273  0.00  0.00    -0.370 OA
ATOM      9  C   LIG    1        3.447  -1.092  -2.387  0.00  0.00    +0.320 C 
ATOM     10  C   LIG    1        2.237  -0.938  -1.513  0.00  0.00    -0.240 A 
ENDBRANCH   1   2
BRANCH   1  11
ATOM     11  C   LIG    1        0.936   2.223  -2.285  0.00  0.00    +0.160 A 
ATOM     12  N   LIG    1       -0.366   2.275  -2.140  0.00  0.00    -0.250 NA
ATOM     13  N   LIG    1       -0.859   2.850  -3.182  0.00  0.00    -0.060 NA
ATOM     14  N   LIG    1        0.094   3.166  -3.988  0.00  0.00    -0.080 NA
ATOM     15  N   LIG    1        1.217   2.800  -3.467  0.00  0.00    -0.300 N 
BRANCH  15  16
ATOM     16  C   LIG    1        2.547   2.978  -4.056  0.00  0.00    +0.240 C 
ATOM     17  C   LIG    1        2.815   4.469  -4.269  0.00  0.00    +0.060 C 
ATOM     18  C   LIG    1        2.611   2.251  -5.400  0.00  0.00    +0.070 C 
ENDBRANCH  15  16
ENDBRANCH   1  11
BRANCH   1  19
ATOM     19  N   LIG    1        1.888   2.396  -0.056  0.00  0.00    -0.510 NA
BRANCH  19  20
ATOM     20  C   LIG    1        2.963   1.969   0.851  0.00  0.00    +0.240 C 
BRANCH  20  22
ATOM     21  C   LIG    1        3.647  -0.361   1.105  0.00  0.00    +0.030 C 
ATOM     22  C   LIG    1        2.719   0.546   1.284  0.00  0.00    -0.040 C 
ENDBRANCH  20  22
ENDBRANCH  19  20
BRANCH  19  23
ATOM     23  C   LIG    1        1.958   3.840  -0.311  0.00  0.00    +0.360 C 
BRANCH  23  24
ATOM     24  C   LIG    1        0.635   4.328  -0.736  0.00  0.00    +0.180 C 
ATOM     25  N   LIG    1       -0.386   4.704  -1.063  0.00  0.00    -0.380 NA
ENDBRANCH  23  24
ENDBRANCH  19  23
ENDBRANCH   1  19
TORSDOF 8
