REMARK  Name = ZINCrm000000FkFN.0
REMARK                            x       y       z     vdW  Elec       q    Type
REMARK                         _______ _______ _______ _____ _____    ______ ____
ROOT
ATOM      1  C   LIG    1       -1.374  -0.511   0.091  0.00  0.00    +0.290 C 
ENDROOT
BRANCH   1   2
ATOM      2  N   LIG    1        0.002  -0.004   0.002  0.00  0.00    -0.370 N 
ATOM      3  C   LIG    1       -0.018   1.464   0.010  0.00  0.00    +0.250 C 
ATOM      4  C   LIG    1        1.416   1.997  -0.001  0.00  0.00    +0.060 C 
ATOM      5  C   LIG    1        2.130   1.502  -1.262  0.00  0.00    -0.030 C 
ATOM      6  C   LIG    1        2.079  -0.029  -1.297  0.00  0.00    +0.070 C 
ATOM      7  C   LIG    1        0.621  -0.487  -1.238  0.00  0.00    +0.260 C 
ATOM      8  H   LIG    1        0.533  -0.337   0.793  0.00  0.00    +0.430 HD
BRANCH   5   9
ATOM      9  C   LIG    1        3.588   1.965  -1.242  0.00  0.00    +0.290 C 
BRANCH   9  10
ATOM     10  N   LIG    1        3.637   3.427  -1.329  0.00  0.00    -0.610 N 
ATOM     11  C   LIG    1        3.618   4.186  -0.085  0.00  0.00    +0.260 C 
ATOM     12  C   LIG    1        4.139   5.605  -0.316  0.00  0.00    +0.030 C 
ATOM     13  C   LIG    1        3.390   6.215  -1.507  0.00  0.00    +0.030 C 
ATOM     14  C   LIG    1        3.799   5.459  -2.774  0.00  0.00    +0.070 C 
ATOM     15  C   LIG    1        3.701   3.979  -2.541  0.00  0.00    +0.520 C 
ATOM     16  O   LIG    1        3.675   3.247  -3.508  0.00  0.00    -0.550 OA
ENDBRANCH   9  10
ENDBRANCH   5   9
ENDBRANCH   1   2
BRANCH   1  19
ATOM     17  N   LIG    1       -2.503  -2.702   0.302  0.00  0.00    -0.710 N 
ATOM     18  H   LIG    1       -3.351  -2.230   0.296  0.00  0.00    +0.420 HD
ATOM     19  C   LIG    1       -1.349  -2.014   0.207  0.00  0.00    +0.510 C 
ATOM     20  O   LIG    1       -0.289  -2.604   0.214  0.00  0.00    -0.520 OA
BRANCH  17  24
ATOM     21  N   LIG    1       -3.716  -6.705  -0.215  0.00  0.00    -0.380 N 
ATOM     22  C   LIG    1       -3.760  -6.173   1.152  0.00  0.00    +0.260 C 
ATOM     23  C   LIG    1       -3.756  -4.644   1.110  0.00  0.00    +0.060 C 
ATOM     24  C   LIG    1       -2.479  -4.162   0.414  0.00  0.00    +0.240 C 
ATOM     25  C   LIG    1       -2.406  -4.782  -0.985  0.00  0.00    +0.050 C 
ATOM     26  C   LIG    1       -2.462  -6.307  -0.864  0.00  0.00    +0.260 C 
ATOM     27  H   LIG    1       -4.496  -6.340  -0.742  0.00  0.00    +0.420 HD
BRANCH  21  29
ATOM     28  C   LIG    1       -5.112  -8.588   0.496  0.00  0.00    +0.080 C 
ATOM     29  C   LIG    1       -3.800  -8.171  -0.172  0.00  0.00    +0.160 C 
ATOM     30  C   LIG    1       -3.754  -8.726  -1.597  0.00  0.00    +0.080 C 
ENDBRANCH  21  29
ENDBRANCH  17  24
ENDBRANCH   1  19
TORSDOF 6
