REMARK  Name = ZINCnE000001TDzU.0
REMARK                            x       y       z     vdW  Elec       q    Type
REMARK                         _______ _______ _______ _____ _____    ______ ____
ROOT
ATOM      1  N   LIG    1        1.363   4.094  -1.350  0.00  0.00    -0.710 N 
ATOM      2  H   LIG    1        1.494   3.470  -2.080  0.00  0.00    +0.390 HD
ATOM      3  C   LIG    1        1.384   5.421  -1.586  0.00  0.00    +0.730 C 
ATOM      4  N   LIG    1        1.586   5.880  -2.837  0.00  0.00    -0.640 N 
ATOM      5  C   LIG    1        1.797   5.046  -4.034  0.00  0.00    +0.240 C 
ATOM      6  C   LIG    1        1.361   5.940  -5.222  0.00  0.00    +0.030 C 
ATOM      7  C   LIG    1        1.858   7.336  -4.760  0.00  0.00    +0.040 C 
ATOM      8  C   LIG    1        1.627   7.295  -3.235  0.00  0.00    +0.320 C 
ATOM      9  O   LIG    1        1.220   6.204  -0.670  0.00  0.00    -0.590 OA
ENDROOT
BRANCH   8  10
ATOM     10  C   LIG    1        2.760   7.993  -2.529  0.00  0.00    -0.180 A 
ATOM     11  C   LIG    1        2.717   9.237  -2.049  0.00  0.00    -0.010 A 
ATOM     12  C   LIG    1        3.881   9.667  -1.435  0.00  0.00    -0.010 A 
ATOM     13  C   LIG    1        4.872   8.774  -1.424  0.00  0.00    -0.070 A 
ATOM     14  S   LIG    1        4.344   7.296  -2.217  0.00  0.00    +0.150 S 
ENDBRANCH   8  10
BRANCH   1  15
ATOM     15  C   LIG    1        1.144   3.596   0.010  0.00  0.00    +0.340 C 
BRANCH  15  21
ATOM     16  C   LIG    1        2.385   1.407  -0.013  0.00  0.00    -0.120 A 
ATOM     17  C   LIG    1        2.397   0.010  -0.020  0.00  0.00    +0.040 A 
ATOM     18  C   LIG    1        1.206  -0.686  -0.013  0.00  0.00    -0.020 A 
ATOM     19  C   LIG    1        0.002  -0.004   0.002  0.00  0.00    -0.020 A 
ATOM     20  C   LIG    1       -0.017   1.380   0.010  0.00  0.00    -0.010 A 
ATOM     21  C   LIG    1        1.166   2.089   0.002  0.00  0.00    -0.080 A 
BRANCH  16  23
ATOM     22  O   LIG    1        4.721   1.558  -0.034  0.00  0.00    -0.690 OA
ATOM     23  C   LIG    1        3.655   2.158  -0.021  0.00  0.00    +0.510 C 
ATOM     24  O   LIG    1        3.642   3.381  -0.015  0.00  0.00    -0.660 OA
ENDBRANCH  16  23
ENDBRANCH  15  21
ENDBRANCH   1  15
TORSDOF 4
