REMARK  Name = ZINCqH0000036KZR.0
REMARK                            x       y       z     vdW  Elec       q    Type
REMARK                         _______ _______ _______ _____ _____    ______ ____
ROOT
ATOM      1  C   LIG    1        3.492  -2.114  -5.884  0.00  0.00    +0.080 C 
ATOM      2  C   LIG    1        4.318  -2.659  -4.718  0.00  0.00    +0.270 C 
ENDROOT
BRANCH   2   3
ATOM      3  C   LIG    1        4.267  -1.686  -3.568  0.00  0.00    +0.170 A 
ATOM      4  N   LIG    1        3.579  -1.822  -2.460  0.00  0.00    -0.470 NA
ATOM      5  C   LIG    1        3.836  -0.717  -1.736  0.00  0.00    +0.180 A 
ATOM      6  N   LIG    1        4.657   0.017  -2.426  0.00  0.00    -0.380 NA
ATOM      7  O   LIG    1        4.917  -0.521  -3.481  0.00  0.00    +0.100 OA
BRANCH   5   8
ATOM      8  C   LIG    1        3.279  -0.394  -0.374  0.00  0.00    +0.220 C 
BRANCH   8   9
ATOM      9  C   LIG    1        1.991   0.375  -0.528  0.00  0.00    -0.090 A 
ATOM     10  C   LIG    1        0.788  -0.301  -0.605  0.00  0.00    +0.030 A 
ATOM     11  C   LIG    1       -0.393   0.404  -0.745  0.00  0.00    +0.000 A 
ATOM     12  C   LIG    1       -0.370   1.785  -0.807  0.00  0.00    +0.010 A 
ATOM     13  C   LIG    1        0.833   2.461  -0.730  0.00  0.00    +0.000 A 
ATOM     14  C   LIG    1        2.014   1.756  -0.591  0.00  0.00    +0.010 A 
ENDBRANCH   8   9
ENDBRANCH   5   8
ENDBRANCH   2   3
BRANCH   2  15
ATOM     15  N   LIG    1        5.712  -2.838  -5.146  0.00  0.00    -0.670 NA
ATOM     16  H   LIG    1        6.346  -2.717  -4.371  0.00  0.00    +0.350 HD
BRANCH  15  17
ATOM     17  C   LIG    1        5.902  -4.147  -5.784  0.00  0.00    +0.150 C 
ATOM     18  C   LIG    1        6.208  -5.175  -4.706  0.00  0.00    -0.010 C 
ATOM     19  C   LIG    1        6.203  -6.589  -5.285  0.00  0.00    +0.090 C 
ATOM     20  C   LIG    1        7.560  -6.867  -5.904  0.00  0.00    -0.110 A 
ATOM     21  C   LIG    1        8.402  -7.798  -5.335  0.00  0.00    +0.030 A 
ATOM     22  C   LIG    1        9.631  -8.057  -5.918  0.00  0.00    +0.000 A 
ATOM     23  C   LIG    1       10.007  -7.385  -7.066  0.00  0.00    +0.020 A 
ATOM     24  C   LIG    1        9.165  -6.447  -7.632  0.00  0.00    +0.000 A 
ATOM     25  C   LIG    1        7.936  -6.181  -7.041  0.00  0.00    +0.100 A 
ATOM     26  O   LIG    1        7.119  -5.235  -7.580  0.00  0.00    -0.320 OA
ATOM     27  C   LIG    1        6.994  -4.024  -6.827  0.00  0.00    +0.250 C 
ENDBRANCH  15  17
ENDBRANCH   2  15
TORSDOF 5
