REMARK  Name = ZINCrH000004quIj.0
REMARK                            x       y       z     vdW  Elec       q    Type
REMARK                         _______ _______ _______ _____ _____    ______ ____
ROOT
ATOM      1  C   LIG    1       -0.139   2.320  -2.358  0.00  0.00    +0.220 C 
ENDROOT
BRANCH   1   2
ATOM      2  N   LIG    1        1.259   2.169  -2.783  0.00  0.00    -0.520 NA
ATOM      3  C   LIG    1        1.455   2.690  -4.142  0.00  0.00    +0.180 C 
ATOM      4  C   LIG    1        2.944   2.651  -4.495  0.00  0.00    +0.030 C 
ATOM      5  C   LIG    1        3.446   1.207  -4.405  0.00  0.00    +0.040 C 
ATOM      6  C   LIG    1        3.187   0.672  -2.994  0.00  0.00    +0.110 C 
ATOM      7  C   LIG    1        1.691   0.769  -2.684  0.00  0.00    +0.200 C 
BRANCH   6   8
ATOM      8  C   LIG    1        3.625  -0.767  -2.913  0.00  0.00    +0.190 A 
ATOM      9  N   LIG    1        3.170  -1.756  -3.633  0.00  0.00    -0.290 NA
ATOM     10  N   LIG    1        3.767  -2.845  -3.300  0.00  0.00    -0.290 NA
ATOM     11  C   LIG    1        4.631  -2.600  -2.353  0.00  0.00    +0.370 A 
ATOM     12  N   LIG    1        4.569  -1.274  -2.084  0.00  0.00    -0.440 N 
BRANCH  12  13
ATOM     13  C   LIG    1        5.360  -0.538  -1.095  0.00  0.00    +0.200 C 
ATOM     14  C   LIG    1        6.509  -1.283  -0.412  0.00  0.00    +0.060 C 
ATOM     15  C   LIG    1        5.234  -0.963   0.370  0.00  0.00    +0.050 C 
ENDBRANCH  12  13
ENDBRANCH   6   8
ENDBRANCH   1   2
BRANCH   1  18
ATOM     16  N   LIG    1       -1.708   4.166  -1.858  0.00  0.00    -0.690 N 
ATOM     17  H   LIG    1       -2.403   3.501  -1.734  0.00  0.00    +0.410 HD
ATOM     18  C   LIG    1       -0.472   3.785  -2.238  0.00  0.00    +0.520 C 
ATOM     19  O   LIG    1        0.372   4.621  -2.482  0.00  0.00    -0.500 OA
BRANCH  16  24
ATOM     20  C   LIG    1       -2.843   9.658  -0.992  0.00  0.00    +0.100 C 
ATOM     21  C   LIG    1       -2.542   8.199  -1.222  0.00  0.00    -0.060 A 
ATOM     22  C   LIG    1       -2.796   7.628  -2.455  0.00  0.00    +0.020 A 
ATOM     23  C   LIG    1       -2.520   6.291  -2.669  0.00  0.00    -0.060 A 
ATOM     24  C   LIG    1       -1.988   5.521  -1.644  0.00  0.00    +0.140 A 
ATOM     25  C   LIG    1       -1.738   6.096  -0.404  0.00  0.00    -0.020 A 
ATOM     26 CL   LIG    1       -1.078   5.136   0.883  0.00  0.00    -0.060 Cl
ATOM     27  C   LIG    1       -2.798   5.670  -4.013  0.00  0.00    +0.110 C 
ATOM     28  C   LIG    1       -2.011   7.435  -0.198  0.00  0.00    +0.030 A 
ENDBRANCH  16  24
ENDBRANCH   1  18
TORSDOF 5
