REMARK  Name = ZINCpk00000e9uu7.0
REMARK                            x       y       z     vdW  Elec       q    Type
REMARK                         _______ _______ _______ _____ _____    ______ ____
ROOT
ATOM      1  C   LIG    1       -4.149   1.444   3.993  0.00  0.00    +0.170 C 
ATOM      2  O   LIG    1       -5.382   1.843   4.598  0.00  0.00    -0.380 OA
ATOM      3  C   LIG    1       -5.262   2.983   5.452  0.00  0.00    +0.220 C 
ATOM      4  C   LIG    1       -4.715   4.163   4.645  0.00  0.00    +0.150 C 
ATOM      5  N   LIG    1       -3.430   3.784   4.040  0.00  0.00    -0.530 NA
ATOM      6  C   LIG    1       -3.590   2.609   3.171  0.00  0.00    +0.200 C 
ENDROOT
BRANCH   6   7
ATOM      7  C   LIG    1       -2.252   2.222   2.596  0.00  0.00    -0.240 A 
ATOM      8  C   LIG    1       -2.019   1.810   1.328  0.00  0.00    +0.230 A 
ATOM      9  N   LIG    1       -0.698   1.558   1.213  0.00  0.00    -0.370 N 
ATOM     10  N   LIG    1       -0.098   1.835   2.448  0.00  0.00    -0.300 NA
ATOM     11  C   LIG    1       -0.013   1.086   0.008  0.00  0.00    +0.360 C 
ATOM     12  C   LIG    1       -1.030   2.233   3.276  0.00  0.00    +0.260 A 
ENDBRANCH   6   7
BRANCH   5  13
ATOM     13  C   LIG    1       -2.842   4.909   3.300  0.00  0.00    +0.170 C 
ATOM     14  C   LIG    1       -2.920   6.176   4.154  0.00  0.00    +0.030 C 
ENDBRANCH   5  13
BRANCH   1  15
ATOM     15  C   LIG    1       -4.393   0.243   3.078  0.00  0.00    +0.290 C 
BRANCH  15  16
ATOM     16  N   LIG    1       -4.927  -0.871   3.865  0.00  0.00    -0.700 N 
ATOM     17  H   LIG    1       -5.070  -0.766   4.819  0.00  0.00    +0.410 HD
BRANCH  16  20
ATOM     18  C   LIG    1       -5.345  -3.462   1.307  0.00  0.00    +0.390 A 
ATOM     19  C   LIG    1       -5.027  -2.236   1.879  0.00  0.00    -0.180 A 
ATOM     20  C   LIG    1       -5.229  -2.074   3.247  0.00  0.00    +0.460 A 
ATOM     21  N   LIG    1       -5.710  -3.095   3.954  0.00  0.00    -0.600 NA
ATOM     22  C   LIG    1       -6.004  -4.240   3.373  0.00  0.00    +0.580 A 
ATOM     23  N   LIG    1       -5.827  -4.430   2.081  0.00  0.00    -0.610 NA
BRANCH  18  24
ATOM     24  O   LIG    1       -5.167  -3.667  -0.021  0.00  0.00    -0.300 OA
BRANCH  24  26
ATOM     25  C   LIG    1       -5.250  -4.998  -2.036  0.00  0.00    +0.060 C 
ATOM     26  C   LIG    1       -5.518  -4.955  -0.530  0.00  0.00    +0.210 C 
ENDBRANCH  24  26
ENDBRANCH  18  24
ENDBRANCH  16  20
ENDBRANCH  15  16
ENDBRANCH   1  15
TORSDOF 7
