REMARK  Name = ZINCpe00000FUdCz.2
REMARK                            x       y       z     vdW  Elec       q    Type
REMARK                         _______ _______ _______ _____ _____    ______ ____
ROOT
ATOM      1  N   LIG    1        3.627  -0.531  -0.036  0.00  0.00    -0.470 N 
ATOM      2  C   LIG    1        3.751  -1.466   1.091  0.00  0.00    +0.190 C 
ATOM      3  C   LIG    1        5.042  -2.277   0.937  0.00  0.00    +0.280 C 
ATOM      4  N   LIG    1        6.166  -1.342   0.779  0.00  0.00    -0.620 N 
ATOM      5  C   LIG    1        6.056  -0.287  -0.241  0.00  0.00    +0.290 C 
ATOM      6  C   LIG    1        7.268  -1.447   1.548  0.00  0.00    +0.530 C 
ATOM      7  O   LIG    1        8.185  -0.667   1.405  0.00  0.00    -0.510 OA
ATOM      8  C   LIG    1        4.725   0.446  -0.041  0.00  0.00    +0.200 C 
ENDROOT
BRANCH   1  13
ATOM      9  C   LIG    1        1.184   2.077   0.002  0.00  0.00    +0.350 A 
ATOM     10  C   LIG    1       -0.017   1.382   0.010  0.00  0.00    -0.080 A 
ATOM     11  C   LIG    1        0.002  -0.004   0.002  0.00  0.00    +0.120 A 
ATOM     12  C   LIG    1        1.227  -0.649  -0.013  0.00  0.00    -0.090 A 
ATOM     13  C   LIG    1        2.393   0.107  -0.020  0.00  0.00    +0.350 A 
ATOM     14  N   LIG    1        2.339   1.431  -0.013  0.00  0.00    -0.570 NA
BRANCH   9  15
ATOM     15  O   LIG    1        1.174   3.434   0.009  0.00  0.00    -0.310 OA
BRANCH  15  17
ATOM     16  C   LIG    1        2.231   5.607   0.011  0.00  0.00    +0.070 C 
ATOM     17  C   LIG    1        2.443   4.092   0.001  0.00  0.00    +0.200 C 
ENDBRANCH  15  17
ENDBRANCH   9  15
ENDBRANCH   1  13
BRANCH   6  18
ATOM     18  C   LIG    1        7.359  -2.535   2.587  0.00  0.00    +0.130 C 
ATOM     19  C   LIG    1        6.572  -2.134   3.859  0.00  0.00    +0.060 C 
ATOM     20  C   LIG    1        7.276  -2.989   4.946  0.00  0.00    +0.140 C 
ATOM     21  C   LIG    1        8.749  -2.991   4.487  0.00  0.00    +0.170 C 
ATOM     22  N   LIG    1        8.757  -2.695   3.043  0.00  0.00    -0.510 NA
ATOM     23  C   LIG    1        9.437  -3.759   2.291  0.00  0.00    +0.200 C 
BRANCH  20  24
ATOM     24  O   LIG    1        7.144  -2.380   6.232  0.00  0.00    -0.370 OA
ATOM     25  C   LIG    1        7.123  -3.310   7.316  0.00  0.00    +0.200 C 
ENDBRANCH  20  24
ENDBRANCH   6  18
TORSDOF 5
