REMARK  Name = ZINCpk00000eaobl.0
REMARK                            x       y       z     vdW  Elec       q    Type
REMARK                         _______ _______ _______ _____ _____    ______ ____
ROOT
ATOM      1  N   LIG    1        2.552  -4.970  -4.091  0.00  0.00    -0.680 N 
ATOM      2  H   LIG    1        2.702  -5.622  -3.388  0.00  0.00    +0.410 HD
ATOM      3  C   LIG    1        2.163  -3.719  -3.776  0.00  0.00    +0.710 C 
ATOM      4  N   LIG    1        2.075  -3.345  -2.484  0.00  0.00    -0.740 N 
ATOM      5  H   LIG    1        2.291  -3.977  -1.781  0.00  0.00    +0.400 HD
ATOM      6  O   LIG    1        1.891  -2.927  -4.658  0.00  0.00    -0.560 OA
ENDROOT
BRANCH   1   9
ATOM      7  C   LIG    1        3.890  -6.556  -7.129  0.00  0.00    +0.340 A 
ATOM      8  C   LIG    1        3.737  -6.227  -5.791  0.00  0.00    -0.080 A 
ATOM      9  C   LIG    1        2.739  -5.328  -5.426  0.00  0.00    +0.240 A 
ATOM     10  C   LIG    1        1.927  -4.797  -6.429  0.00  0.00    -0.060 A 
ATOM     11  C   LIG    1        2.144  -5.170  -7.738  0.00  0.00    +0.320 A 
ATOM     12  N   LIG    1        3.100  -6.026  -8.050  0.00  0.00    -0.550 NA
BRANCH   7  14
ATOM     13  C   LIG    1        4.966  -7.730  -8.891  0.00  0.00    +0.260 C 
ATOM     14  O   LIG    1        4.859  -7.431  -7.498  0.00  0.00    -0.310 OA
ENDBRANCH   7  14
ENDBRANCH   1   9
BRANCH   4  15
ATOM     15  C   LIG    1        1.652  -1.985  -2.142  0.00  0.00    +0.310 C 
BRANCH  15  16
ATOM     16  C   LIG    1        1.636  -1.823  -0.621  0.00  0.00    +0.170 C 
BRANCH  16  17
ATOM     17  C   LIG    1        1.201  -0.423  -0.269  0.00  0.00    +0.250 A 
ATOM     18  N   LIG    1       -0.031   0.001  -0.159  0.00  0.00    -0.320 NA
ATOM     19  N   LIG    1       -0.054   1.246   0.154  0.00  0.00    -0.030 NA
ATOM     20  N   LIG    1        1.147   1.701   0.264  0.00  0.00    -0.070 NA
ATOM     21  N   LIG    1        2.011   0.626  -0.009  0.00  0.00    -0.330 N 
BRANCH  21  22
ATOM     22  C   LIG    1        3.414   0.639  -0.010  0.00  0.00    +0.120 A 
ATOM     23  C   LIG    1        4.120  -0.396   0.588  0.00  0.00    +0.030 A 
ATOM     24  C   LIG    1        5.501  -0.383   0.580  0.00  0.00    +0.040 A 
ATOM     25  C   LIG    1        6.180   0.666  -0.012  0.00  0.00    +0.040 A 
ATOM     26  C   LIG    1        5.480   1.701  -0.604  0.00  0.00    +0.040 A 
ATOM     27  C   LIG    1        4.099   1.690  -0.604  0.00  0.00    +0.050 A 
ENDBRANCH  21  22
ENDBRANCH  16  17
ENDBRANCH  15  16
ENDBRANCH   4  15
TORSDOF 6
