REMARK  Name = ZINCvU0000000BIu.1
REMARK                            x       y       z     vdW  Elec       q    Type
REMARK                         _______ _______ _______ _____ _____    ______ ____
ROOT
ATOM      1  C   LIG    1       -1.608  11.331   0.080  0.00  0.00    +0.350 C 
ENDROOT
BRANCH   1   2
ATOM      2  C   LIG    1       -0.836  10.037   0.066  0.00  0.00    -0.110 A 
ATOM      3  C   LIG    1        0.551  10.062   0.053  0.00  0.00    +0.080 A 
ATOM      4  C   LIG    1        1.272   8.886   0.040  0.00  0.00    +0.050 A 
ATOM      5  C   LIG    1        0.609   7.669   0.039  0.00  0.00    +0.020 A 
ATOM      6  O   LIG    1        1.019   6.381   0.033  0.00  0.00    -0.210 OA
ATOM      7  C   LIG    1       -0.074   5.594   0.033  0.00  0.00    +0.300 A 
ATOM      8  N   LIG    1       -1.157   6.330   0.048  0.00  0.00    -0.470 NA
ATOM      9  C   LIG    1       -0.795   7.638   0.052  0.00  0.00    +0.030 A 
ATOM     10  C   LIG    1       -1.512   8.837   0.065  0.00  0.00    +0.110 A 
BRANCH   7  11
ATOM     11  C   LIG    1       -0.054   4.116   0.025  0.00  0.00    -0.050 A 
ATOM     12  C   LIG    1        1.163   3.432   0.009  0.00  0.00    +0.090 A 
ATOM     13  C   LIG    1        1.176   2.054   0.002  0.00  0.00    -0.010 A 
ATOM     14  C   LIG    1       -0.016   1.347   0.009  0.00  0.00    +0.130 A 
ATOM     15  C   LIG    1       -1.227   2.021   0.019  0.00  0.00    -0.010 A 
ATOM     16  F   LIG    1        0.002  -0.004   0.002  0.00  0.00    -0.130 F 
ATOM     17  C   LIG    1       -1.252   3.400   0.032  0.00  0.00    +0.120 A 
ENDBRANCH   7  11
ENDBRANCH   1   2
BRANCH   1  20
ATOM     18  O   LIG    1       -2.935  13.562   0.809  0.00  0.00    -0.520 OA
ATOM     19  C   LIG    1       -2.522  12.879   1.725  0.00  0.00    +0.600 C 
ATOM     20  N   LIG    1       -1.845  11.743   1.466  0.00  0.00    -0.700 N 
ATOM     21  H   LIG    1       -1.515  11.197   2.197  0.00  0.00    +0.420 HD
BRANCH  19  22
ATOM     22  C   LIG    1       -2.761  13.294   3.124  0.00  0.00    +0.240 A 
ATOM     23  N   LIG    1       -2.362  12.637   4.184  0.00  0.00    -0.440 NA
ATOM     24  C   LIG    1       -2.746  13.290   5.295  0.00  0.00    +0.040 A 
ATOM     25  C   LIG    1       -2.585  13.036   6.664  0.00  0.00    +0.170 A 
ATOM     26  C   LIG    1       -3.098  13.905   7.582  0.00  0.00    -0.140 A 
ATOM     27  C   LIG    1       -3.782  15.048   7.175  0.00  0.00    +0.160 A 
ATOM     28  C   LIG    1       -3.953  15.319   5.833  0.00  0.00    +0.010 A 
ATOM     29  F   LIG    1       -4.282  15.896   8.100  0.00  0.00    -0.110 F 
ATOM     30 BR   LIG    1       -2.877  13.555   9.428  0.00  0.00    -0.010 Br
ATOM     31  C   LIG    1       -3.439  14.446   4.883  0.00  0.00    +0.100 A 
ATOM     32  N   LIG    1       -3.430  14.429   3.507  0.00  0.00    -0.560 N 
ATOM     33  H   LIG    1       -3.823  15.092   2.919  0.00  0.00    +0.440 HD
ENDBRANCH  19  22
ENDBRANCH   1  20
TORSDOF 4
