REMARK  Name = ZINCrH000004sOiN.0
REMARK                            x       y       z     vdW  Elec       q    Type
REMARK                         _______ _______ _______ _____ _____    ______ ____
ROOT
ATOM      1  C   LIG    1        2.402   1.393  -0.014  0.00  0.00    +0.190 A 
ATOM      2  C   LIG    1        2.402   0.006  -0.020  0.00  0.00    -0.080 A 
ATOM      3  C   LIG    1        1.207  -0.686  -0.013  0.00  0.00    +0.080 A 
ATOM      4  C   LIG    1        0.002  -0.004   0.002  0.00  0.00    -0.040 A 
ATOM      5  C   LIG    1       -0.017   1.374   0.010  0.00  0.00    +0.080 A 
ATOM      6  C   LIG    1        1.185   2.087   0.002  0.00  0.00    -0.170 A 
ENDROOT
BRANCH   6   7
ATOM      7  C   LIG    1        1.172   3.562   0.009  0.00  0.00    +0.560 C 
ATOM      8  N   LIG    1       -0.001   4.226   0.024  0.00  0.00    -0.720 N 
ATOM      9  H   LIG    1       -0.837   3.734   0.029  0.00  0.00    +0.400 HD
ATOM     10  O   LIG    1        2.219   4.179   0.003  0.00  0.00    -0.520 OA
BRANCH   8  11
ATOM     11  C   LIG    1       -0.014   5.691   0.031  0.00  0.00    +0.250 C 
BRANCH  11  12
ATOM     12  C   LIG    1       -1.460   6.188   0.047  0.00  0.00    +0.120 C 
ATOM     13  C   LIG    1       -2.223   5.578  -1.130  0.00  0.00    +0.060 C 
BRANCH  12  14
ATOM     14  O   LIG    1       -2.085   5.799   1.272  0.00  0.00    -0.550 OA
ATOM     15  H   LIG    1       -1.653   6.151   2.063  0.00  0.00    +0.380 HD
ENDBRANCH  12  14
BRANCH  12  16
ATOM     16  C   LIG    1       -1.477   7.714  -0.070  0.00  0.00    +0.000 C 
BRANCH  16  17
ATOM     17  C   LIG    1       -2.923   8.211  -0.054  0.00  0.00    +0.030 C 
BRANCH  17  18
ATOM     18  C   LIG    1       -2.940   9.736  -0.172  0.00  0.00    -0.030 C 
ATOM     19  C   LIG    1       -2.287  10.351   1.067  0.00  0.00    +0.010 C 
ATOM     20  C   LIG    1       -4.386  10.224  -0.282  0.00  0.00    +0.000 C 
ENDBRANCH  17  18
ENDBRANCH  16  17
ENDBRANCH  12  16
ENDBRANCH  11  12
ENDBRANCH   8  11
ENDBRANCH   6   7
BRANCH   1  21
ATOM     21  O   LIG    1        3.575   2.074  -0.022  0.00  0.00    -0.270 OA
BRANCH  21  22
ATOM     22  C   LIG    1        4.776   1.299  -0.038  0.00  0.00    +0.300 C 
BRANCH  22  29
ATOM     23  C   LIG    1        6.327   2.512  -2.616  0.00  0.00    +0.160 C 
ATOM     24  C   LIG    1        6.650   2.752  -1.164  0.00  0.00    +0.040 A 
ATOM     25  N   LIG    1        7.609   3.494  -0.690  0.00  0.00    -0.360 NA
ATOM     26  O   LIG    1        7.621   3.489   0.519  0.00  0.00    +0.100 OA
ATOM     27  C   LIG    1        6.639   2.725   1.018  0.00  0.00    +0.010 A 
ATOM     28  C   LIG    1        6.340   2.477   2.474  0.00  0.00    +0.190 C 
ATOM     29  C   LIG    1        5.968   2.220  -0.045  0.00  0.00    -0.210 A 
ENDBRANCH  22  29
ENDBRANCH  21  22
ENDBRANCH   1  21
TORSDOF 10
