REMARK  Name = ZINCpe000000Un3z.0
REMARK                            x       y       z     vdW  Elec       q    Type
REMARK                         _______ _______ _______ _____ _____    ______ ____
ROOT
ATOM      1  C   LIG    1       -1.433   4.102   2.620  0.00  0.00    +0.220 C 
ATOM      2  C   LIG    1       -1.102   5.565   2.258  0.00  0.00    +0.050 C 
ATOM      3  C   LIG    1       -1.012   5.528   0.709  0.00  0.00    +0.040 C 
ATOM      4  C   LIG    1       -0.383   4.130   0.470  0.00  0.00    +0.270 C 
ATOM      5  N   LIG    1       -0.995   3.264   1.494  0.00  0.00    -0.610 N 
ATOM      6  C   LIG    1       -1.126   1.925   1.414  0.00  0.00    +0.540 C 
ATOM      7  O   LIG    1       -1.643   1.311   2.323  0.00  0.00    -0.520 OA
ENDROOT
BRANCH   1  10
ATOM      8  C   LIG    1       -0.415   3.759   6.293  0.00  0.00    +0.300 C 
ATOM      9  N   LIG    1       -1.183   4.054   5.080  0.00  0.00    -0.600 N 
ATOM     10  C   LIG    1       -0.698   3.702   3.873  0.00  0.00    +0.510 C 
ATOM     11  O   LIG    1        0.330   3.063   3.796  0.00  0.00    -0.510 OA
BRANCH   9  12
ATOM     12  C   LIG    1       -2.477   4.734   5.180  0.00  0.00    +0.250 C 
ATOM     13  C   LIG    1       -2.288   6.113   5.837  0.00  0.00    +0.080 C 
ATOM     14  C   LIG    1       -3.703   6.623   6.211  0.00  0.00    -0.300 C 
ATOM     15  S   LIG    1       -4.501   5.122   6.895  0.00  0.00    +2.400 S 
ATOM     16  O   LIG    1       -5.827   5.022   6.392  0.00  0.00    -0.930 OA
ATOM     17  O   LIG    1       -4.270   5.063   8.296  0.00  0.00    -0.930 OA
ATOM     18  C   LIG    1       -3.434   3.900   6.055  0.00  0.00    -0.320 C 
ENDBRANCH   9  12
ENDBRANCH   1  10
BRANCH   6  19
ATOM     19  C   LIG    1       -0.630   1.190   0.195  0.00  0.00    +0.110 C 
BRANCH  19  20
ATOM     20  C   LIG    1       -0.894  -0.284   0.355  0.00  0.00    -0.070 A 
ATOM     21  C   LIG    1        0.058  -1.098   0.941  0.00  0.00    +0.020 A 
ATOM     22  C   LIG    1       -0.186  -2.450   1.092  0.00  0.00    +0.000 A 
ATOM     23  C   LIG    1       -1.378  -2.991   0.648  0.00  0.00    +0.000 A 
ATOM     24  C   LIG    1       -2.328  -2.178   0.058  0.00  0.00    +0.000 A 
ATOM     25  C   LIG    1       -2.086  -0.825  -0.089  0.00  0.00    +0.010 A 
ENDBRANCH  19  20
ENDBRANCH   6  19
TORSDOF 4
