REMARK  Name = ZINCrD000000AfVp.0
REMARK                            x       y       z     vdW  Elec       q    Type
REMARK                         _______ _______ _______ _____ _____    ______ ____
ROOT
ATOM      1  O   LIG    1        2.235  -0.386   1.458  0.00  0.00    -0.530 OA
ATOM      2  C   LIG    1        1.197  -0.691   2.007  0.00  0.00    +0.530 C 
ATOM      3  N   LIG    1        0.020  -0.498   1.378  0.00  0.00    -0.580 N 
ENDROOT
BRANCH   3   4
ATOM      4  C   LIG    1       -1.237  -0.764   2.081  0.00  0.00    +0.190 C 
ATOM      5  C   LIG    1       -2.537  -0.586   1.294  0.00  0.00    +0.030 C 
ATOM      6  C   LIG    1       -2.150   0.429   2.372  0.00  0.00    +0.010 C 
ENDBRANCH   3   4
BRANCH   3   7
ATOM      7  C   LIG    1       -0.001  -0.023  -0.007  0.00  0.00    +0.340 C 
BRANCH   7   8
ATOM      8  C   LIG    1       -0.034   1.484  -0.021  0.00  0.00    -0.120 A 
ATOM      9  C   LIG    1       -1.247   2.148  -0.024  0.00  0.00    +0.050 A 
ATOM     10  C   LIG    1       -1.278   3.529  -0.030  0.00  0.00    -0.020 A 
ATOM     11  C   LIG    1       -0.095   4.248  -0.046  0.00  0.00    +0.100 A 
ATOM     12  C   LIG    1        1.119   3.582  -0.050  0.00  0.00    -0.020 A 
ATOM     13  F   LIG    1       -0.125   5.599  -0.060  0.00  0.00    -0.140 F 
ATOM     14  C   LIG    1        1.148   2.200  -0.036  0.00  0.00    +0.080 A 
ENDBRANCH   7   8
ENDBRANCH   3   7
BRANCH   2  15
ATOM     15  C   LIG    1        1.223  -1.286   3.391  0.00  0.00    +0.060 C 
BRANCH  15  16
ATOM     16  C   LIG    1        2.659  -1.282   3.921  0.00  0.00    +0.290 C 
BRANCH  16  17
ATOM     17  N   LIG    1        2.684  -1.860   5.266  0.00  0.00    -1.120 NA
ATOM     18  H   LIG    1        1.858  -1.970   5.763  0.00  0.00    +0.420 HD
BRANCH  17  19
ATOM     19  S   LIG    1        4.124  -2.327   5.940  0.00  0.00    +2.700 S 
ATOM     20  O   LIG    1        4.791  -3.108   4.959  0.00  0.00    -0.950 OA
ATOM     21  O   LIG    1        3.820  -2.807   7.242  0.00  0.00    -0.950 OA
BRANCH  19  22
ATOM     22  C   LIG    1        5.092  -0.871   6.160  0.00  0.00    -0.680 A 
ATOM     23  C   LIG    1        5.942  -0.448   5.155  0.00  0.00    +0.140 A 
ATOM     24  C   LIG    1        6.698   0.696   5.325  0.00  0.00    +0.020 A 
ATOM     25  C   LIG    1        6.614   1.411   6.506  0.00  0.00    +0.020 A 
ATOM     26  C   LIG    1        5.768   0.985   7.514  0.00  0.00    +0.020 A 
ATOM     27 CL   LIG    1        7.570   2.844   6.723  0.00  0.00    -0.050 Cl
ATOM     28  C   LIG    1        5.007  -0.157   7.340  0.00  0.00    +0.140 A 
ENDBRANCH  19  22
ENDBRANCH  17  19
ENDBRANCH  16  17
ENDBRANCH  15  16
ENDBRANCH   2  15
TORSDOF 8
