REMARK  Name = ZINCpk00000y6tHD.0
REMARK                            x       y       z     vdW  Elec       q    Type
REMARK                         _______ _______ _______ _____ _____    ______ ____
ROOT
ATOM      1  C   LIG    1        3.874   3.507  -2.168  0.00  0.00    +0.600 C 
ATOM      2  N   LIG    1        2.881   2.690  -1.764  0.00  0.00    -0.600 N 
ATOM      3  C   LIG    1        2.760   1.230  -1.984  0.00  0.00    +0.280 C 
ATOM      4  C   LIG    1        2.201   0.678  -0.656  0.00  0.00    +0.010 C 
ATOM      5  C   LIG    1        1.076  -0.331  -0.973  0.00  0.00    +0.210 C 
ATOM      6  N   LIG    1        0.002  -0.004   0.002  0.00  0.00    -0.450 N 
ATOM      7  C   LIG    1       -0.018   1.483   0.010  0.00  0.00    +0.220 C 
ATOM      8  C   LIG    1        1.473   1.886  -0.002  0.00  0.00    -0.080 C 
ATOM      9  C   LIG    1        2.004   2.206   1.397  0.00  0.00    +0.060 C 
ATOM     10  C   LIG    1        1.665   3.047  -0.999  0.00  0.00    +0.280 C 
ATOM     11  O   LIG    1        3.828   4.693  -1.907  0.00  0.00    -0.520 OA
ENDROOT
BRANCH   1  16
ATOM     12  C   LIG    1        8.280   1.464  -5.087  0.00  0.00    +0.160 C 
ATOM     13  C   LIG    1        7.115   2.022  -4.311  0.00  0.00    +0.110 A 
ATOM     14  C   LIG    1        6.094   1.179  -3.896  0.00  0.00    +0.230 A 
ATOM     15  N   LIG    1        5.072   1.662  -3.217  0.00  0.00    -0.410 NA
ATOM     16  C   LIG    1        5.021   2.960  -2.930  0.00  0.00    +0.020 A 
ATOM     17  C   LIG    1        6.046   3.805  -3.354  0.00  0.00    +0.300 A 
ATOM     18  N   LIG    1        7.068   3.312  -4.029  0.00  0.00    -0.440 NA
ENDBRANCH   1  16
BRANCH   6  19
ATOM     19  C   LIG    1       -1.217  -0.515  -0.412  0.00  0.00    +0.350 A 
ATOM     20  C   LIG    1       -1.416  -1.894  -0.499  0.00  0.00    -0.080 A 
ATOM     21  C   LIG    1       -2.651  -2.354  -0.913  0.00  0.00    +0.190 A 
ATOM     22  N   LIG    1       -3.597  -1.478  -1.221  0.00  0.00    -0.540 NA
ATOM     23  C   LIG    1       -3.376  -0.182  -1.134  0.00  0.00    +0.520 A 
ATOM     24  C   LIG    1       -2.918  -3.833  -1.017  0.00  0.00    +0.140 C 
ATOM     25  N   LIG    1       -2.216   0.301  -0.739  0.00  0.00    -0.560 NA
ENDBRANCH   6  19
TORSDOF 2
