REMARK  Name = ZINCrH000004tt3T.0
REMARK                            x       y       z     vdW  Elec       q    Type
REMARK                         _______ _______ _______ _____ _____    ______ ____
ROOT
ATOM      1  N   LIG    1        3.634   3.518  -0.013  0.00  0.00    -0.670 N 
ATOM      2  H   LIG    1        2.784   3.983   0.047  0.00  0.00    +0.410 HD
ATOM      3  C   LIG    1        3.659   2.182  -0.192  0.00  0.00    +0.560 C 
ATOM      4  O   LIG    1        4.719   1.612  -0.364  0.00  0.00    -0.490 OA
ENDROOT
BRANCH   1   8
ATOM      5  C   LIG    1        7.200   5.648   0.280  0.00  0.00    -0.160 A 
ATOM      6  C   LIG    1        6.081   6.235  -0.317  0.00  0.00    +0.110 A 
ATOM      7  C   LIG    1        4.903   5.528  -0.412  0.00  0.00    -0.030 A 
ATOM      8  C   LIG    1        4.827   4.231   0.085  0.00  0.00    +0.180 A 
ATOM      9  C   LIG    1        5.938   3.645   0.684  0.00  0.00    +0.010 A 
ATOM     10  C   LIG    1        7.120   4.345   0.778  0.00  0.00    +0.070 A 
BRANCH   5  14
ATOM     11  N   LIG    1        9.542   5.835   0.960  0.00  0.00    -0.850 N 
ATOM     12  H   LIG    1       10.373   6.332   1.028  0.00  0.00    +0.410 HD
ATOM     13  H   LIG    1        9.488   4.931   1.305  0.00  0.00    +0.400 HD
ATOM     14  C   LIG    1        8.464   6.403   0.384  0.00  0.00    +0.570 C 
ATOM     15  O   LIG    1        8.532   7.537  -0.049  0.00  0.00    -0.540 OA
ENDBRANCH   5  14
ENDBRANCH   1   8
BRANCH   3  16
ATOM     16  C   LIG    1        2.401   1.412  -0.179  0.00  0.00    -0.180 A 
ATOM     17  C   LIG    1        1.181   2.063   0.018  0.00  0.00    +0.080 A 
ATOM     18  C   LIG    1        0.009   1.338   0.030  0.00  0.00    -0.040 A 
ATOM     19  C   LIG    1        0.035  -0.035  -0.154  0.00  0.00    +0.090 A 
ATOM     20  C   LIG    1        1.234  -0.691  -0.351  0.00  0.00    -0.080 A 
ATOM     21  C   LIG    1        2.423   0.023  -0.365  0.00  0.00    +0.190 A 
BRANCH  21  22
ATOM     22  O   LIG    1        3.602  -0.621  -0.558  0.00  0.00    -0.270 OA
BRANCH  22  23
ATOM     23  C   LIG    1        3.546  -2.037  -0.740  0.00  0.00    +0.260 C 
BRANCH  23  24
ATOM     24  C   LIG    1        4.940  -2.573  -0.938  0.00  0.00    -0.110 A 
ATOM     25  C   LIG    1        5.469  -2.668  -2.212  0.00  0.00    +0.070 A 
ATOM     26  C   LIG    1        6.750  -3.155  -2.394  0.00  0.00    -0.020 A 
ATOM     27  C   LIG    1        7.498  -3.558  -1.302  0.00  0.00    +0.110 A 
ATOM     28  C   LIG    1        6.966  -3.468  -0.027  0.00  0.00    -0.020 A 
ATOM     29  F   LIG    1        8.748  -4.040  -1.479  0.00  0.00    -0.140 F 
ATOM     30  C   LIG    1        5.687  -2.975   0.154  0.00  0.00    +0.070 A 
ENDBRANCH  23  24
ENDBRANCH  22  23
ENDBRANCH  21  22
ENDBRANCH   3  16
TORSDOF 6
