REMARK  Name = ZINCvU0000000701.0
REMARK                            x       y       z     vdW  Elec       q    Type
REMARK                         _______ _______ _______ _____ _____    ______ ____
ROOT
ATOM      1  C   LIG    1       -0.508   3.395  -1.658  0.00  0.00    +0.360 A 
ATOM      2  N   LIG    1       -1.616   4.097  -1.501  0.00  0.00    -0.530 NA
ATOM      3  C   LIG    1       -1.619   5.415  -1.637  0.00  0.00    +0.400 A 
ATOM      4  C   LIG    1       -0.407   6.073  -1.970  0.00  0.00    -0.150 A 
ATOM      5  C   LIG    1        0.735   5.282  -2.130  0.00  0.00    +0.090 A 
ATOM      6  S   LIG    1        2.107   6.303  -2.535  0.00  0.00    +0.160 S 
ATOM      7  C   LIG    1        1.127   7.756  -2.482  0.00  0.00    -0.180 A 
ATOM      8  C   LIG    1        1.653   9.144  -2.744  0.00  0.00    +0.150 C 
ATOM      9  C   LIG    1       -0.127   7.480  -2.182  0.00  0.00    -0.060 A 
ATOM     10  C   LIG    1       -1.188   8.545  -2.069  0.00  0.00    +0.130 C 
ATOM     11  N   LIG    1        0.638   3.957  -1.965  0.00  0.00    -0.490 NA
ENDROOT
BRANCH   3  12
ATOM     12  N   LIG    1       -2.786   6.137  -1.465  0.00  0.00    -0.480 N 
ATOM     13  C   LIG    1       -3.544   6.220  -2.720  0.00  0.00    +0.200 C 
ATOM     14  C   LIG    1       -4.749   7.143  -2.530  0.00  0.00    +0.060 C 
ATOM     15  C   LIG    1       -5.637   6.592  -1.411  0.00  0.00    -0.030 C 
ATOM     16  C   LIG    1       -4.811   6.471  -0.128  0.00  0.00    +0.060 C 
ATOM     17  C   LIG    1       -3.604   5.566  -0.387  0.00  0.00    +0.200 C 
BRANCH  15  18
ATOM     18  C   LIG    1       -6.794   7.529  -1.178  0.00  0.00    +0.400 C 
ATOM     19  O   LIG    1       -6.689   8.435  -0.379  0.00  0.00    -0.440 OA
BRANCH  18  20
ATOM     20  C   LIG    1       -8.051   7.345  -1.921  0.00  0.00    -0.170 A 
ATOM     21  C   LIG    1       -8.174   6.304  -2.848  0.00  0.00    +0.060 A 
ATOM     22  C   LIG    1       -9.356   6.136  -3.536  0.00  0.00    +0.000 A 
ATOM     23  C   LIG    1      -10.417   6.998  -3.320  0.00  0.00    +0.040 A 
ATOM     24  C   LIG    1      -10.301   8.033  -2.408  0.00  0.00    +0.000 A 
ATOM     25  C   LIG    1       -9.127   8.212  -1.708  0.00  0.00    +0.070 A 
ENDBRANCH  18  20
ENDBRANCH  15  18
ENDBRANCH   3  12
BRANCH   1  26
ATOM     26  C   LIG    1       -0.563   1.899  -1.485  0.00  0.00    +0.290 C 
BRANCH  26  27
ATOM     27  N   LIG    1       -0.298   1.559  -0.081  0.00  0.00    -0.530 NA
BRANCH  27  29
ATOM     28  C   LIG    1       -0.588  -0.095   1.702  0.00  0.00    +0.030 C 
ATOM     29  C   LIG    1       -0.637   0.156   0.194  0.00  0.00    +0.170 C 
ENDBRANCH  27  29
BRANCH  27  30
ATOM     30  C   LIG    1        1.099   1.842   0.275  0.00  0.00    +0.200 C 
ATOM     31  C   LIG    1        2.028   0.985  -0.587  0.00  0.00    -0.010 C 
ENDBRANCH  27  30
ENDBRANCH  26  27
ENDBRANCH   1  26
TORSDOF 7
