REMARK  Name = ZINCrH00000No500.0
REMARK                            x       y       z     vdW  Elec       q    Type
REMARK                         _______ _______ _______ _____ _____    ______ ____
ROOT
ATOM      1  C   LIG    1        4.815   2.666   0.359  0.00  0.00    +0.290 C 
ATOM      2  C   LIG    1        4.962   4.182   0.595  0.00  0.00    +0.030 C 
ATOM      3  C   LIG    1        3.540   4.783   0.349  0.00  0.00    +0.060 C 
ATOM      4  C   LIG    1        2.646   3.594   0.636  0.00  0.00    -0.030 C 
ATOM      5  C   LIG    1        1.282   3.393   0.002  0.00  0.00    +0.280 C 
ATOM      6  N   LIG    1        1.143   1.903   0.001  0.00  0.00    -0.620 N 
ATOM      7  C   LIG    1        2.516   1.317  -0.015  0.00  0.00    +0.280 C 
ATOM      8  C   LIG    1       -0.014   1.214   0.009  0.00  0.00    +0.580 C 
ATOM      9  O   LIG    1        0.002  -0.004   0.002  0.00  0.00    -0.550 OA
ATOM     10  C   LIG    1        3.429   2.492  -0.179  0.00  0.00    -0.040 C 
ENDROOT
BRANCH   1  12
ATOM     11  C   LIG    1        6.188   1.542   2.030  0.00  0.00    +0.650 C 
ATOM     12  N   LIG    1        4.967   1.949   1.628  0.00  0.00    -0.710 N 
ATOM     13  H   LIG    1        4.190   1.767   2.179  0.00  0.00    +0.400 HD
ATOM     14  O   LIG    1        7.162   1.769   1.340  0.00  0.00    -0.560 OA
BRANCH  11  15
ATOM     15  O   LIG    1        6.327   0.883   3.195  0.00  0.00    -0.370 OA
BRANCH  15  17
ATOM     16  C   LIG    1        8.566   1.710   3.681  0.00  0.00    +0.040 C 
ATOM     17  C   LIG    1        7.671   0.474   3.565  0.00  0.00    +0.140 C 
ATOM     18  C   LIG    1        8.232  -0.463   2.493  0.00  0.00    +0.040 C 
ATOM     19  C   LIG    1        7.631  -0.255   4.909  0.00  0.00    +0.080 C 
ENDBRANCH  15  17
ENDBRANCH  11  15
ENDBRANCH   1  12
BRANCH   8  20
ATOM     20  C   LIG    1       -1.247   1.903   0.018  0.00  0.00    -0.070 C 
ATOM     21  C   LIG    1       -2.408   1.212   0.020  0.00  0.00    +0.080 C 
BRANCH  21  22
ATOM     22  S   LIG    1       -3.946   2.072   0.032  0.00  0.00    -0.070 S 
BRANCH  22  23
ATOM     23  C   LIG    1       -5.090   0.670   0.030  0.00  0.00    +0.190 C 
BRANCH  23  24
ATOM     24  C   LIG    1       -6.509   1.179   0.039  0.00  0.00    -0.020 A 
ATOM     25  C   LIG    1       -7.254   1.451  -1.047  0.00  0.00    -0.030 A 
ATOM     26  C   LIG    1       -8.511   1.900  -0.579  0.00  0.00    -0.070 A 
ATOM     27  C   LIG    1       -8.458   1.876   0.765  0.00  0.00    +0.190 A 
ATOM     28  O   LIG    1       -7.245   1.433   1.134  0.00  0.00    -0.170 OA
ENDBRANCH  23  24
ENDBRANCH  22  23
ENDBRANCH  21  22
ENDBRANCH   8  20
TORSDOF 7
