REMARK  Name = ZINCrH00000No4Mc.0
REMARK                            x       y       z     vdW  Elec       q    Type
REMARK                         _______ _______ _______ _____ _____    ______ ____
ROOT
ATOM      1  N   LIG    1       -3.665   1.688   0.154  0.00  0.00    -0.600 N 
ATOM      2  C   LIG    1       -2.682   1.097   0.862  0.00  0.00    +0.560 C 
ATOM      3  O   LIG    1       -2.682  -0.109   1.012  0.00  0.00    -0.490 OA
ENDROOT
BRANCH   2   4
ATOM      4  C   LIG    1       -1.603   1.917   1.457  0.00  0.00    -0.070 A 
ATOM      5  C   LIG    1       -1.070   1.572   2.701  0.00  0.00    +0.070 A 
ATOM      6  C   LIG    1       -0.062   2.330   3.253  0.00  0.00    +0.130 A 
ATOM      7  C   LIG    1        0.425   3.451   2.569  0.00  0.00    +0.020 A 
ATOM      8  C   LIG    1       -0.114   3.798   1.324  0.00  0.00    +0.090 A 
ATOM      9  C   LIG    1       -1.122   3.037   0.775  0.00  0.00    +0.010 A 
BRANCH   7  10
ATOM     10  N   LIG    1        1.422   4.202   3.114  0.00  0.00    -0.070 NA
ATOM     11  N   LIG    1        1.870   5.234   2.483  0.00  0.00    -0.310 NA
BRANCH  11  12
ATOM     12  C   LIG    1        2.857   5.978   3.022  0.00  0.00    +0.650 C 
ATOM     13  O   LIG    1        3.324   5.676   4.103  0.00  0.00    -0.550 OA
ATOM     14  N   LIG    1        3.325   7.056   2.363  0.00  0.00    -0.820 N 
ATOM     15  H   LIG    1        4.035   7.591   2.751  0.00  0.00    +0.420 HD
ATOM     16  H   LIG    1        2.952   7.297   1.500  0.00  0.00    +0.410 HD
ENDBRANCH  11  12
ENDBRANCH   7  10
ENDBRANCH   2   4
BRANCH   1  17
ATOM     17  C   LIG    1       -4.806   0.898  -0.315  0.00  0.00    +0.320 C 
BRANCH  17  18
ATOM     18  C   LIG    1       -5.847   0.792   0.801  0.00  0.00    +0.100 C 
ATOM     19  C   LIG    1       -6.319   2.194   1.194  0.00  0.00    +0.020 C 
BRANCH  18  21
ATOM     20  C   LIG    1       -6.578  -1.445  -0.035  0.00  0.00    +0.020 C 
ATOM     21  C   LIG    1       -7.041  -0.028   0.309  0.00  0.00    -0.010 C 
ENDBRANCH  18  21
BRANCH  18  22
ATOM     22  O   LIG    1       -5.263   0.151   1.937  0.00  0.00    -0.360 OA
ATOM     23  C   LIG    1       -6.157   0.002   3.043  0.00  0.00    +0.180 C 
ENDBRANCH  18  22
ENDBRANCH  17  18
ENDBRANCH   1  17
BRANCH   1  24
ATOM     24  C   LIG    1       -3.593   3.120  -0.145  0.00  0.00    +0.370 C 
BRANCH  24  25
ATOM     25  C   LIG    1       -3.370   3.314  -1.623  0.00  0.00    -0.200 A 
ATOM     26  C   LIG    1       -4.313   3.434  -2.584  0.00  0.00    -0.020 A 
ATOM     27  C   LIG    1       -3.820   3.605  -3.859  0.00  0.00    +0.280 A 
ATOM     28  N   LIG    1       -2.526   3.622  -3.992  0.00  0.00    -0.450 NA
ATOM     29  S   LIG    1       -1.862   3.420  -2.444  0.00  0.00    +0.260 S 
ENDBRANCH  24  25
ENDBRANCH   1  24
TORSDOF 9
