REMARK  Name = ZINCtV000002soVX.0
REMARK                            x       y       z     vdW  Elec       q    Type
REMARK                         _______ _______ _______ _____ _____    ______ ____
ROOT
ATOM      1  C   LIG    1       -0.738   1.564   1.244  0.00  0.00    +0.260 C 
ENDROOT
BRANCH   1   2
ATOM      2  C   LIG    1        0.125   1.224   2.432  0.00  0.00    +0.490 C 
ATOM      3  N   LIG    1        0.416  -0.063   2.708  0.00  0.00    -0.630 N 
ATOM      4  H   LIG    1        0.069  -0.770   2.142  0.00  0.00    +0.430 HD
ATOM      5  O   LIG    1        0.558   2.109   3.139  0.00  0.00    -0.440 OA
BRANCH   3   6
ATOM      6  C   LIG    1        1.209  -0.375   3.800  0.00  0.00    +0.340 A 
ATOM      7  N   LIG    1        1.722   0.488   4.607  0.00  0.00    -0.470 NA
ATOM      8  C   LIG    1        2.470   0.029   5.629  0.00  0.00    +0.120 A 
ATOM      9  C   LIG    1        3.130   0.761   6.639  0.00  0.00    +0.090 A 
ATOM     10  C   LIG    1        3.859   0.113   7.604  0.00  0.00    +0.080 A 
ATOM     11  C   LIG    1        3.961  -1.271   7.602  0.00  0.00    -0.080 A 
ATOM     12  C   LIG    1        3.325  -2.006   6.625  0.00  0.00    +0.110 A 
ATOM     13 BR   LIG    1        4.970  -2.147   8.940  0.00  0.00    -0.030 Br
ATOM     14  C   LIG    1        2.581  -1.365   5.639  0.00  0.00    -0.180 A 
ATOM     15  S   LIG    1        1.666  -2.005   4.275  0.00  0.00    +0.080 S 
ENDBRANCH   3   6
ENDBRANCH   1   2
BRANCH   1  17
ATOM     16  C   LIG    1        1.276   1.755  -0.222  0.00  0.00    +0.030 C 
ATOM     17  C   LIG    1       -0.070   1.053  -0.034  0.00  0.00    -0.010 C 
ATOM     18  C   LIG    1       -0.972   1.351  -1.234  0.00  0.00    +0.040 C 
ENDBRANCH   1  17
BRANCH   1  19
ATOM     19  N   LIG    1       -0.905   3.017   1.161  0.00  0.00    -0.710 N 
ATOM     20  H   LIG    1       -0.338   3.537   0.571  0.00  0.00    +0.410 HD
BRANCH  19  21
ATOM     21  C   LIG    1       -1.881   3.653   1.933  0.00  0.00    +0.260 A 
ATOM     22  C   LIG    1       -2.764   2.902   2.696  0.00  0.00    -0.050 A 
ATOM     23  C   LIG    1       -3.727   3.534   3.458  0.00  0.00    +0.130 A 
ATOM     24  C   LIG    1       -3.813   4.914   3.462  0.00  0.00    -0.230 A 
ATOM     25  C   LIG    1       -2.936   5.667   2.702  0.00  0.00    +0.140 A 
ATOM     26  C   LIG    1       -1.966   5.041   1.942  0.00  0.00    -0.110 A 
ATOM     27 CL   LIG    1       -0.861   5.986   0.994  0.00  0.00    -0.050 Cl
BRANCH  24  28
ATOM     28  C   LIG    1       -4.865   5.600   4.295  0.00  0.00    +0.520 C 
ATOM     29  F   LIG    1       -5.987   4.771   4.404  0.00  0.00    -0.180 F 
ATOM     30  F   LIG    1       -5.232   6.803   3.683  0.00  0.00    -0.180 F 
ATOM     31  F   LIG    1       -4.353   5.862   5.570  0.00  0.00    -0.180 F 
ENDBRANCH  24  28
ENDBRANCH  19  21
ENDBRANCH   1  19
TORSDOF 6
