REMARK  Name = ZINCrg000000ngEi.0
REMARK                            x       y       z     vdW  Elec       q    Type
REMARK                         _______ _______ _______ _____ _____    ______ ____
ROOT
ATOM      1  C   LIG    1        0.377  -1.935   2.945  0.00  0.00    +0.510 C 
ATOM      2  N   LIG    1        0.176  -3.117   3.561  0.00  0.00    -0.730 N 
ATOM      3  H   LIG    1        0.249  -3.944   3.060  0.00  0.00    +0.400 HD
ATOM      4  O   LIG    1        0.287  -0.901   3.572  0.00  0.00    -0.520 OA
ENDROOT
BRANCH   2   5
ATOM      5  C   LIG    1       -0.151  -3.152   4.989  0.00  0.00    +0.240 C 
ATOM      6  C   LIG    1        1.140  -3.109   5.809  0.00  0.00    +0.020 C 
ATOM      7  C   LIG    1        0.796  -3.133   7.301  0.00  0.00    +0.060 C 
ATOM      8  C   LIG    1        0.010  -4.400   7.624  0.00  0.00    +0.120 C 
ATOM      9  N   LIG    1       -0.304  -4.458   9.057  0.00  0.00    -0.720 N 
ATOM     10  H   LIG    1       -0.838  -3.825   9.561  0.00  0.00    +0.440 HD
ATOM     11  C   LIG    1        0.296  -5.566   9.534  0.00  0.00    +0.700 C 
ATOM     12  N   LIG    1        0.962  -6.234   8.584  0.00  0.00    -0.680 N 
ATOM     13  H   LIG    1        1.455  -7.055   8.739  0.00  0.00    +0.430 HD
ATOM     14  O   LIG    1        0.240  -5.919  10.695  0.00  0.00    -0.540 OA
ATOM     15  C   LIG    1       -1.267  -4.469   6.795  0.00  0.00    +0.060 C 
ATOM     16  C   LIG    1        0.862  -5.625   7.384  0.00  0.00    +0.530 C 
ATOM     17  O   LIG    1        1.352  -5.984   6.335  0.00  0.00    -0.450 OA
ATOM     18  C   LIG    1       -0.915  -4.439   5.305  0.00  0.00    +0.030 C 
ENDBRANCH   2   5
BRANCH   1  19
ATOM     19  C   LIG    1        0.714  -1.899   1.477  0.00  0.00    +0.240 C 
BRANCH  19  20
ATOM     20  N   LIG    1        0.883  -0.508   1.048  0.00  0.00    -0.590 N 
ATOM     21  C   LIG    1        0.002  -0.004   0.002  0.00  0.00    +0.250 C 
ATOM     22  C   LIG    1       -0.019   1.525   0.010  0.00  0.00    +0.020 C 
ATOM     23  C   LIG    1        1.427   2.036  -0.001  0.00  0.00    +0.030 C 
ATOM     24  C   LIG    1        2.081   1.666   1.333  0.00  0.00    +0.070 C 
ATOM     25  C   LIG    1        1.833   0.217   1.640  0.00  0.00    +0.530 C 
ATOM     26  O   LIG    1        2.533  -0.322   2.470  0.00  0.00    -0.540 OA
ENDBRANCH  19  20
BRANCH  19  27
ATOM     27  C   LIG    1        2.014  -2.669   1.232  0.00  0.00    +0.040 C 
BRANCH  27  29
ATOM     28  C   LIG    1        3.650  -3.398  -0.509  0.00  0.00    +0.020 C 
ATOM     29  C   LIG    1        2.290  -2.739  -0.271  0.00  0.00    -0.020 C 
ATOM     30  C   LIG    1        1.197  -3.564  -0.953  0.00  0.00    +0.020 C 
ENDBRANCH  27  29
ENDBRANCH  19  27
ENDBRANCH   1  19
TORSDOF 5
