REMARK  Name = ZINCrH000004kZ3n.0
REMARK                            x       y       z     vdW  Elec       q    Type
REMARK                         _______ _______ _______ _____ _____    ______ ____
ROOT
ATOM      1  C   LIG    1        1.796  -1.806  -0.025  0.00  0.00    +0.320 C 
ENDROOT
BRANCH   1   2
ATOM      2  C   LIG    1        1.292  -0.386  -0.012  0.00  0.00    -0.030 A 
ATOM      3  C   LIG    1        0.002  -0.004   0.002  0.00  0.00    +0.200 A 
ATOM      4  O   LIG    1       -0.016   1.344   0.009  0.00  0.00    -0.190 OA
ATOM      5  C   LIG    1        1.259   1.770  -0.001  0.00  0.00    +0.250 A 
ATOM      6  N   LIG    1        2.049   0.722  -0.014  0.00  0.00    -0.470 NA
BRANCH   5   7
ATOM      7  C   LIG    1        1.697   3.181   0.003  0.00  0.00    -0.060 A 
ATOM      8  C   LIG    1        3.059   3.491  -0.004  0.00  0.00    +0.110 A 
ATOM      9  C   LIG    1        3.464   4.808  -0.007  0.00  0.00    -0.070 A 
ATOM     10  C   LIG    1        2.519   5.827   0.008  0.00  0.00    +0.150 A 
ATOM     11  C   LIG    1        1.164   5.523   0.020  0.00  0.00    -0.010 A 
ATOM     12  C   LIG    1        0.751   4.208   0.017  0.00  0.00    +0.090 A 
BRANCH  10  13
ATOM     13  O   LIG    1        2.922   7.124   0.011  0.00  0.00    -0.310 OA
ATOM     14  C   LIG    1        4.331   7.366  -0.001  0.00  0.00    +0.240 C 
ENDBRANCH  10  13
ENDBRANCH   5   7
ENDBRANCH   1   2
BRANCH   1  15
ATOM     15  O   LIG    1        0.686  -2.706  -0.021  0.00  0.00    -0.280 OA
BRANCH  15  21
ATOM     16  C   LIG    1       -0.071  -4.975  -0.027  0.00  0.00    -0.200 A 
ATOM     17  C   LIG    1        0.230  -6.341  -0.038  0.00  0.00    +0.170 A 
ATOM     18  C   LIG    1        1.542  -6.755  -0.054  0.00  0.00    -0.120 A 
ATOM     19  C   LIG    1        2.572  -5.819  -0.058  0.00  0.00    +0.210 A 
ATOM     20  C   LIG    1        2.285  -4.462  -0.052  0.00  0.00    -0.110 A 
ATOM     21  C   LIG    1        0.969  -4.033  -0.031  0.00  0.00    +0.240 A 
BRANCH  16  22
ATOM     22  C   LIG    1       -1.473  -4.528  -0.011  0.00  0.00    +0.510 C 
ATOM     23  O   LIG    1       -1.732  -3.341  -0.002  0.00  0.00    -0.500 OA
BRANCH  22  25
ATOM     24  C   LIG    1       -3.828  -4.922   0.009  0.00  0.00    +0.260 C 
ATOM     25  O   LIG    1       -2.470  -5.435  -0.007  0.00  0.00    -0.360 OA
ENDBRANCH  22  25
ENDBRANCH  16  22
BRANCH  19  26
ATOM     26  O   LIG    1        3.863  -6.237  -0.074  0.00  0.00    -0.310 OA
ATOM     27  C   LIG    1        4.089  -7.648  -0.086  0.00  0.00    +0.250 C 
ENDBRANCH  19  26
ENDBRANCH  15  21
ENDBRANCH   1  15
TORSDOF 8
