REMARK  Name = ZINCqH0000000slq.0
REMARK                            x       y       z     vdW  Elec       q    Type
REMARK                         _______ _______ _______ _____ _____    ______ ____
ROOT
ATOM      1  C   LIG    1        7.704   0.557   1.975  0.00  0.00    +0.120 A 
ATOM      2  C   LIG    1        8.075   0.396   0.692  0.00  0.00    -0.090 A 
ATOM      3  S   LIG    1        6.628   0.468  -0.312  0.00  0.00    +0.210 S 
ATOM      4  C   LIG    1        5.643   0.724   1.124  0.00  0.00    +0.270 A 
ATOM      5  N   LIG    1        6.405   0.729   2.174  0.00  0.00    -0.490 NA
ENDROOT
BRANCH   1   9
ATOM      6  C   LIG    1       10.509   0.516   5.175  0.00  0.00    +0.180 A 
ATOM      7  C   LIG    1        9.157   0.700   5.438  0.00  0.00    +0.010 A 
ATOM      8  C   LIG    1        8.246   0.714   4.402  0.00  0.00    +0.110 A 
ATOM      9  C   LIG    1        8.682   0.543   3.090  0.00  0.00    -0.070 A 
ATOM     10  C   LIG    1       10.040   0.351   2.827  0.00  0.00    +0.140 A 
ATOM     11  F   LIG    1       10.465   0.179   1.557  0.00  0.00    -0.130 F 
ATOM     12  C   LIG    1       10.948   0.345   3.867  0.00  0.00    -0.040 A 
BRANCH   6  15
ATOM     13  C   LIG    1       12.023   0.097   8.595  0.00  0.00    +0.110 C 
ATOM     14  C   LIG    1       11.074   0.004   7.428  0.00  0.00    +0.510 C 
ATOM     15  N   LIG    1       11.430   0.502   6.228  0.00  0.00    -0.680 N 
ATOM     16  H   LIG    1       12.325   0.852   6.094  0.00  0.00    +0.420 HD
ATOM     17  O   LIG    1        9.989  -0.519   7.570  0.00  0.00    -0.520 OA
ENDBRANCH   6  15
ENDBRANCH   1   9
BRANCH   4  18
ATOM     18  N   LIG    1        4.264   0.888   1.133  0.00  0.00    -0.610 N 
ATOM     19  H   LIG    1        3.796   1.020   1.972  0.00  0.00    +0.430 HD
ATOM     20  C   LIG    1        3.575   0.864  -0.025  0.00  0.00    +0.610 C 
ATOM     21  O   LIG    1        4.161   0.698  -1.078  0.00  0.00    -0.480 OA
BRANCH  20  22
ATOM     22  C   LIG    1        2.112   1.038  -0.016  0.00  0.00    -0.270 A 
ATOM     23  C   LIG    1        1.135   0.077   0.086  0.00  0.00    +0.040 A 
ATOM     24  O   LIG    1       -0.033   0.723   0.049  0.00  0.00    +0.100 OA
ATOM     25  N   LIG    1        0.090   1.918  -0.059  0.00  0.00    -0.350 NA
ATOM     26  C   LIG    1        1.342  -1.410   0.215  0.00  0.00    +0.210 C 
ATOM     27  C   LIG    1        1.336   2.284  -0.114  0.00  0.00    +0.070 A 
ATOM     28  C   LIG    1        1.872   3.686  -0.248  0.00  0.00    +0.180 C 
ENDBRANCH  20  22
ENDBRANCH   4  18
TORSDOF 4
