REMARK  Name = ZINCkj00000GeRJx.0
REMARK                            x       y       z     vdW  Elec       q    Type
REMARK                         _______ _______ _______ _____ _____    ______ ____
ROOT
ATOM      1  C   LIG    1        1.769   5.459  -1.340  0.00  0.00    +0.140 C 
ATOM      2  C   LIG    1        2.696   6.692  -1.341  0.00  0.00    +0.090 C 
ATOM      3  C   LIG    1        2.144   7.545  -2.513  0.00  0.00    +0.080 C 
ATOM      4  C   LIG    1        0.622   7.275  -2.406  0.00  0.00    +0.260 C 
ATOM      5  N   LIG    1        0.517   5.854  -2.013  0.00  0.00    -0.390 N 
ATOM      6  H   LIG    1        0.380   5.284  -2.834  0.00  0.00    +0.430 HD
ENDROOT
BRANCH   1   7
ATOM      7  C   LIG    1        1.473   5.031   0.099  0.00  0.00    +0.340 C 
BRANCH   7  14
ATOM      8  C   LIG    1        2.471   2.102   0.279  0.00  0.00    +0.160 C 
ATOM      9  C   LIG    1        3.160   3.324   0.829  0.00  0.00    +0.080 A 
ATOM     10  C   LIG    1        4.339   3.344   1.492  0.00  0.00    -0.090 A 
ATOM     11  C   LIG    1        4.620   4.672   1.831  0.00  0.00    +0.100 A 
ATOM     12  N   LIG    1        3.648   5.423   1.380  0.00  0.00    -0.290 NA
ATOM     13  C   LIG    1        5.835   5.155   2.580  0.00  0.00    +0.160 C 
ATOM     14  N   LIG    1        2.714   4.595   0.744  0.00  0.00    -0.390 N 
ENDBRANCH   7  14
ENDBRANCH   1   7
BRANCH   5  15
ATOM     15  C   LIG    1       -0.615   5.677  -1.094  0.00  0.00    +0.260 C 
BRANCH  15  16
ATOM     16  C   LIG    1       -1.921   5.992  -1.828  0.00  0.00    +0.070 C 
BRANCH  16  17
ATOM     17  C   LIG    1       -3.107   5.686  -0.911  0.00  0.00    -0.340 C 
BRANCH  17  18
ATOM     18  S   LIG    1       -4.655   5.919  -1.827  0.00  0.00    +2.430 S 
ATOM     19  O   LIG    1       -4.720   4.947  -2.862  0.00  0.00    -0.930 OA
ATOM     20  O   LIG    1       -4.781   7.295  -2.159  0.00  0.00    -0.930 OA
ATOM     21  C   LIG    1       -5.899   5.511  -0.572  0.00  0.00    -0.250 C 
ENDBRANCH  17  18
ENDBRANCH  16  17
ENDBRANCH  15  16
ENDBRANCH   5  15
TORSDOF 6
