REMARK  Name = ZINCkj00000GeRJx.1
REMARK                            x       y       z     vdW  Elec       q    Type
REMARK                         _______ _______ _______ _____ _____    ______ ____
ROOT
ATOM      1  C   LIG    1       -2.265   1.531   0.720  0.00  0.00    +0.150 C 
ATOM      2  C   LIG    1       -0.801   1.617   1.234  0.00  0.00    +0.100 C 
ATOM      3  C   LIG    1       -0.013   1.086   0.008  0.00  0.00    +0.080 C 
ATOM      4  C   LIG    1       -0.820   1.627  -1.191  0.00  0.00    +0.250 C 
ATOM      5  N   LIG    1       -2.187   1.900  -0.709  0.00  0.00    -0.390 N 
ATOM      6  H   LIG    1       -2.394   2.882  -0.816  0.00  0.00    +0.430 HD
ENDROOT
BRANCH   1   7
ATOM      7  C   LIG    1       -3.156   2.518   1.477  0.00  0.00    +0.380 C 
BRANCH   7  14
ATOM      8  C   LIG    1       -5.328   0.617   2.608  0.00  0.00    +0.150 C 
ATOM      9  C   LIG    1       -5.486   1.589   1.467  0.00  0.00    +0.090 A 
ATOM     10  C   LIG    1       -6.611   1.793   0.743  0.00  0.00    -0.100 A 
ATOM     11  C   LIG    1       -6.334   2.774  -0.215  0.00  0.00    +0.100 A 
ATOM     12  N   LIG    1       -5.089   3.149  -0.068  0.00  0.00    -0.320 NA
ATOM     13  C   LIG    1       -7.304   3.311  -1.236  0.00  0.00    +0.170 C 
ATOM     14  N   LIG    1       -4.531   2.411   0.984  0.00  0.00    -0.410 N 
ENDBRANCH   7  14
ENDBRANCH   1   7
BRANCH   5  15
ATOM     15  C   LIG    1       -3.151   1.103  -1.479  0.00  0.00    +0.260 C 
BRANCH  15  16
ATOM     16  C   LIG    1       -3.165   1.584  -2.932  0.00  0.00    +0.070 C 
BRANCH  16  17
ATOM     17  C   LIG    1       -4.169   0.754  -3.734  0.00  0.00    -0.340 C 
BRANCH  17  18
ATOM     18  S   LIG    1       -4.186   1.324  -5.456  0.00  0.00    +2.420 S 
ATOM     19  O   LIG    1       -2.920   1.046  -6.037  0.00  0.00    -0.930 OA
ATOM     20  O   LIG    1       -4.688   2.653  -5.488  0.00  0.00    -0.930 OA
ATOM     21  C   LIG    1       -5.419   0.223  -6.203  0.00  0.00    -0.250 C 
ENDBRANCH  17  18
ENDBRANCH  16  17
ENDBRANCH  15  16
ENDBRANCH   5  15
TORSDOF 6
