REMARK  Name = ZINCpe000000TZ5t.0
REMARK                            x       y       z     vdW  Elec       q    Type
REMARK                         _______ _______ _______ _____ _____    ______ ____
ROOT
ATOM      1  N   LIG    1       -1.083   3.576   0.027  0.00  0.00    -0.720 N 
ATOM      2  H   LIG    1       -0.199   3.977   0.025  0.00  0.00    +0.400 HD
ATOM      3  C   LIG    1       -1.215   2.235   0.020  0.00  0.00    +0.600 C 
ATOM      4  O   LIG    1       -2.322   1.734   0.023  0.00  0.00    -0.540 OA
ENDROOT
BRANCH   1   8
ATOM      5  N   LIG    1       -3.744   6.744  -0.659  0.00  0.00    -1.000 NA
ATOM      6  C   LIG    1       -3.178   6.663   0.695  0.00  0.00    +0.300 C 
ATOM      7  C   LIG    1       -1.923   5.786   0.653  0.00  0.00    +0.020 C 
ATOM      8  C   LIG    1       -2.273   4.430   0.037  0.00  0.00    +0.250 C 
ATOM      9  C   LIG    1       -2.768   4.632  -1.397  0.00  0.00    +0.000 C 
ATOM     10  C   LIG    1       -4.033   5.496  -1.379  0.00  0.00    +0.300 C 
BRANCH   5  11
ATOM     11  S   LIG    1       -4.049   8.212  -1.360  0.00  0.00    +2.610 S 
ATOM     12  O   LIG    1       -4.254   9.090  -0.262  0.00  0.00    -0.950 OA
ATOM     13  O   LIG    1       -5.090   7.947  -2.290  0.00  0.00    -0.950 OA
BRANCH  11  15
ATOM     14  C   LIG    1       -2.668   9.981  -2.925  0.00  0.00    +0.070 C 
ATOM     15  C   LIG    1       -2.511   8.628  -2.228  0.00  0.00    -0.370 C 
ENDBRANCH  11  15
ENDBRANCH   5  11
ENDBRANCH   1   8
BRANCH   3  16
ATOM     16  C   LIG    1       -0.017   1.377   0.010  0.00  0.00    -0.280 A 
ATOM     17  C   LIG    1        0.002  -0.004   0.002  0.00  0.00    +0.330 A 
ATOM     18  N   LIG    1        1.291  -0.388  -0.012  0.00  0.00    -0.310 N 
ATOM     19  N   LIG    1        2.095   0.757  -0.014  0.00  0.00    -0.290 NA
ATOM     20  C   LIG    1        1.328   1.812  -0.001  0.00  0.00    +0.290 A 
BRANCH  18  21
ATOM     21  C   LIG    1        1.752  -1.712  -0.024  0.00  0.00    +0.100 A 
ATOM     22  C   LIG    1        3.117  -1.986  -0.039  0.00  0.00    +0.080 A 
ATOM     23  C   LIG    1        3.523  -3.310  -0.050  0.00  0.00    +0.000 A 
ATOM     24  C   LIG    1        2.567  -4.309  -0.046  0.00  0.00    +0.270 A 
ATOM     25  N   LIG    1        1.281  -4.017  -0.032  0.00  0.00    -0.460 NA
ATOM     26  C   LIG    1        0.853  -2.771  -0.016  0.00  0.00    +0.250 A 
ENDBRANCH  18  21
ENDBRANCH   3  16
TORSDOF 5
