REMARK  Name = ZINCpk00000KfL7e.2
REMARK                            x       y       z     vdW  Elec       q    Type
REMARK                         _______ _______ _______ _____ _____    ______ ____
ROOT
ATOM      1  N   LIG    1       -5.371   4.395   1.338  0.00  0.00    -0.520 NA
ATOM      2  C   LIG    1       -4.536   5.399   2.021  0.00  0.00    +0.180 C 
ATOM      3  C   LIG    1       -5.485   6.484   2.573  0.00  0.00    +0.030 C 
ATOM      4  C   LIG    1       -6.845   5.743   2.665  0.00  0.00    +0.140 C 
ATOM      5  C   LIG    1       -6.784   4.821   1.422  0.00  0.00    +0.190 C 
ENDROOT
BRANCH   4   6
ATOM      6  N   LIG    1       -7.966   6.688   2.565  0.00  0.00    -0.530 NA
ATOM      7  C   LIG    1       -7.900   7.698   3.629  0.00  0.00    +0.200 C 
BRANCH   6   8
ATOM      8  C   LIG    1       -9.254   5.981   2.588  0.00  0.00    +0.320 C 
BRANCH   8   9
ATOM      9  C   LIG    1      -10.361   6.942   2.239  0.00  0.00    +0.180 A 
ATOM     10  N   LIG    1      -11.042   7.667   3.075  0.00  0.00    -0.380 NA
ATOM     11  O   LIG    1      -11.859   8.338   2.481  0.00  0.00    +0.080 OA
ATOM     12  C   LIG    1      -11.780   8.091   1.170  0.00  0.00    +0.180 A 
ATOM     13  C   LIG    1      -12.623   8.713   0.087  0.00  0.00    +0.250 C 
ATOM     14  N   LIG    1      -10.829   7.203   1.006  0.00  0.00    -0.470 NA
ENDBRANCH   8   9
ENDBRANCH   6   8
ENDBRANCH   4   6
BRANCH   1  15
ATOM     15  C   LIG    1       -4.954   4.227  -0.061  0.00  0.00    +0.220 C 
BRANCH  15  19
ATOM     16  C   LIG    1       -1.141   2.297  -0.191  0.00  0.00    -0.140 A 
ATOM     17  C   LIG    1       -1.220   3.689  -0.131  0.00  0.00    +0.030 A 
ATOM     18  C   LIG    1       -2.453   4.306  -0.094  0.00  0.00    +0.010 A 
ATOM     19  C   LIG    1       -3.610   3.547  -0.107  0.00  0.00    -0.050 A 
ATOM     20  C   LIG    1       -3.538   2.166  -0.161  0.00  0.00    +0.030 A 
ATOM     21  C   LIG    1       -2.311   1.537  -0.203  0.00  0.00    +0.080 A 
BRANCH  16  25
ATOM     22  C   LIG    1        2.613   1.705  -0.279  0.00  0.00    +0.290 C 
ATOM     23  N   LIG    1        1.307   2.366  -0.229  0.00  0.00    -0.730 N 
ATOM     24  H   LIG    1        1.254   3.334  -0.192  0.00  0.00    +0.400 HD
ATOM     25  C   LIG    1        0.178   1.629  -0.235  0.00  0.00    +0.560 C 
ATOM     26  O   LIG    1        0.244   0.417  -0.283  0.00  0.00    -0.530 OA
ENDBRANCH  16  25
ENDBRANCH  15  19
ENDBRANCH   1  15
TORSDOF 6
