REMARK  Name = ZINCrm000000PYAj.2
REMARK                            x       y       z     vdW  Elec       q    Type
REMARK                         _______ _______ _______ _____ _____    ______ ____
ROOT
ATOM      1  O   LIG    1        1.226   3.974  -1.107  0.00  0.00    -0.510 OA
ATOM      2  C   LIG    1        1.911   3.117  -0.584  0.00  0.00    +0.600 C 
ATOM      3  N   LIG    1        3.084   3.450  -0.009  0.00  0.00    -0.690 N 
ATOM      4  H   LIG    1        3.600   2.779   0.465  0.00  0.00    +0.410 HD
ENDROOT
BRANCH   2   5
ATOM      5  C   LIG    1        1.460   1.714  -0.577  0.00  0.00    -0.290 A 
ATOM      6  C   LIG    1        2.129   0.640  -0.025  0.00  0.00    +0.310 A 
ATOM      7  N   LIG    1        1.378  -0.453  -0.236  0.00  0.00    -0.430 N 
ATOM      8  H   LIG    1        1.599  -1.355   0.044  0.00  0.00    +0.460 HD
ATOM      9  N   LIG    1        0.223  -0.072  -0.928  0.00  0.00    -0.270 NA
ATOM     10  C   LIG    1        0.262   1.216  -1.136  0.00  0.00    +0.130 A 
BRANCH  10  11
ATOM     11  C   LIG    1       -0.786   2.028  -1.853  0.00  0.00    +0.110 C 
ATOM     12  C   LIG    1       -0.956   1.524  -3.301  0.00  0.00    +0.080 C 
ATOM     13  C   LIG    1       -2.426   1.059  -3.394  0.00  0.00    +0.280 C 
ATOM     14  N   LIG    1       -3.126   1.819  -2.327  0.00  0.00    -0.520 N 
ATOM     15  H   LIG    1       -3.982   1.352  -2.064  0.00  0.00    +0.440 HD
ATOM     16  H   LIG    1       -3.318   2.761  -2.632  0.00  0.00    +0.440 HD
ATOM     17  C   LIG    1       -2.166   1.826  -1.193  0.00  0.00    +0.280 C 
ENDBRANCH  10  11
ENDBRANCH   2   5
BRANCH   3  18
ATOM     18  C   LIG    1        3.558   4.763  -0.097  0.00  0.00    +0.170 A 
ATOM     19  C   LIG    1        2.666   5.827  -0.083  0.00  0.00    +0.040 A 
ATOM     20  C   LIG    1        3.138   7.123  -0.164  0.00  0.00    +0.080 A 
ATOM     21  C   LIG    1        4.495   7.360  -0.270  0.00  0.00    +0.020 A 
ATOM     22  C   LIG    1        5.386   6.303  -0.291  0.00  0.00    +0.070 A 
ATOM     23  C   LIG    1        4.922   5.005  -0.204  0.00  0.00    -0.180 A 
BRANCH  23  24
ATOM     24  C   LIG    1        5.893   3.853  -0.227  0.00  0.00    +0.320 C 
BRANCH  24  25
ATOM     25  N   LIG    1        5.928   3.268  -1.574  0.00  0.00    -0.390 N 
ATOM     26  C   LIG    1        6.232   4.319  -2.554  0.00  0.00    +0.260 C 
ATOM     27  C   LIG    1        6.190   3.732  -3.966  0.00  0.00    +0.030 C 
ATOM     28  C   LIG    1        7.228   2.612  -4.078  0.00  0.00    +0.180 C 
ATOM     29  C   LIG    1        6.947   1.558  -3.003  0.00  0.00    +0.070 C 
ATOM     30  C   LIG    1        6.960   2.226  -1.626  0.00  0.00    +0.270 C 
ATOM     31  H   LIG    1        5.030   2.862  -1.787  0.00  0.00    +0.420 HD
BRANCH  28  32
ATOM     32  O   LIG    1        7.144   2.009  -5.371  0.00  0.00    -0.550 OA
ATOM     33  H   LIG    1        7.311   2.620  -6.101  0.00  0.00    +0.400 HD
ENDBRANCH  28  32
ENDBRANCH  24  25
ENDBRANCH  23  24
ENDBRANCH   3  18
TORSDOF 6
