REMARK  Name = ZINCrm000000PYAj.0
REMARK                            x       y       z     vdW  Elec       q    Type
REMARK                         _______ _______ _______ _____ _____    ______ ____
ROOT
ATOM      1  O   LIG    1       -2.153   1.986  -1.095  0.00  0.00    -0.520 OA
ATOM      2  C   LIG    1       -1.127   2.366  -0.563  0.00  0.00    +0.600 C 
ATOM      3  N   LIG    1       -1.082   3.576   0.027  0.00  0.00    -0.680 N 
ATOM      4  H   LIG    1       -0.286   3.853   0.507  0.00  0.00    +0.410 HD
ENDROOT
BRANCH   2   5
ATOM      5  C   LIG    1        0.068   1.502  -0.565  0.00  0.00    -0.280 A 
ATOM      6  C   LIG    1        0.170   0.245  -1.127  0.00  0.00    +0.160 A 
ATOM      7  N   LIG    1        1.421  -0.191  -0.912  0.00  0.00    -0.450 N 
ATOM      8  H   LIG    1        1.780  -1.046  -1.197  0.00  0.00    +0.450 HD
ATOM      9  N   LIG    1        2.120   0.796  -0.209  0.00  0.00    -0.250 NA
ATOM     10  C   LIG    1        1.325   1.808   0.003  0.00  0.00    +0.280 A 
BRANCH   6  11
ATOM     11  C   LIG    1       -0.923  -0.501  -1.848  0.00  0.00    +0.100 C 
ATOM     12  C   LIG    1       -0.497  -0.806  -3.298  0.00  0.00    +0.080 C 
ATOM     13  C   LIG    1       -0.501  -2.347  -3.402  0.00  0.00    +0.280 C 
ATOM     14  N   LIG    1       -1.436  -2.791  -2.336  0.00  0.00    -0.520 N 
ATOM     15  H   LIG    1       -1.251  -3.750  -2.081  0.00  0.00    +0.440 HD
ATOM     16  H   LIG    1       -2.393  -2.685  -2.640  0.00  0.00    +0.440 HD
ATOM     17  C   LIG    1       -1.149  -1.883  -1.197  0.00  0.00    +0.280 C 
ENDBRANCH   6  11
ENDBRANCH   2   5
BRANCH   3  18
ATOM     18  C   LIG    1       -2.184   4.434  -0.053  0.00  0.00    +0.170 A 
ATOM     19  C   LIG    1       -3.472   3.915  -0.049  0.00  0.00    +0.040 A 
ATOM     20  C   LIG    1       -4.558   4.766  -0.122  0.00  0.00    +0.070 A 
ATOM     21  C   LIG    1       -4.363   6.132  -0.210  0.00  0.00    +0.020 A 
ATOM     22  C   LIG    1       -3.082   6.652  -0.221  0.00  0.00    +0.070 A 
ATOM     23  C   LIG    1       -1.992   5.807  -0.142  0.00  0.00    -0.180 A 
BRANCH  23  24
ATOM     24  C   LIG    1       -0.596   6.375  -0.152  0.00  0.00    +0.320 C 
BRANCH  24  25
ATOM     25  N   LIG    1       -0.025   6.245  -1.499  0.00  0.00    -0.380 N 
ATOM     26  C   LIG    1       -0.926   6.870  -2.474  0.00  0.00    +0.260 C 
ATOM     27  C   LIG    1       -0.376   6.667  -3.887  0.00  0.00    +0.030 C 
ATOM     28  C   LIG    1        1.011   7.309  -3.987  0.00  0.00    +0.180 C 
ATOM     29  C   LIG    1        1.922   6.702  -2.916  0.00  0.00    +0.070 C 
ATOM     30  C   LIG    1        1.286   6.904  -1.539  0.00  0.00    +0.270 C 
ATOM     31  H   LIG    1        0.085   5.267  -1.724  0.00  0.00    +0.420 HD
BRANCH  28  32
ATOM     32  O   LIG    1        1.562   7.059  -5.281  0.00  0.00    -0.550 OA
ATOM     33  H   LIG    1        1.035   7.417  -6.009  0.00  0.00    +0.400 HD
ENDBRANCH  28  32
ENDBRANCH  24  25
ENDBRANCH  23  24
ENDBRANCH   3  18
TORSDOF 6
