REMARK  Name = ZINCpk00000kO461.0
REMARK                            x       y       z     vdW  Elec       q    Type
REMARK                         _______ _______ _______ _____ _____    ______ ____
ROOT
ATOM      1  C   LIG    1       -4.319   1.781  -1.147  0.00  0.00    -0.050 A 
ATOM      2  C   LIG    1       -3.204   2.541  -1.252  0.00  0.00    +0.170 A 
ATOM      3  N   LIG    1       -2.157   1.689  -1.168  0.00  0.00    -0.290 N 
ATOM      4  N   LIG    1       -2.618   0.497  -1.014  0.00  0.00    -0.070 NA
ATOM      5  N   LIG    1       -3.904   0.518  -0.998  0.00  0.00    -0.250 NA
ENDROOT
BRANCH   1   6
ATOM      6  C   LIG    1       -5.746   2.262  -1.185  0.00  0.00    +0.460 C 
BRANCH   6  10
ATOM      7  C   LIG    1       -7.750   0.967  -5.597  0.00  0.00    +0.190 C 
ATOM      8  C   LIG    1       -7.344   0.985  -4.146  0.00  0.00    +0.220 A 
ATOM      9  N   LIG    1       -6.620   1.910  -3.571  0.00  0.00    -0.320 NA
ATOM     10  N   LIG    1       -6.479   1.536  -2.225  0.00  0.00    -0.380 N 
ATOM     11  C   LIG    1       -7.155   0.384  -2.079  0.00  0.00    +0.300 A 
ATOM     12  C   LIG    1       -7.297  -0.404  -0.802  0.00  0.00    +0.200 C 
ATOM     13  N   LIG    1       -7.669   0.065  -3.239  0.00  0.00    -0.540 NA
ENDBRANCH   6  10
ENDBRANCH   1   6
BRANCH   3  14
ATOM     14  C   LIG    1       -0.741   2.060  -1.234  0.00  0.00    +0.330 C 
BRANCH  14  15
ATOM     15  C   LIG    1       -0.019   1.538   0.011  0.00  0.00    -0.020 C 
ATOM     16  C   LIG    1        0.002  -0.004   0.002  0.00  0.00    +0.040 C 
ATOM     17  C   LIG    1        1.389  -0.368   0.588  0.00  0.00    +0.010 C 
ATOM     18  C   LIG    1        2.312   0.719  -0.016  0.00  0.00    +0.020 C 
ATOM     19  C   LIG    1        1.450   1.998  -0.001  0.00  0.00    +0.250 C 
BRANCH  19  20
ATOM     20  N   LIG    1        1.716   2.797  -1.200  0.00  0.00    -0.740 N 
ATOM     21  H   LIG    1        1.172   2.676  -1.994  0.00  0.00    +0.400 HD
ATOM     22  C   LIG    1        2.717   3.700  -1.199  0.00  0.00    +0.520 C 
ATOM     23  O   LIG    1        3.397   3.851  -0.207  0.00  0.00    -0.530 OA
BRANCH  22  24
ATOM     24  C   LIG    1        2.991   4.521  -2.433  0.00  0.00    -0.020 C 
ATOM     25  C   LIG    1        4.169   5.461  -2.168  0.00  0.00    +0.050 C 
ATOM     26  C   LIG    1        1.750   5.345  -2.783  0.00  0.00    +0.030 C 
ENDBRANCH  22  24
ENDBRANCH  19  20
ENDBRANCH  14  15
ENDBRANCH   3  14
TORSDOF 6
