REMARK  Name = ZINCrg00000SjSFM.0
REMARK                            x       y       z     vdW  Elec       q    Type
REMARK                         _______ _______ _______ _____ _____    ______ ____
ROOT
ATOM      1  O   LIG    1        0.083   7.769  -3.337  0.00  0.00    -0.510 OA
ATOM      2  C   LIG    1        0.244   8.450  -2.342  0.00  0.00    +0.590 C 
ATOM      3  N   LIG    1       -0.267   8.049  -1.161  0.00  0.00    -0.700 N 
ATOM      4  H   LIG    1       -0.138   8.591  -0.368  0.00  0.00    +0.410 HD
ENDROOT
BRANCH   2   5
ATOM      5  C   LIG    1        0.997   9.714  -2.429  0.00  0.00    +0.330 C 
ATOM      6  N   LIG    1        1.169  10.451  -1.366  0.00  0.00    -0.280 NA
ATOM      7  N   LIG    1        1.895  11.645  -1.432  0.00  0.00    -0.400 N 
ATOM      8  C   LIG    1        2.162  12.225  -2.619  0.00  0.00    +0.480 C 
ATOM      9  C   LIG    1        1.656  11.582  -3.889  0.00  0.00    +0.340 C 
ATOM     10  O   LIG    1        2.803  13.254  -2.667  0.00  0.00    -0.500 OA
ATOM     11  N   LIG    1        1.529  10.137  -3.651  0.00  0.00    -0.740 N 
ATOM     12  H   LIG    1        1.807   9.494  -4.322  0.00  0.00    +0.420 HD
BRANCH   7  13
ATOM     13  C   LIG    1        2.344  12.248  -0.252  0.00  0.00    +0.150 A 
ATOM     14  C   LIG    1        3.005  11.492   0.708  0.00  0.00    +0.020 A 
ATOM     15  C   LIG    1        3.452  12.091   1.869  0.00  0.00    +0.020 A 
ATOM     16  C   LIG    1        3.233  13.439   2.082  0.00  0.00    +0.010 A 
ATOM     17  C   LIG    1        2.571  14.194   1.131  0.00  0.00    +0.030 A 
ATOM     18  C   LIG    1        2.126  13.602  -0.035  0.00  0.00    +0.030 A 
ENDBRANCH   7  13
ENDBRANCH   2   5
BRANCH   3  19
ATOM     19  C   LIG    1       -1.015   6.792  -1.076  0.00  0.00    +0.280 C 
BRANCH  19  20
ATOM     20  C   LIG    1       -1.481   6.573   0.365  0.00  0.00    +0.090 C 
BRANCH  20  21
ATOM     21  C   LIG    1       -2.251   5.280   0.453  0.00  0.00    -0.080 A 
ATOM     22  C   LIG    1       -3.619   5.278   0.254  0.00  0.00    +0.040 A 
ATOM     23  C   LIG    1       -4.329   4.094   0.329  0.00  0.00    +0.040 A 
ATOM     24  C   LIG    1       -3.672   2.908   0.612  0.00  0.00    +0.030 A 
ATOM     25  O   LIG    1       -4.129   1.628   0.742  0.00  0.00    -0.310 OA
ATOM     26  C   LIG    1       -3.082   0.914   1.425  0.00  0.00    +0.430 C 
ATOM     27  O   LIG    1       -1.887   1.633   1.068  0.00  0.00    -0.310 OA
ATOM     28  C   LIG    1       -2.293   2.911   0.812  0.00  0.00    +0.030 A 
ATOM     29  C   LIG    1       -1.587   4.100   0.732  0.00  0.00    +0.050 A 
ENDBRANCH  20  21
ENDBRANCH  19  20
ENDBRANCH   3  19
TORSDOF 5
