REMARK  Name = ZINCqH00000322XM.0
REMARK                            x       y       z     vdW  Elec       q    Type
REMARK                         _______ _______ _______ _____ _____    ______ ____
ROOT
ATOM      1  N   LIG    1        3.342   2.485  -2.638  0.00  0.00    -1.060 N 
ATOM      2  H   LIG    1        3.477   2.442  -3.598  0.00  0.00    +0.430 HD
ENDROOT
BRANCH   1   3
ATOM      3  C   LIG    1        3.833   3.572  -1.912  0.00  0.00    +0.140 A 
ATOM      4  C   LIG    1        4.237   3.400  -0.594  0.00  0.00    +0.030 A 
ATOM      5  C   LIG    1        4.722   4.472   0.126  0.00  0.00    +0.090 A 
ATOM      6  C   LIG    1        4.809   5.729  -0.469  0.00  0.00    -0.000 A 
ATOM      7  C   LIG    1        4.405   5.901  -1.793  0.00  0.00    +0.080 A 
ATOM      8  C   LIG    1        3.924   4.825  -2.511  0.00  0.00    +0.070 A 
ATOM      9  F   LIG    1        3.537   4.989  -3.795  0.00  0.00    -0.130 F 
BRANCH   6  10
ATOM     10  C   LIG    1        5.331   6.883   0.304  0.00  0.00    +0.270 A 
ATOM     11  N   LIG    1        5.736   6.847   1.554  0.00  0.00    -0.300 NA
ATOM     12  N   LIG    1        6.147   8.149   1.883  0.00  0.00    -0.480 N 
ATOM     13  H   LIG    1        6.499   8.449   2.736  0.00  0.00    +0.450 HD
ATOM     14  C   LIG    1        5.951   8.901   0.785  0.00  0.00    +0.500 A 
ATOM     15  N   LIG    1        5.463   8.135  -0.155  0.00  0.00    -0.530 NA
ENDBRANCH   6  10
ENDBRANCH   1   3
BRANCH   1  16
ATOM     16  S   LIG    1        2.529   1.269  -1.861  0.00  0.00    +2.700 S 
ATOM     17  O   LIG    1        2.033   0.406  -2.876  0.00  0.00    -0.940 OA
ATOM     18  O   LIG    1        3.378   0.826  -0.811  0.00  0.00    -0.940 OA
BRANCH  16  24
ATOM     19  C   LIG    1        0.391   1.270  -0.165  0.00  0.00    +0.040 A 
ATOM     20  C   LIG    1       -0.718   1.836   0.436  0.00  0.00    +0.000 A 
ATOM     21  C   LIG    1       -1.092   3.129   0.118  0.00  0.00    +0.070 A 
ATOM     22  C   LIG    1       -0.363   3.851  -0.808  0.00  0.00    -0.010 A 
ATOM     23  C   LIG    1        0.743   3.283  -1.412  0.00  0.00    +0.100 A 
ATOM     24  C   LIG    1        1.120   1.993  -1.091  0.00  0.00    -0.670 A 
BRANCH  19  26
ATOM     25  C   LIG    1       -0.368  -0.856   0.861  0.00  0.00    +0.050 C 
ATOM     26  C   LIG    1        0.801  -0.137   0.185  0.00  0.00    -0.060 C 
ATOM     27  C   LIG    1        1.996  -0.097   1.139  0.00  0.00    +0.060 C 
ATOM     28  C   LIG    1        1.192  -0.887  -1.090  0.00  0.00    +0.030 C 
ENDBRANCH  19  26
ENDBRANCH  16  24
ENDBRANCH   1  16
TORSDOF 5
