REMARK  Name = ZINCvU0000000GuZ.0
REMARK                            x       y       z     vdW  Elec       q    Type
REMARK                         _______ _______ _______ _____ _____    ______ ____
ROOT
ATOM      1  C   LIG    1       -3.508   1.447  -0.315  0.00  0.00    -0.080 A 
ATOM      2  C   LIG    1       -3.179   2.805  -0.230  0.00  0.00    +0.130 A 
ATOM      3  C   LIG    1       -1.894   3.216  -0.502  0.00  0.00    +0.100 A 
ATOM      4  C   LIG    1       -0.926   2.281  -0.861  0.00  0.00    -0.060 A 
ATOM      5  C   LIG    1       -1.255   0.930  -0.944  0.00  0.00    +0.030 A 
ATOM      6  C   LIG    1       -2.529   0.515  -0.681  0.00  0.00    +0.150 A 
ENDROOT
BRANCH   5   7
ATOM      7  N   LIG    1       -0.221  -0.058  -1.325  0.00  0.00    +0.020 N 
ATOM      8  O   LIG    1        0.914   0.311  -1.570  0.00  0.00    -0.130 OA
ATOM      9  O   LIG    1       -0.506  -1.240  -1.399  0.00  0.00    -0.160 OA
ENDBRANCH   5   7
BRANCH   1  11
ATOM     10  C   LIG    1       -5.086  -0.078   0.758  0.00  0.00    -0.620 C 
ATOM     11  C   LIG    1       -4.878   1.001  -0.026  0.00  0.00    +0.310 C 
BRANCH  10  12
ATOM     12  S   LIG    1       -3.793  -0.675   1.795  0.00  0.00    +2.570 S 
ATOM     13  O   LIG    1       -2.713   0.239   1.657  0.00  0.00    -0.890 OA
ATOM     14  O   LIG    1       -3.673  -2.066   1.526  0.00  0.00    -0.910 OA
BRANCH  12  15
ATOM     15  C   LIG    1       -4.352  -0.537   3.460  0.00  0.00    -0.650 A 
ATOM     16  C   LIG    1       -4.555  -1.675   4.217  0.00  0.00    +0.170 A 
ATOM     17  C   LIG    1       -4.990  -1.566   5.526  0.00  0.00    -0.050 A 
ATOM     18  C   LIG    1       -5.233  -0.319   6.073  0.00  0.00    +0.120 A 
ATOM     19  C   LIG    1       -5.035   0.819   5.314  0.00  0.00    +0.050 A 
ATOM     20 CL   LIG    1       -5.238  -2.995   6.480  0.00  0.00    -0.040 Cl
ATOM     21  C   LIG    1       -4.594   0.711   4.007  0.00  0.00    +0.060 A 
ATOM     22 CL   LIG    1       -4.346   2.140   3.053  0.00  0.00    -0.030 Cl
ENDBRANCH  12  15
ENDBRANCH  10  12
BRANCH  10  24
ATOM     23  N   LIG    1       -7.366  -1.259   0.740  0.00  0.00    -0.370 NA
ATOM     24  C   LIG    1       -6.358  -0.736   0.748  0.00  0.00    +0.260 C 
ENDBRANCH  10  24
ENDBRANCH   1  11
BRANCH   4  25
ATOM     25  S   LIG    1        0.719   2.808  -1.209  0.00  0.00    +0.170 S 
BRANCH  25  26
ATOM     26  C   LIG    1        1.502   2.390   0.313  0.00  0.00    +0.280 A 
ATOM     27  N   LIG    1        0.808   1.752   1.245  0.00  0.00    -0.520 NA
ATOM     28  C   LIG    1        1.368   1.419   2.396  0.00  0.00    +0.340 A 
ATOM     29  C   LIG    1        2.693   1.756   2.626  0.00  0.00    -0.080 A 
ATOM     30  C   LIG    1        3.388   2.428   1.632  0.00  0.00    +0.350 A 
ATOM     31  N   LIG    1        2.770   2.727   0.501  0.00  0.00    -0.500 NA
ENDBRANCH  25  26
ENDBRANCH   4  25
TORSDOF 7
