REMARK  Name = ZINCrH000004tOPa.0
REMARK                            x       y       z     vdW  Elec       q    Type
REMARK                         _______ _______ _______ _____ _____    ______ ____
ROOT
ATOM      1  C   LIG    1        6.034   1.383   1.019  0.00  0.00    +0.240 C 
ATOM      2  C   LIG    1        6.691   1.047  -0.322  0.00  0.00    +0.010 C 
ATOM      3  C   LIG    1        8.098   1.648  -0.360  0.00  0.00    +0.170 C 
ATOM      4  N   LIG    1        8.895   1.104   0.747  0.00  0.00    -0.530 NA
ATOM      5  C   LIG    1        8.308   1.455   2.046  0.00  0.00    +0.180 C 
ATOM      6  C   LIG    1        6.908   0.847   2.156  0.00  0.00    +0.040 C 
ENDROOT
BRANCH   1   9
ATOM      7  O   LIG    1        3.777   2.471   0.024  0.00  0.00    -0.520 OA
ATOM      8  C   LIG    1        3.642   1.389   0.555  0.00  0.00    +0.510 C 
ATOM      9  N   LIG    1        4.709   0.760   1.085  0.00  0.00    -0.730 N 
ATOM     10  H   LIG    1        4.601  -0.105   1.510  0.00  0.00    +0.400 HD
BRANCH   8  11
ATOM     11  C   LIG    1        2.279   0.749   0.623  0.00  0.00    +0.200 C 
BRANCH  11  12
ATOM     12  O   LIG    1        1.319   1.603  -0.002  0.00  0.00    -0.350 OA
BRANCH  12  13
ATOM     13  C   LIG    1       -0.013   1.086   0.008  0.00  0.00    +0.150 C 
ATOM     14  C   LIG    1       -0.789   1.611   1.242  0.00  0.00    +0.000 C 
ATOM     15  C   LIG    1       -2.268   1.485   0.789  0.00  0.00    +0.020 C 
ATOM     16  C   LIG    1       -2.243   1.875  -0.703  0.00  0.00    +0.020 C 
ATOM     17  C   LIG    1       -0.809   1.622  -1.200  0.00  0.00    +0.030 C 
ENDBRANCH  12  13
ENDBRANCH  11  12
ENDBRANCH   8  11
ENDBRANCH   1   9
BRANCH   4  18
ATOM     18  C   LIG    1       10.291   1.553   0.661  0.00  0.00    +0.230 C 
BRANCH  18  19
ATOM     19  C   LIG    1       10.781   1.400  -0.756  0.00  0.00    -0.090 A 
ATOM     20  C   LIG    1       10.634   2.440  -1.655  0.00  0.00    +0.050 A 
ATOM     21  C   LIG    1       11.084   2.299  -2.954  0.00  0.00    +0.020 A 
ATOM     22  C   LIG    1       11.682   1.119  -3.355  0.00  0.00    +0.070 A 
ATOM     23  C   LIG    1       11.829   0.079  -2.456  0.00  0.00    -0.180 A 
ATOM     24  C   LIG    1       11.384   0.221  -1.155  0.00  0.00    +0.090 A 
BRANCH  23  25
ATOM     25  C   LIG    1       12.481  -1.207  -2.893  0.00  0.00    +0.510 C 
ATOM     26  F   LIG    1       11.580  -2.265  -2.732  0.00  0.00    -0.180 F 
ATOM     27  F   LIG    1       13.619  -1.442  -2.114  0.00  0.00    -0.180 F 
ATOM     28  F   LIG    1       12.850  -1.110  -4.239  0.00  0.00    -0.180 F 
ENDBRANCH  23  25
ENDBRANCH  18  19
ENDBRANCH   4  18
TORSDOF 7
