REMARK  Name = ZINCqH0000051kTb.0
REMARK                            x       y       z     vdW  Elec       q    Type
REMARK                         _______ _______ _______ _____ _____    ______ ____
ROOT
ATOM      1  C   LIG    1       -1.146  -2.154   0.020  0.00  0.00    +0.290 C 
ENDROOT
BRANCH   1   2
ATOM      2  C   LIG    1       -2.582  -2.683   0.016  0.00  0.00    +0.000 C 
ATOM      3  C   LIG    1       -3.297  -2.334  -1.310  0.00  0.00    +0.080 C 
ATOM      4  C   LIG    1       -4.155  -3.546  -1.599  0.00  0.00    +0.520 C 
ATOM      5  N   LIG    1       -3.747  -4.589  -0.856  0.00  0.00    -0.560 N 
ATOM      6  O   LIG    1       -5.077  -3.572  -2.386  0.00  0.00    -0.500 OA
ATOM      7  C   LIG    1       -2.602  -4.228  -0.013  0.00  0.00    +0.290 C 
BRANCH   5   8
ATOM      8  C   LIG    1       -4.340  -5.857  -0.882  0.00  0.00    +0.170 A 
ATOM      9  C   LIG    1       -5.499  -6.068  -1.618  0.00  0.00    +0.020 A 
ATOM     10  C   LIG    1       -6.079  -7.321  -1.645  0.00  0.00    +0.060 A 
ATOM     11  C   LIG    1       -5.512  -8.363  -0.933  0.00  0.00    -0.060 A 
ATOM     12  C   LIG    1       -4.361  -8.154  -0.194  0.00  0.00    +0.060 A 
ATOM     13 CL   LIG    1       -6.248  -9.935  -0.965  0.00  0.00    -0.070 Cl
ATOM     14  C   LIG    1       -3.774  -6.904  -0.167  0.00  0.00    -0.010 A 
ENDBRANCH   5   8
ENDBRANCH   1   2
BRANCH   1  17
ATOM     15  O   LIG    1        1.054  -0.594   0.025  0.00  0.00    -0.520 OA
ATOM     16  C   LIG    1       -0.008   0.000   0.022  0.00  0.00    +0.570 C 
ATOM     17  N   LIG    1       -1.166  -0.689   0.019  0.00  0.00    -0.730 N 
ATOM     18  H   LIG    1       -2.012  -0.216   0.016  0.00  0.00    +0.400 HD
BRANCH  16  19
ATOM     19  C   LIG    1       -0.027   1.474   0.021  0.00  0.00    -0.160 A 
ATOM     20  C   LIG    1        1.193   2.216   0.024  0.00  0.00    +0.020 A 
ATOM     21  C   LIG    1        2.520   1.769   0.029  0.00  0.00    +0.040 A 
ATOM     22  C   LIG    1        3.447   2.716   0.032  0.00  0.00    +0.010 A 
ATOM     23  S   LIG    1        2.710   4.309   0.028  0.00  0.00    +0.140 S 
ATOM     24  C   LIG    1        1.094   3.614   0.023  0.00  0.00    -0.220 A 
ATOM     25  C   LIG    1       -0.165   4.209   0.018  0.00  0.00    +0.360 A 
ATOM     26  N   LIG    1       -1.262   3.482   0.015  0.00  0.00    -0.480 NA
ATOM     27  C   LIG    1       -1.231   2.163   0.012  0.00  0.00    +0.290 A 
ENDBRANCH  16  19
ENDBRANCH   1  17
TORSDOF 4
