REMARK  Name = ZINCkj00000LZern.0
REMARK                            x       y       z     vdW  Elec       q    Type
REMARK                         _______ _______ _______ _____ _____    ______ ____
ROOT
ATOM      1  N   LIG    1        3.938   2.526   0.978  0.00  0.00    -0.510 N 
ATOM      2  H   LIG    1        4.441   2.846   0.164  0.00  0.00    +0.430 HD
ATOM      3  H   LIG    1        3.658   1.566   0.845  0.00  0.00    +0.440 HD
ENDROOT
BRANCH   1   5
ATOM      4  C   LIG    1        3.160   4.832   1.253  0.00  0.00    +0.110 C 
ATOM      5  C   LIG    1        2.746   3.361   1.176  0.00  0.00    +0.180 C 
BRANCH   5   6
ATOM      6  C   LIG    1        1.784   3.163   0.002  0.00  0.00    +0.200 C 
BRANCH   6   7
ATOM      7  C   LIG    1        1.281   1.743  -0.001  0.00  0.00    +0.140 A 
ATOM      8  N   LIG    1        2.013   0.662  -0.014  0.00  0.00    -0.320 NA
ATOM      9  N   LIG    1        1.253  -0.375  -0.012  0.00  0.00    -0.280 NA
ATOM     10  C   LIG    1        0.002  -0.004   0.002  0.00  0.00    +0.430 A 
ATOM     11  N   LIG    1       -0.016   1.351   0.009  0.00  0.00    -0.570 N 
ATOM     12  H   LIG    1       -0.799   1.924   0.017  0.00  0.00    +0.440 HD
ENDBRANCH   6   7
ENDBRANCH   5   6
ENDBRANCH   1   5
BRANCH   1  13
ATOM     13  C   LIG    1        4.806   2.623   2.159  0.00  0.00    +0.380 C 
BRANCH  13  14
ATOM     14  C   LIG    1        6.029   1.767   1.956  0.00  0.00    +0.000 A 
ATOM     15  N   LIG    1        6.120   0.487   2.211  0.00  0.00    -0.240 NA
ATOM     16  N   LIG    1        7.416   0.067   1.884  0.00  0.00    -0.330 N 
ATOM     17  C   LIG    1        8.099   1.140   1.434  0.00  0.00    +0.270 A 
ATOM     18  C   LIG    1        7.265   2.204   1.468  0.00  0.00    -0.080 A 
BRANCH  16  19
ATOM     19  C   LIG    1        7.939  -1.296   2.014  0.00  0.00    +0.250 C 
ATOM     20  C   LIG    1        8.697  -1.642   3.297  0.00  0.00    +0.130 C 
ATOM     21  C   LIG    1        9.458  -1.476   1.980  0.00  0.00    +0.220 C 
ATOM     22  F   LIG    1       10.241  -0.327   1.828  0.00  0.00    -0.150 F 
ATOM     23  F   LIG    1        9.958  -2.632   1.372  0.00  0.00    -0.140 F 
ENDBRANCH  16  19
ENDBRANCH  13  14
ENDBRANCH   1  13
TORSDOF 6
