REMARK  Name = ZINCrD000000g8iO.0
REMARK                            x       y       z     vdW  Elec       q    Type
REMARK                         _______ _______ _______ _____ _____    ______ ____
ROOT
ATOM      1  C   LIG    1        0.084   0.006  -0.103  0.00  0.00    +0.540 C 
ATOM      2  N   LIG    1        1.051  -0.655   0.563  0.00  0.00    -0.610 N 
ATOM      3  C   LIG    1        2.060   0.071   1.350  0.00  0.00    +0.240 C 
ATOM      4  C   LIG    1        2.117  -0.557   2.752  0.00  0.00    +0.220 C 
ATOM      5  O   LIG    1        2.306  -1.968   2.627  0.00  0.00    -0.370 OA
ATOM      6  C   LIG    1        1.238  -2.644   1.958  0.00  0.00    +0.190 C 
ATOM      7  C   LIG    1        1.132  -2.124   0.520  0.00  0.00    +0.270 C 
ATOM      8  O   LIG    1       -0.736  -0.610  -0.750  0.00  0.00    -0.510 OA
ENDROOT
BRANCH   1  15
ATOM      9  C   LIG    1        0.752   1.269  -2.368  0.00  0.00    +0.650 C 
ATOM     10  N   LIG    1        0.337   2.069  -1.366  0.00  0.00    -0.590 N 
ATOM     11  C   LIG    1        0.190   3.516  -1.575  0.00  0.00    +0.280 C 
ATOM     12  C   LIG    1       -1.224   3.933  -1.161  0.00  0.00    +0.010 C 
ATOM     13  C   LIG    1       -1.487   3.476   0.276  0.00  0.00    +0.020 C 
ATOM     14  C   LIG    1       -1.391   1.950   0.356  0.00  0.00    +0.040 C 
ATOM     15  C   LIG    1        0.021   1.510  -0.044  0.00  0.00    +0.240 C 
ATOM     16  O   LIG    1        0.796   0.066  -2.206  0.00  0.00    -0.530 OA
BRANCH   9  17
ATOM     17  O   LIG    1        1.118   1.804  -3.548  0.00  0.00    -0.360 OA
BRANCH  17  19
ATOM     18  C   LIG    1        0.422  -0.094  -4.907  0.00  0.00    +0.040 C 
ATOM     19  C   LIG    1        1.555   0.882  -4.582  0.00  0.00    +0.140 C 
ATOM     20  C   LIG    1        2.774   0.102  -4.088  0.00  0.00    +0.040 C 
ATOM     21  C   LIG    1        1.928   1.667  -5.841  0.00  0.00    +0.080 C 
ENDBRANCH  17  19
ENDBRANCH   9  17
ENDBRANCH   1  15
BRANCH   6  22
ATOM     22  C   LIG    1        1.513  -4.126   1.939  0.00  0.00    -0.090 A 
ATOM     23  C   LIG    1        2.810  -4.586   1.812  0.00  0.00    +0.040 A 
ATOM     24  C   LIG    1        3.063  -5.945   1.799  0.00  0.00    +0.000 A 
ATOM     25  C   LIG    1        2.017  -6.844   1.901  0.00  0.00    +0.010 A 
ATOM     26  C   LIG    1        0.720  -6.383   2.023  0.00  0.00    +0.000 A 
ATOM     27  C   LIG    1        0.467  -5.024   2.041  0.00  0.00    +0.010 A 
ENDBRANCH   6  22
TORSDOF 4
