REMARK  Name = ZINCbw0000000Hgs.0
REMARK                            x       y       z     vdW  Elec       q    Type
REMARK                         _______ _______ _______ _____ _____    ______ ____
ROOT
ATOM      1  C   LIG    1       -0.787   2.892   1.346  0.00  0.00    +0.210 A 
ATOM      2  C   LIG    1       -0.259   3.749   0.394  0.00  0.00    -0.140 A 
ATOM      3  C   LIG    1       -0.368   5.122   0.562  0.00  0.00    +0.280 A 
ATOM      4  C   LIG    1       -1.008   5.634   1.685  0.00  0.00    -0.150 A 
ATOM      5  C   LIG    1       -1.535   4.777   2.632  0.00  0.00    +0.160 A 
ATOM      6 CL   LIG    1       -1.147   7.352   1.897  0.00  0.00    -0.060 Cl
ATOM      7  C   LIG    1       -1.430   3.408   2.463  0.00  0.00    -0.180 A 
ATOM      8 BR   LIG    1       -2.159   2.238   3.758  0.00  0.00    -0.030 Br
ENDROOT
BRANCH   3   9
ATOM      9  N   LIG    1        0.164   5.990  -0.396  0.00  0.00    -0.860 N 
ATOM     10  H   LIG    1        0.087   6.949  -0.278  0.00  0.00    +0.410 HD
ATOM     11  H   LIG    1        0.611   5.632  -1.179  0.00  0.00    +0.410 HD
ENDBRANCH   3   9
BRANCH   1  13
ATOM     12  C   LIG    1       -0.013   1.086   0.008  0.00  0.00    +0.250 C 
ATOM     13  O   LIG    1       -0.682   1.547   1.184  0.00  0.00    -0.300 OA
ENDBRANCH   1  13
TORSDOF 2
