REMARK  Name = ZINCpe000000SvnA.0
REMARK                            x       y       z     vdW  Elec       q    Type
REMARK                         _______ _______ _______ _____ _____    ______ ____
ROOT
ATOM      1  C   LIG    1       -1.395   8.369   2.321  0.00  0.00    -0.660 A 
ATOM      2  C   LIG    1       -1.975   7.666   3.362  0.00  0.00    +0.130 A 
ATOM      3  C   LIG    1       -1.960   6.287   3.360  0.00  0.00    +0.070 A 
ATOM      4  C   LIG    1       -1.357   5.600   2.305  0.00  0.00    -0.080 A 
ATOM      5  C   LIG    1       -0.768   6.314   1.261  0.00  0.00    +0.030 A 
ATOM      6  C   LIG    1       -0.795   7.694   1.272  0.00  0.00    +0.120 A 
ENDROOT
BRANCH   4   7
ATOM      7  C   LIG    1       -1.337   4.122   2.297  0.00  0.00    +0.550 C 
ATOM      8  N   LIG    1       -0.754   3.461   1.277  0.00  0.00    -0.730 N 
ATOM      9  H   LIG    1       -0.348   3.956   0.548  0.00  0.00    +0.400 HD
ATOM     10  O   LIG    1       -1.847   3.502   3.210  0.00  0.00    -0.520 OA
BRANCH   8  11
ATOM     11  C   LIG    1       -0.735   1.996   1.269  0.00  0.00    +0.290 C 
BRANCH  11  12
ATOM     12  C   LIG    1       -0.018   1.503   0.010  0.00  0.00    +0.050 C 
BRANCH  12  13
ATOM     13  C   LIG    1        0.002  -0.004   0.002  0.00  0.00    +0.530 C 
ATOM     14  N   LIG    1        0.585  -0.664  -1.018  0.00  0.00    -0.620 N 
ATOM     15  C   LIG    1        1.230  -0.043  -2.184  0.00  0.00    +0.240 C 
ATOM     16  C   LIG    1        1.730  -1.185  -3.094  0.00  0.00    +0.040 C 
ATOM     17  C   LIG    1        0.834  -2.380  -2.673  0.00  0.00    +0.030 C 
ATOM     18  C   LIG    1        0.676  -2.130  -1.152  0.00  0.00    +0.250 C 
ATOM     19  O   LIG    1       -0.506  -0.622   0.913  0.00  0.00    -0.530 OA
ENDBRANCH  12  13
ENDBRANCH  11  12
ENDBRANCH   8  11
ENDBRANCH   4   7
BRANCH   1  20
ATOM     20  S   LIG    1       -1.419  10.130   2.330  0.00  0.00    +2.700 S 
ATOM     21  O   LIG    1       -2.513  10.512   3.152  0.00  0.00    -0.950 OA
ATOM     22  O   LIG    1       -1.284  10.541   0.977  0.00  0.00    -0.950 OA
BRANCH  20  23
ATOM     23  N   LIG    1       -0.049  10.636   3.111  0.00  0.00    -1.110 NA
ATOM     24  H   LIG    1       -0.118  11.113   3.953  0.00  0.00    +0.420 HD
BRANCH  23  25
ATOM     25  C   LIG    1        1.268  10.361   2.531  0.00  0.00    +0.300 C 
BRANCH  25  27
ATOM     26  C   LIG    1        3.357  10.662   3.759  0.00  0.00    +0.050 C 
ATOM     27  C   LIG    1        2.305  11.218   3.211  0.00  0.00    -0.050 C 
ENDBRANCH  25  27
ENDBRANCH  23  25
ENDBRANCH  20  23
ENDBRANCH   1  20
TORSDOF 8
