REMARK  Name = ZINCpk00000y6ucR.0
REMARK                            x       y       z     vdW  Elec       q    Type
REMARK                         _______ _______ _______ _____ _____    ______ ____
ROOT
ATOM      1  C   LIG    1        3.467   0.608  -0.098  0.00  0.00    +0.360 C 
ATOM      2  C   LIG    1        3.832   0.238   1.343  0.00  0.00    +0.050 C 
ATOM      3  C   LIG    1        3.270  -1.148   1.668  0.00  0.00    -0.010 C 
ATOM      4  C   LIG    1        3.892  -2.186   0.731  0.00  0.00    +0.020 C 
ATOM      5  C   LIG    1        3.526  -1.843  -0.717  0.00  0.00    +0.270 C 
ATOM      6  C   LIG    1        3.604  -1.506   3.118  0.00  0.00    +0.030 C 
ATOM      7  N   LIG    1        3.935  -0.459  -0.993  0.00  0.00    -0.590 N 
ATOM      8  C   LIG    1        4.724  -0.173  -2.048  0.00  0.00    +0.580 C 
ATOM      9  O   LIG    1        4.980   0.984  -2.319  0.00  0.00    -0.510 OA
ENDROOT
BRANCH   8  10
ATOM     10  C   LIG    1        5.275  -1.263  -2.872  0.00  0.00    +0.000 A 
ATOM     11  C   LIG    1        4.566  -1.757  -3.930  0.00  0.00    +0.120 A 
ATOM     12  C   LIG    1        5.165  -2.848  -4.724  0.00  0.00    +0.560 A 
ATOM     13  N   LIG    1        6.382  -3.313  -4.375  0.00  0.00    -0.650 N 
ATOM     14  H   LIG    1        6.787  -4.030  -4.888  0.00  0.00    +0.440 HD
ATOM     15  C   LIG    1        7.039  -2.792  -3.325  0.00  0.00    +0.700 A 
ATOM     16  O   LIG    1        8.135  -3.234  -3.037  0.00  0.00    -0.540 OA
ATOM     17  O   LIG    1        4.571  -3.320  -5.675  0.00  0.00    -0.490 OA
ATOM     18  N   LIG    1        6.524  -1.796  -2.587  0.00  0.00    -0.610 N 
ATOM     19  H   LIG    1        7.032  -1.445  -1.839  0.00  0.00    +0.440 HD
BRANCH  11  20
ATOM     20  N   LIG    1        3.316  -1.247  -4.250  0.00  0.00    -0.830 N 
ATOM     21  H   LIG    1        2.792  -1.655  -4.957  0.00  0.00    +0.420 HD
ATOM     22  H   LIG    1        2.966  -0.481  -3.768  0.00  0.00    +0.410 HD
ENDBRANCH  11  20
ENDBRANCH   8  10
BRANCH   1  26
ATOM     23  C   LIG    1       -0.151   0.235  -0.427  0.00  0.00    -0.010 A 
ATOM     24  C   LIG    1       -0.080   1.576  -0.352  0.00  0.00    -0.060 A 
ATOM     25  C   LIG    1        1.288   1.907  -0.218  0.00  0.00    -0.040 A 
ATOM     26  C   LIG    1        1.971   0.749  -0.219  0.00  0.00    -0.030 A 
ATOM     27  O   LIG    1        1.095  -0.261  -0.346  0.00  0.00    -0.160 OA
BRANCH  23  29
ATOM     28  C   LIG    1       -1.717  -0.774  -2.063  0.00  0.00    +0.040 C 
ATOM     29  C   LIG    1       -1.413  -0.574  -0.577  0.00  0.00    +0.130 C 
ENDBRANCH  23  29
ENDBRANCH   1  26
TORSDOF 4
