REMARK  Name = ZINCpk00000y6u3g.0
REMARK                            x       y       z     vdW  Elec       q    Type
REMARK                         _______ _______ _______ _____ _____    ______ ____
ROOT
ATOM      1  C   LIG    1       -5.198   7.431   6.230  0.00  0.00    +0.170 C 
ATOM      2  C   LIG    1       -6.687   7.355   6.625  0.00  0.00    +0.070 C 
ATOM      3  C   LIG    1       -7.062   5.864   6.488  0.00  0.00    +0.240 C 
ATOM      4  N   LIG    1       -6.077   5.317   5.519  0.00  0.00    -0.480 NA
ATOM      5  C   LIG    1       -4.799   5.980   5.886  0.00  0.00    +0.170 C 
ENDROOT
BRANCH   3   6
ATOM      6  C   LIG    1       -8.463   5.722   5.949  0.00  0.00    +0.170 A 
ATOM      7  N   LIG    1       -8.804   5.642   4.692  0.00  0.00    -0.250 NA
ATOM      8  N   LIG    1      -10.081   5.528   4.596  0.00  0.00    -0.290 NA
ATOM      9  C   LIG    1      -10.613   5.531   5.788  0.00  0.00    +0.180 A 
ATOM     10  C   LIG    1      -12.081   5.419   6.111  0.00  0.00    +0.200 C 
ATOM     11  N   LIG    1       -9.601   5.650   6.681  0.00  0.00    -0.580 N 
ATOM     12  H   LIG    1       -9.676   5.678   7.647  0.00  0.00    +0.430 HD
ENDBRANCH   3   6
BRANCH   1  14
ATOM     13  C   LIG    1       -3.251   8.641   6.932  0.00  0.00    +0.200 C 
ATOM     14  O   LIG    1       -4.417   7.914   7.325  0.00  0.00    -0.380 OA
ENDBRANCH   1  14
BRANCH   4  15
ATOM     15  C   LIG    1       -5.969   3.858   5.645  0.00  0.00    +0.300 C 
BRANCH  15  16
ATOM     16  C   LIG    1       -5.157   3.313   4.498  0.00  0.00    -0.010 A 
ATOM     17  C   LIG    1       -3.817   3.135   4.471  0.00  0.00    -0.050 A 
ATOM     18  C   LIG    1       -3.568   2.606   3.173  0.00  0.00    +0.100 A 
ATOM     19  N   LIG    1       -4.736   2.518   2.586  0.00  0.00    -0.370 NA
ATOM     20  O   LIG    1       -5.624   2.907   3.309  0.00  0.00    +0.120 OA
BRANCH  18  21
ATOM     21  C   LIG    1       -2.253   2.225   2.603  0.00  0.00    -0.180 A 
ATOM     22  C   LIG    1       -2.017   1.808   1.325  0.00  0.00    +0.270 A 
ATOM     23  N   LIG    1       -0.698   1.558   1.213  0.00  0.00    -0.370 N 
ATOM     24  N   LIG    1       -0.095   1.834   2.446  0.00  0.00    -0.290 NA
ATOM     25  C   LIG    1       -0.013   1.086   0.008  0.00  0.00    +0.360 C 
ATOM     26  C   LIG    1       -1.017   2.232   3.281  0.00  0.00    +0.270 A 
ENDBRANCH  18  21
ENDBRANCH  15  16
ENDBRANCH   4  15
TORSDOF 5
