REMARK  Name = ZINCpk00000y6u3g.1
REMARK                            x       y       z     vdW  Elec       q    Type
REMARK                         _______ _______ _______ _____ _____    ______ ____
ROOT
ATOM      1  C   LIG    1       -1.295  -0.603   0.011  0.00  0.00    +0.170 C 
ATOM      2  C   LIG    1       -1.236  -2.000   0.662  0.00  0.00    +0.070 C 
ATOM      3  C   LIG    1       -1.690  -2.977  -0.444  0.00  0.00    +0.250 C 
ATOM      4  N   LIG    1       -2.508  -2.147  -1.364  0.00  0.00    -0.490 NA
ATOM      5  C   LIG    1       -1.781  -0.853  -1.433  0.00  0.00    +0.170 C 
ENDROOT
BRANCH   3   6
ATOM      6  C   LIG    1       -2.523  -4.088   0.143  0.00  0.00    +0.230 A 
ATOM      7  N   LIG    1       -3.729  -3.957   0.629  0.00  0.00    -0.280 NA
ATOM      8  N   LIG    1       -4.132  -5.231   1.062  0.00  0.00    -0.480 N 
ATOM      9  H   LIG    1       -4.981  -5.465   1.469  0.00  0.00    +0.440 HD
ATOM     10  C   LIG    1       -3.106  -6.060   0.807  0.00  0.00    +0.280 A 
ATOM     11  C   LIG    1       -3.066  -7.537   1.104  0.00  0.00    +0.190 C 
ATOM     12  N   LIG    1       -2.147  -5.361   0.255  0.00  0.00    -0.540 NA
ENDBRANCH   3   6
BRANCH   1  14
ATOM     13  C   LIG    1       -0.017   1.425   0.010  0.00  0.00    +0.200 C 
ATOM     14  O   LIG    1        0.002  -0.004   0.002  0.00  0.00    -0.380 OA
ENDBRANCH   1  14
BRANCH   4  15
ATOM     15  C   LIG    1       -2.602  -2.769  -2.692  0.00  0.00    +0.300 C 
BRANCH  15  16
ATOM     16  C   LIG    1       -3.542  -1.969  -3.556  0.00  0.00    -0.010 A 
ATOM     17  C   LIG    1       -3.214  -0.930  -4.358  0.00  0.00    -0.050 A 
ATOM     18  C   LIG    1       -4.453  -0.544  -4.942  0.00  0.00    +0.110 A 
ATOM     19  N   LIG    1       -5.357  -1.351  -4.444  0.00  0.00    -0.370 NA
ATOM     20  O   LIG    1       -4.866  -2.144  -3.675  0.00  0.00    +0.110 OA
BRANCH  18  21
ATOM     21  C   LIG    1       -4.677   0.555  -5.914  0.00  0.00    -0.180 A 
ATOM     22  C   LIG    1       -5.884   0.975  -6.393  0.00  0.00    +0.270 A 
ATOM     23  N   LIG    1       -5.653   1.992  -7.246  0.00  0.00    -0.370 N 
ATOM     24  N   LIG    1       -4.271   2.205  -7.309  0.00  0.00    -0.290 NA
ATOM     25  C   LIG    1       -6.672   2.740  -7.986  0.00  0.00    +0.360 C 
ATOM     26  C   LIG    1       -3.682   1.350  -6.515  0.00  0.00    +0.270 A 
ENDBRANCH  18  21
ENDBRANCH  15  16
ENDBRANCH   4  15
TORSDOF 5
