REMARK  Name = ZINCpk00000xI2Eh.1
REMARK                            x       y       z     vdW  Elec       q    Type
REMARK                         _______ _______ _______ _____ _____    ______ ____
ROOT
ATOM      1  N   LIG    1       -1.486   1.571  -3.549  0.00  0.00    -0.600 N 
ATOM      2  C   LIG    1       -0.848   2.285  -4.497  0.00  0.00    +0.590 C 
ATOM      3  O   LIG    1        0.330   2.554  -4.365  0.00  0.00    -0.510 OA
ATOM      4  C   LIG    1       -2.926   1.323  -3.663  0.00  0.00    +0.300 C 
ENDROOT
BRANCH   2   5
ATOM      5  C   LIG    1       -1.580   2.740  -5.697  0.00  0.00    +0.040 A 
ATOM      6  N   LIG    1       -2.873   2.618  -5.920  0.00  0.00    -0.240 NA
ATOM      7  N   LIG    1       -3.173   3.123  -7.062  0.00  0.00    -0.380 N 
ATOM      8  H   LIG    1       -4.066   3.148  -7.441  0.00  0.00    +0.460 HD
ATOM      9  C   LIG    1       -2.067   3.613  -7.661  0.00  0.00    +0.270 A 
ATOM     10  C   LIG    1       -1.027   3.396  -6.822  0.00  0.00    -0.260 A 
BRANCH  10  11
ATOM     11  C   LIG    1        0.416   3.770  -7.042  0.00  0.00    +0.550 C 
ATOM     12  F   LIG    1        1.206   2.615  -7.022  0.00  0.00    -0.170 F 
ATOM     13  F   LIG    1        0.833   4.638  -6.027  0.00  0.00    -0.160 F 
ATOM     14  F   LIG    1        0.550   4.405  -8.282  0.00  0.00    -0.180 F 
ENDBRANCH  10  11
ENDBRANCH   2   5
BRANCH   1  15
ATOM     15  C   LIG    1       -0.741   1.044  -2.403  0.00  0.00    +0.320 C 
BRANCH  15  20
ATOM     16  C   LIG    1        0.136   1.592  -0.100  0.00  0.00    +0.100 C 
ATOM     17  C   LIG    1       -0.623   2.058   1.163  0.00  0.00    +0.020 C 
ATOM     18  C   LIG    1       -1.879   2.765   0.608  0.00  0.00    +0.210 C 
ATOM     19  O   LIG    1       -2.075   2.192  -0.704  0.00  0.00    -0.370 OA
ATOM     20  C   LIG    1       -0.749   2.074  -1.272  0.00  0.00    +0.160 C 
BRANCH  16  25
ATOM     21  C   LIG    1       -0.724  -3.345   0.543  0.00  0.00    +0.200 C 
ATOM     22  C   LIG    1       -0.106  -2.025   0.159  0.00  0.00    +0.180 A 
ATOM     23  N   LIG    1        1.028  -1.854  -0.465  0.00  0.00    -0.290 NA
ATOM     24  N   LIG    1        1.246  -0.597  -0.628  0.00  0.00    -0.280 NA
ATOM     25  C   LIG    1        0.262   0.090  -0.117  0.00  0.00    +0.190 A 
ATOM     26  N   LIG    1       -0.622  -0.796   0.402  0.00  0.00    -0.580 N 
ATOM     27  H   LIG    1       -1.455  -0.592   0.854  0.00  0.00    +0.430 HD
ENDBRANCH  16  25
ENDBRANCH  15  20
ENDBRANCH   1  15
TORSDOF 5
