REMARK  Name = ZINCpk00000xI2Eh.0
REMARK                            x       y       z     vdW  Elec       q    Type
REMARK                         _______ _______ _______ _____ _____    ______ ____
ROOT
ATOM      1  N   LIG    1        1.550   3.233  -3.857  0.00  0.00    -0.610 N 
ATOM      2  C   LIG    1        0.438   3.637  -4.502  0.00  0.00    +0.580 C 
ATOM      3  O   LIG    1       -0.591   3.825  -3.880  0.00  0.00    -0.470 OA
ATOM      4  C   LIG    1        2.821   3.138  -4.580  0.00  0.00    +0.290 C 
ENDROOT
BRANCH   2   5
ATOM      5  C   LIG    1        0.467   3.850  -5.957  0.00  0.00    +0.030 A 
ATOM      6  C   LIG    1       -0.543   4.385  -6.739  0.00  0.00    -0.240 A 
ATOM      7  C   LIG    1       -0.042   4.383  -8.043  0.00  0.00    +0.260 A 
ATOM      8  N   LIG    1        1.164   3.877  -8.008  0.00  0.00    -0.260 NA
ATOM      9  N   LIG    1        1.493   3.555  -6.809  0.00  0.00    -0.370 N 
ATOM     10  H   LIG    1        2.341   3.162  -6.548  0.00  0.00    +0.450 HD
BRANCH   6  11
ATOM     11  C   LIG    1       -1.895   4.868  -6.280  0.00  0.00    +0.550 C 
ATOM     12  F   LIG    1       -1.730   5.904  -5.355  0.00  0.00    -0.170 F 
ATOM     13  F   LIG    1       -2.588   3.812  -5.679  0.00  0.00    -0.170 F 
ATOM     14  F   LIG    1       -2.621   5.336  -7.381  0.00  0.00    -0.180 F 
ENDBRANCH   6  11
ENDBRANCH   2   5
BRANCH   1  15
ATOM     15  C   LIG    1        1.489   2.889  -2.435  0.00  0.00    +0.310 C 
BRANCH  15  20
ATOM     16  C   LIG    1        1.827   3.762  -0.102  0.00  0.00    +0.100 C 
ATOM     17  C   LIG    1        0.725   4.630   0.553  0.00  0.00    +0.020 C 
ATOM     18  C   LIG    1        0.541   5.762  -0.489  0.00  0.00    +0.220 C 
ATOM     19  O   LIG    1        0.695   5.084  -1.754  0.00  0.00    -0.350 OA
ATOM     20  C   LIG    1        1.766   4.138  -1.595  0.00  0.00    +0.160 C 
BRANCH  16  25
ATOM     21  C   LIG    1       -0.556  -0.649   0.515  0.00  0.00    +0.200 C 
ATOM     22  C   LIG    1        0.506   0.407   0.350  0.00  0.00    +0.190 A 
ATOM     23  N   LIG    1        1.796   0.211   0.333  0.00  0.00    -0.290 NA
ATOM     24  N   LIG    1        2.403   1.334   0.176  0.00  0.00    -0.280 NA
ATOM     25  C   LIG    1        1.527   2.298   0.086  0.00  0.00    +0.180 A 
ATOM     26  N   LIG    1        0.298   1.737   0.195  0.00  0.00    -0.580 N 
ATOM     27  H   LIG    1       -0.556   2.194   0.163  0.00  0.00    +0.430 HD
ENDBRANCH  16  25
ENDBRANCH  15  20
ENDBRANCH   1  15
TORSDOF 5
