REMARK  Name = ZINCrH000004keFk.0
REMARK                            x       y       z     vdW  Elec       q    Type
REMARK                         _______ _______ _______ _____ _____    ______ ____
ROOT
ATOM      1  N   LIG    1       -0.652   1.468   1.330  0.00  0.00    -0.610 N 
ATOM      2  C   LIG    1       -1.715   0.752   1.747  0.00  0.00    +0.570 C 
ATOM      3  O   LIG    1       -2.121  -0.179   1.079  0.00  0.00    -0.530 OA
ATOM      4  C   LIG    1       -0.223   2.649   2.083  0.00  0.00    +0.290 C 
ENDROOT
BRANCH   2   5
ATOM      5  C   LIG    1       -2.385   1.098   3.015  0.00  0.00    -0.170 A 
ATOM      6  C   LIG    1       -2.806   0.087   3.884  0.00  0.00    +0.110 A 
ATOM      7  C   LIG    1       -3.426   0.414   5.069  0.00  0.00    -0.090 A 
ATOM      8  C   LIG    1       -3.645   1.747   5.396  0.00  0.00    +0.160 A 
ATOM      9  C   LIG    1       -3.234   2.755   4.532  0.00  0.00    -0.020 A 
ATOM     10  C   LIG    1       -2.607   2.437   3.348  0.00  0.00    +0.090 A 
BRANCH   8  11
ATOM     11  O   LIG    1       -4.262   2.065   6.563  0.00  0.00    -0.310 OA
BRANCH  11  12
ATOM     12  C   LIG    1       -4.658   0.980   7.404  0.00  0.00    +0.180 C 
BRANCH  12  13
ATOM     13  C   LIG    1       -5.332   1.530   8.662  0.00  0.00    +0.040 C 
BRANCH  13  14
ATOM     14  C   LIG    1       -5.756   0.369   9.563  0.00  0.00    -0.020 C 
ATOM     15  C   LIG    1       -6.833  -0.457   8.856  0.00  0.00    +0.020 C 
ATOM     16  C   LIG    1       -6.316   0.920  10.876  0.00  0.00    +0.030 C 
ENDBRANCH  13  14
ENDBRANCH  12  13
ENDBRANCH  11  12
ENDBRANCH   8  11
ENDBRANCH   2   5
BRANCH   1  17
ATOM     17  C   LIG    1        0.075   1.065   0.123  0.00  0.00    +0.340 C 
BRANCH  17  21
ATOM     18  C   LIG    1       -1.652   2.983  -3.287  0.00  0.00    -0.130 A 
ATOM     19  C   LIG    1       -0.615   3.601  -2.585  0.00  0.00    +0.080 A 
ATOM     20  C   LIG    1       -0.062   2.977  -1.486  0.00  0.00    +0.020 A 
ATOM     21  C   LIG    1       -0.534   1.741  -1.079  0.00  0.00    -0.080 A 
ATOM     22  C   LIG    1       -1.557   1.121  -1.773  0.00  0.00    +0.040 A 
ATOM     23  C   LIG    1       -2.123   1.737  -2.870  0.00  0.00    +0.040 A 
BRANCH  18  27
ATOM     24  C   LIG    1       -3.840   3.705  -6.309  0.00  0.00    +0.290 C 
ATOM     25  N   LIG    1       -3.249   3.048  -5.141  0.00  0.00    -0.730 N 
ATOM     26  H   LIG    1       -3.578   2.182  -4.853  0.00  0.00    +0.400 HD
ATOM     27  C   LIG    1       -2.248   3.646  -4.466  0.00  0.00    +0.560 C 
ATOM     28  O   LIG    1       -1.836   4.732  -4.826  0.00  0.00    -0.530 OA
ENDBRANCH  18  27
ENDBRANCH  17  21
ENDBRANCH   1  17
TORSDOF 8
