REMARK  Name = ZINCvU00000006J2.0
REMARK                            x       y       z     vdW  Elec       q    Type
REMARK                         _______ _______ _______ _____ _____    ______ ____
ROOT
ATOM      1  C   LIG    1        3.179   7.069  -1.939  0.00  0.00    -0.260 A 
ATOM      2  C   LIG    1        4.144   6.373  -1.321  0.00  0.00    +0.190 A 
ATOM      3  C   LIG    1        3.749   5.135  -0.797  0.00  0.00    -0.220 A 
ATOM      4  C   LIG    1        2.410   4.856  -1.020  0.00  0.00    +0.020 A 
ATOM      5  N   LIG    1        2.150   3.631  -0.466  0.00  0.00    -0.300 N 
ATOM      6  N   LIG    1        3.333   3.154   0.106  0.00  0.00    -0.260 NA
ATOM      7  C   LIG    1        4.284   4.019  -0.082  0.00  0.00    +0.150 A 
ATOM      8  C   LIG    1        5.711   3.873   0.382  0.00  0.00    +0.180 C 
ATOM      9  S   LIG    1        1.664   6.183  -1.900  0.00  0.00    +0.210 S 
ENDROOT
BRANCH   5  10
ATOM     10  C   LIG    1        0.913   2.973  -0.467  0.00  0.00    +0.140 A 
ATOM     11  C   LIG    1        0.861   1.589  -0.571  0.00  0.00    +0.070 A 
ATOM     12  C   LIG    1       -0.359   0.942  -0.572  0.00  0.00    +0.020 A 
ATOM     13  C   LIG    1       -1.531   1.673  -0.473  0.00  0.00    +0.100 A 
ATOM     14  C   LIG    1       -1.482   3.053  -0.363  0.00  0.00    +0.020 A 
ATOM     15  F   LIG    1       -2.724   1.040  -0.480  0.00  0.00    -0.130 F 
ATOM     16  C   LIG    1       -0.263   3.703  -0.362  0.00  0.00    +0.040 A 
ENDBRANCH   5  10
BRANCH   1  21
ATOM     17  C   LIG    1        2.084  10.308  -3.785  0.00  0.00    +0.250 C 
ATOM     18  C   LIG    1        1.005   9.637  -4.646  0.00  0.00    +0.050 C 
ATOM     19  C   LIG    1        0.928   8.655  -3.473  0.00  0.00    +0.260 C 
ATOM     20  N   LIG    1        2.322   8.999  -3.157  0.00  0.00    -0.650 N 
ATOM     21  C   LIG    1        3.362   8.384  -2.560  0.00  0.00    +0.630 C 
ATOM     22  O   LIG    1        4.455   8.921  -2.537  0.00  0.00    -0.520 OA
BRANCH  17  23
ATOM     23  C   LIG    1        3.277  10.822  -4.592  0.00  0.00    +0.090 C 
BRANCH  23  27
ATOM     24  C   LIG    1        2.436  14.761  -6.022  0.00  0.00    +0.120 A 
ATOM     25  C   LIG    1        3.139  14.587  -4.839  0.00  0.00    -0.020 A 
ATOM     26  C   LIG    1        3.410  13.312  -4.379  0.00  0.00    +0.060 A 
ATOM     27  C   LIG    1        2.981  12.211  -5.096  0.00  0.00    -0.120 A 
ATOM     28  C   LIG    1        2.284  12.382  -6.279  0.00  0.00    +0.050 A 
ATOM     29  C   LIG    1        2.006  13.654  -6.740  0.00  0.00    -0.080 A 
BRANCH  24  31
ATOM     30  C   LIG    1        1.440  16.116  -7.702  0.00  0.00    +0.250 C 
ATOM     31  O   LIG    1        2.168  16.013  -6.477  0.00  0.00    -0.320 OA
ENDBRANCH  24  31
ENDBRANCH  23  27
ENDBRANCH  17  23
ENDBRANCH   1  21
TORSDOF 5
