REMARK  Name = ZINCvU0000000Ak1.0
REMARK                            x       y       z     vdW  Elec       q    Type
REMARK                         _______ _______ _______ _____ _____    ______ ____
ROOT
ATOM      1  C   LIG    1        1.208  -2.123  -0.034  0.00  0.00    +0.320 C 
ENDROOT
BRANCH   1   6
ATOM      2  C   LIG    1        4.611  -3.278   1.136  0.00  0.00    +0.140 A 
ATOM      3  C   LIG    1        5.261  -3.486  -0.074  0.00  0.00    +0.030 A 
ATOM      4  C   LIG    1        4.596  -3.252  -1.262  0.00  0.00    +0.030 A 
ATOM      5  C   LIG    1        3.284  -2.816  -1.248  0.00  0.00    +0.020 A 
ATOM      6  C   LIG    1        2.636  -2.603  -0.045  0.00  0.00    -0.090 A 
ATOM      7  C   LIG    1        3.295  -2.835   1.147  0.00  0.00    +0.010 A 
BRANCH   2  10
ATOM      8  O   LIG    1        6.454  -5.173   1.444  0.00  0.00    -0.510 OA
ATOM      9  C   LIG    1        6.171  -4.522   2.430  0.00  0.00    +0.570 C 
ATOM     10  N   LIG    1        5.281  -3.514   2.340  0.00  0.00    -0.670 N 
ATOM     11  H   LIG    1        5.105  -2.951   3.111  0.00  0.00    +0.410 HD
BRANCH   9  12
ATOM     12  C   LIG    1        6.803  -4.836   3.729  0.00  0.00    -0.190 A 
ATOM     13  C   LIG    1        7.724  -5.885   3.838  0.00  0.00    +0.140 A 
ATOM     14  C   LIG    1        8.291  -6.135   5.075  0.00  0.00    -0.030 A 
ATOM     15  C   LIG    1        7.924  -5.355   6.157  0.00  0.00    +0.300 A 
ATOM     16  N   LIG    1        7.049  -4.376   6.027  0.00  0.00    -0.490 NA
ATOM     17  C   LIG    1        6.486  -4.096   4.870  0.00  0.00    +0.300 A 
ENDBRANCH   9  12
ENDBRANCH   2  10
ENDBRANCH   1   6
BRANCH   1  18
ATOM     18  N   LIG    1        1.185  -0.658  -0.019  0.00  0.00    -0.720 N 
ATOM     19  H   LIG    1        2.017  -0.160  -0.017  0.00  0.00    +0.410 HD
ATOM     20  C   LIG    1        0.007  -0.002  -0.007  0.00  0.00    +0.610 C 
ATOM     21  O   LIG    1       -1.037  -0.627  -0.009  0.00  0.00    -0.520 OA
BRANCH  20  22
ATOM     22  C   LIG    1       -0.015   1.463   0.008  0.00  0.00    -0.080 A 
ATOM     23  C   LIG    1       -1.143   2.254   0.015  0.00  0.00    +0.060 A 
ATOM     24  C   LIG    1       -0.704   3.582   0.033  0.00  0.00    -0.030 A 
ATOM     25  C   LIG    1        0.661   3.553   0.027  0.00  0.00    +0.060 A 
ATOM     26  O   LIG    1        1.065   2.272   0.012  0.00  0.00    -0.150 OA
BRANCH  25  27
ATOM     27  C   LIG    1        1.547   4.735   0.035  0.00  0.00    -0.020 A 
ATOM     28  C   LIG    1        1.346   5.769  -0.881  0.00  0.00    +0.060 A 
ATOM     29  C   LIG    1        2.175   6.872  -0.865  0.00  0.00    +0.030 A 
ATOM     30  C   LIG    1        3.209   6.951   0.050  0.00  0.00    +0.050 A 
ATOM     31  C   LIG    1        3.419   5.929   0.958  0.00  0.00    +0.030 A 
ATOM     32  C   LIG    1        2.595   4.821   0.957  0.00  0.00    -0.010 A 
ATOM     33 CL   LIG    1        2.859   3.538   2.097  0.00  0.00    -0.050 Cl
ENDBRANCH  25  27
ENDBRANCH  20  22
ENDBRANCH   1  18
TORSDOF 6
