REMARK  Name = ZINCkj000005hlhW.0
REMARK                            x       y       z     vdW  Elec       q    Type
REMARK                         _______ _______ _______ _____ _____    ______ ____
ROOT
ATOM      1  N   LIG    1        1.143   1.901   0.001  0.00  0.00    -0.740 N 
ATOM      2  H   LIG    1        1.130   2.871   0.007  0.00  0.00    +0.400 HD
ATOM      3  C   LIG    1       -0.014   1.212   0.009  0.00  0.00    +0.710 C 
ATOM      4  N   LIG    1       -1.191   1.870   0.018  0.00  0.00    -0.650 N 
ATOM      5  H   LIG    1       -1.204   2.840   0.023  0.00  0.00    +0.410 HD
ATOM      6  O   LIG    1        0.002  -0.004   0.002  0.00  0.00    -0.570 OA
ENDROOT
BRANCH   1  11
ATOM      7  C   LIG    1        6.521   0.445   0.883  0.00  0.00    +0.310 C 
ATOM      8  N   LIG    1        5.192   1.067   0.826  0.00  0.00    -0.390 N 
ATOM      9  C   LIG    1        4.849   1.359  -0.571  0.00  0.00    +0.270 C 
ATOM     10  C   LIG    1        3.502   2.081  -0.630  0.00  0.00    +0.050 C 
ATOM     11  C   LIG    1        2.422   1.186  -0.015  0.00  0.00    +0.270 C 
ATOM     12  C   LIG    1        2.826   0.828   1.418  0.00  0.00    +0.050 C 
ATOM     13  C   LIG    1        4.199   0.152   1.401  0.00  0.00    +0.260 C 
ATOM     14  H   LIG    1        5.201   1.926   1.355  0.00  0.00    +0.420 HD
ENDBRANCH   1  11
BRANCH   4  15
ATOM     15  C   LIG    1       -2.401   1.149   0.020  0.00  0.00    +0.010 A 
ATOM     16  C   LIG    1       -3.649   1.683   0.029  0.00  0.00    +0.210 A 
ATOM     17  N   LIG    1       -4.535   0.653   0.026  0.00  0.00    -0.380 N 
ATOM     18  N   LIG    1       -3.805  -0.543   0.016  0.00  0.00    -0.260 NA
ATOM     19  C   LIG    1       -2.530  -0.247   0.007  0.00  0.00    +0.270 A 
BRANCH  17  20
ATOM     20  C   LIG    1       -5.995   0.772   0.034  0.00  0.00    +0.330 C 
BRANCH  20  21
ATOM     21  C   LIG    1       -6.576  -0.005  -1.150  0.00  0.00    +0.370 C 
ATOM     22  F   LIG    1       -7.958   0.202  -1.210  0.00  0.00    -0.190 F 
ATOM     23  F   LIG    1       -6.314  -1.369  -0.986  0.00  0.00    -0.190 F 
ENDBRANCH  20  21
ENDBRANCH  17  20
ENDBRANCH   4  15
TORSDOF 4
