REMARK  Name = ZINCrg000000qKNz.0
REMARK                            x       y       z     vdW  Elec       q    Type
REMARK                         _______ _______ _______ _____ _____    ______ ____
ROOT
ATOM      1  N   LIG    1       -6.256   1.602  -5.466  0.00  0.00    -0.730 N 
ATOM      2  H   LIG    1       -6.156   2.420  -5.978  0.00  0.00    +0.400 HD
ATOM      3  C   LIG    1       -5.302   1.235  -4.588  0.00  0.00    +0.500 C 
ATOM      4  O   LIG    1       -5.428   0.213  -3.948  0.00  0.00    -0.520 OA
ENDROOT
BRANCH   1   5
ATOM      5  C   LIG    1       -7.446   0.766  -5.647  0.00  0.00    +0.260 C 
BRANCH   5   6
ATOM      6  C   LIG    1       -8.364   1.404  -6.692  0.00  0.00    +0.070 C 
BRANCH   6  10
ATOM      7  C   LIG    1      -11.839  -1.032  -7.215  0.00  0.00    +0.100 A 
ATOM      8  C   LIG    1      -11.833  -0.024  -6.264  0.00  0.00    -0.030 A 
ATOM      9  C   LIG    1      -10.707   0.762  -6.098  0.00  0.00    +0.020 A 
ATOM     10  C   LIG    1       -9.587   0.545  -6.878  0.00  0.00    -0.080 A 
ATOM     11  C   LIG    1       -9.589  -0.456  -7.832  0.00  0.00    -0.030 A 
ATOM     12  C   LIG    1      -10.711  -1.251  -8.000  0.00  0.00    +0.100 A 
BRANCH   7  14
ATOM     13  C   LIG    1      -14.065  -1.525  -6.538  0.00  0.00    +0.250 C 
ATOM     14  O   LIG    1      -12.945  -1.807  -7.380  0.00  0.00    -0.310 OA
ENDBRANCH   7  14
BRANCH  12  15
ATOM     15  O   LIG    1      -10.712  -2.239  -8.934  0.00  0.00    -0.310 OA
ATOM     16  C   LIG    1       -9.519  -2.406  -9.703  0.00  0.00    +0.250 C 
ENDBRANCH  12  15
ENDBRANCH   6  10
ENDBRANCH   5   6
ENDBRANCH   1   5
BRANCH   3  17
ATOM     17  C   LIG    1       -4.078   2.095  -4.402  0.00  0.00    +0.360 C 
BRANCH  17  18
ATOM     18  N   LIG    1       -3.200   1.484  -3.402  0.00  0.00    -0.560 N 
ATOM     19  C   LIG    1       -2.231   0.607  -3.688  0.00  0.00    +0.710 C 
ATOM     20  N   LIG    1       -1.568   0.198  -2.591  0.00  0.00    -0.710 N 
ATOM     21  H   LIG    1       -0.831  -0.432  -2.560  0.00  0.00    +0.440 HD
ATOM     22  C   LIG    1       -2.179   0.893  -1.445  0.00  0.00    +0.160 C 
ATOM     23  C   LIG    1       -2.780  -0.114  -0.462  0.00  0.00    +0.090 C 
ATOM     24  O   LIG    1       -1.978   0.223  -4.812  0.00  0.00    -0.540 OA
ATOM     25  C   LIG    1       -3.269   1.737  -2.076  0.00  0.00    +0.540 C 
ATOM     26  O   LIG    1       -4.040   2.482  -1.509  0.00  0.00    -0.450 OA
BRANCH  22  27
ATOM     27  C   LIG    1       -1.150   1.781  -0.743  0.00  0.00    -0.050 C 
ATOM     28  C   LIG    1       -0.013   1.086   0.008  0.00  0.00    +0.040 C 
ATOM     29  C   LIG    1       -1.136   1.773   0.788  0.00  0.00    +0.050 C 
ENDBRANCH  22  27
ENDBRANCH  17  18
ENDBRANCH   3  17
TORSDOF 8
