REMARK  Name = ZINCpk000005Ts2N.0
REMARK                            x       y       z     vdW  Elec       q    Type
REMARK                         _______ _______ _______ _____ _____    ______ ____
ROOT
ATOM      1  N   LIG    1        8.072   1.864  -1.030  0.00  0.00    -0.480 N 
ATOM      2  C   LIG    1        7.255   3.078  -1.161  0.00  0.00    +0.190 C 
ATOM      3  C   LIG    1        6.230   3.125  -0.024  0.00  0.00    +0.310 C 
ATOM      4  N   LIG    1        5.474   1.864  -0.023  0.00  0.00    -0.610 N 
ATOM      5  C   LIG    1        6.227   0.601  -0.025  0.00  0.00    +0.310 C 
ATOM      6  C   LIG    1        4.126   1.866  -0.016  0.00  0.00    +0.680 C 
ATOM      7  O   LIG    1        3.518   2.922  -0.009  0.00  0.00    -0.650 OA
ATOM      8  C   LIG    1        7.252   0.653  -1.169  0.00  0.00    +0.200 C 
ENDROOT
BRANCH   6   9
ATOM      9  N   LIG    1        3.455   0.708  -0.016  0.00  0.00    -0.660 NA
ATOM     10  C   LIG    1        2.126   0.709  -0.009  0.00  0.00    +0.500 A 
ATOM     11  C   LIG    1        1.288  -0.426  -0.007  0.00  0.00    -0.090 A 
ATOM     12  C   LIG    1        0.002  -0.004   0.002  0.00  0.00    +0.160 A 
ATOM     13  C   LIG    1       -1.417  -0.536   0.005  0.00  0.00    +0.150 C 
ATOM     14  C   LIG    1       -2.280   0.675  -0.413  0.00  0.00    +0.070 C 
ATOM     15  C   LIG    1       -1.399   1.863   0.031  0.00  0.00    +0.310 C 
ATOM     16  N   LIG    1       -0.016   1.359   0.009  0.00  0.00    -0.420 N 
ATOM     17  N   LIG    1        1.313   1.816  -0.001  0.00  0.00    -0.460 N 
ATOM     18  H   LIG    1        1.603   2.741  -0.002  0.00  0.00    +0.450 HD
ENDBRANCH   6   9
BRANCH   1  22
ATOM     19  C   LIG    1       11.143   1.944  -3.773  0.00  0.00    +0.150 A 
ATOM     20  C   LIG    1       11.043   0.844  -2.920  0.00  0.00    +0.060 A 
ATOM     21  C   LIG    1       10.022   0.804  -1.989  0.00  0.00    +0.050 A 
ATOM     22  C   LIG    1        9.119   1.865  -1.948  0.00  0.00    +0.090 A 
ATOM     23  C   LIG    1        9.281   2.931  -2.831  0.00  0.00    +0.230 A 
ATOM     24  N   LIG    1       10.267   2.941  -3.700  0.00  0.00    -0.420 NA
BRANCH  19  26
ATOM     25  N   LIG    1       13.039   2.044  -5.502  0.00  0.00    -0.390 NA
ATOM     26  C   LIG    1       12.200   2.000  -4.737  0.00  0.00    +0.270 C 
ENDBRANCH  19  26
ENDBRANCH   1  22
TORSDOF 3
