REMARK  Name = ZINCrH000004motP.0
REMARK                            x       y       z     vdW  Elec       q    Type
REMARK                         _______ _______ _______ _____ _____    ______ ____
ROOT
ATOM      1  N   LIG    1        0.897  -0.920  -0.846  0.00  0.00    -0.620 N 
ATOM      2  H   LIG    1        1.226  -0.463  -1.635  0.00  0.00    +0.430 HD
ATOM      3  C   LIG    1        0.133  -0.260   0.047  0.00  0.00    +0.510 C 
ATOM      4  O   LIG    1       -0.353  -0.855   0.986  0.00  0.00    -0.500 OA
ENDROOT
BRANCH   1   8
ATOM      5  C   LIG    1        2.139  -4.248  -1.061  0.00  0.00    +0.120 A 
ATOM      6  C   LIG    1        1.557  -4.614   0.095  0.00  0.00    -0.250 A 
ATOM      7  S   LIG    1        0.696  -3.221   0.745  0.00  0.00    +0.200 S 
ATOM      8  C   LIG    1        1.215  -2.257  -0.635  0.00  0.00    +0.270 A 
ATOM      9  C   LIG    1        1.629  -5.981   0.726  0.00  0.00    +0.160 C 
ATOM     10  N   LIG    1        1.935  -2.990  -1.425  0.00  0.00    -0.490 NA
BRANCH   5  14
ATOM     11  C   LIG    1        4.458  -6.945  -3.393  0.00  0.00    +0.130 A 
ATOM     12  C   LIG    1        4.904  -5.646  -3.189  0.00  0.00    -0.020 A 
ATOM     13  C   LIG    1        4.154  -4.769  -2.433  0.00  0.00    +0.080 A 
ATOM     14  C   LIG    1        2.947  -5.188  -1.875  0.00  0.00    -0.060 A 
ATOM     15  C   LIG    1        2.506  -6.495  -2.077  0.00  0.00    +0.070 A 
ATOM     16  C   LIG    1        3.258  -7.365  -2.838  0.00  0.00    -0.080 A 
BRANCH  11  18
ATOM     17  C   LIG    1        4.683  -9.128  -4.308  0.00  0.00    +0.250 C 
ATOM     18  O   LIG    1        5.200  -7.806  -4.138  0.00  0.00    -0.320 OA
ENDBRANCH  11  18
ENDBRANCH   5  14
ENDBRANCH   1   8
BRANCH   3  19
ATOM     19  C   LIG    1       -0.117   1.216  -0.121  0.00  0.00    +0.260 C 
BRANCH  19  20
ATOM     20  C   LIG    1       -1.246   1.430  -1.132  0.00  0.00    -0.010 C 
ATOM     21  C   LIG    1       -1.526   2.937  -1.301  0.00  0.00    +0.040 C 
ATOM     22  C   LIG    1       -3.064   3.022  -1.465  0.00  0.00    +0.010 C 
ATOM     23  C   LIG    1       -3.573   1.942  -0.479  0.00  0.00    +0.010 C 
ATOM     24  C   LIG    1       -2.548   0.797  -0.609  0.00  0.00    +0.010 C 
ENDBRANCH  19  20
BRANCH  19  25
ATOM     25  N   LIG    1       -0.500   1.797   1.168  0.00  0.00    -0.710 N 
ATOM     26  H   LIG    1       -1.040   1.284   1.790  0.00  0.00    +0.410 HD
ATOM     27  C   LIG    1       -0.101   3.043   1.491  0.00  0.00    +0.520 C 
ATOM     28  O   LIG    1        0.491   3.720   0.677  0.00  0.00    -0.540 OA
ATOM     29  C   LIG    1       -0.389   3.595   2.863  0.00  0.00    +0.110 C 
ENDBRANCH  19  25
ENDBRANCH   3  19
TORSDOF 6
