REMARK  Name = ZINCtV00001bB3uy.0
REMARK                            x       y       z     vdW  Elec       q    Type
REMARK                         _______ _______ _______ _____ _____    ______ ____
ROOT
ATOM      1  C   LIG    1        7.920  -3.266   0.436  0.00  0.00    -0.150 C 
ATOM      2  C   LIG    1        6.711  -3.733  -0.032  0.00  0.00    +0.270 C 
ENDROOT
BRANCH   2   3
ATOM      3  C   LIG    1        5.545  -2.846  -0.062  0.00  0.00    -0.150 A 
ATOM      4  C   LIG    1        4.254  -3.376   0.074  0.00  0.00    +0.110 A 
ATOM      5  C   LIG    1        3.171  -2.544   0.046  0.00  0.00    -0.020 A 
ATOM      6  C   LIG    1        3.347  -1.174  -0.118  0.00  0.00    +0.170 A 
ATOM      7  C   LIG    1        4.625  -0.643  -0.260  0.00  0.00    -0.070 A 
ATOM      8  C   LIG    1        5.716  -1.464  -0.227  0.00  0.00    +0.090 A 
BRANCH   6   9
ATOM      9  O   LIG    1        2.267  -0.353  -0.145  0.00  0.00    -0.300 OA
BRANCH   9  10
ATOM     10  C   LIG    1        2.519   1.044  -0.317  0.00  0.00    +0.270 C 
BRANCH  10  11
ATOM     11  C   LIG    1        1.211   1.792  -0.322  0.00  0.00    -0.090 A 
ATOM     12  C   LIG    1        0.021   1.105  -0.174  0.00  0.00    +0.050 A 
ATOM     13  C   LIG    1       -1.180   1.792  -0.185  0.00  0.00    +0.020 A 
ATOM     14  C   LIG    1       -1.190   3.166  -0.334  0.00  0.00    +0.040 A 
ATOM     15  C   LIG    1        0.000   3.854  -0.481  0.00  0.00    +0.030 A 
ATOM     16  C   LIG    1        1.201   3.167  -0.476  0.00  0.00    -0.030 A 
ATOM     17 CL   LIG    1        2.696   4.031  -0.661  0.00  0.00    -0.060 Cl
ENDBRANCH  10  11
ENDBRANCH   9  10
ENDBRANCH   6   9
ENDBRANCH   2   3
BRANCH   1  18
ATOM     18  C   LIG    1        9.124  -4.103   0.325  0.00  0.00    +0.580 C 
ATOM     19  N   LIG    1       10.307  -3.646   0.783  0.00  0.00    -0.670 N 
ATOM     20  H   LIG    1       10.350  -2.798   1.252  0.00  0.00    +0.410 HD
ATOM     21  O   LIG    1        9.053  -5.207  -0.180  0.00  0.00    -0.510 OA
BRANCH  19  22
ATOM     22  C   LIG    1       11.471  -4.394   0.582  0.00  0.00    +0.180 A 
ATOM     23  C   LIG    1       11.415  -5.782   0.580  0.00  0.00    +0.030 A 
ATOM     24  C   LIG    1       12.566  -6.518   0.381  0.00  0.00    +0.060 A 
ATOM     25  C   LIG    1       13.774  -5.875   0.183  0.00  0.00    +0.000 A 
ATOM     26  C   LIG    1       13.834  -4.494   0.184  0.00  0.00    +0.060 A 
ATOM     27  C   LIG    1       12.685  -3.751   0.377  0.00  0.00    -0.130 A 
ATOM     28  I   LIG    1       12.776  -1.658   0.368  0.00  0.00    -0.040 I 
ENDBRANCH  19  22
ENDBRANCH   1  18
BRANCH   1  30
ATOM     29  N   LIG    1        8.070  -0.934   1.503  0.00  0.00    -0.400 NA
ATOM     30  C   LIG    1        8.003  -1.966   1.031  0.00  0.00    +0.240 C 
ENDBRANCH   1  30
TORSDOF 7
