REMARK  Name = ZINCrg000000tRUg.0
REMARK                            x       y       z     vdW  Elec       q    Type
REMARK                         _______ _______ _______ _____ _____    ______ ____
ROOT
ATOM      1  O   LIG    1        4.558   0.709   2.646  0.00  0.00    -0.520 OA
ATOM      2  C   LIG    1        3.559   1.395   2.692  0.00  0.00    +0.520 C 
ATOM      3  C   LIG    1        2.269   1.096   1.960  0.00  0.00    +0.070 C 
ATOM      4  C   LIG    1        1.492   2.432   2.001  0.00  0.00    -0.010 C 
ATOM      5  C   LIG    1        2.097   3.112   3.249  0.00  0.00    +0.300 C 
ATOM      6  N   LIG    1        3.436   2.530   3.401  0.00  0.00    -0.620 N 
ENDROOT
BRANCH   4   7
ATOM      7  C   LIG    1        0.015   2.192   2.179  0.00  0.00    +0.530 C 
ATOM      8  N   LIG    1       -0.684   1.551   1.222  0.00  0.00    -0.610 N 
ATOM      9  C   LIG    1       -0.013   1.086   0.008  0.00  0.00    +0.270 C 
ATOM     10  C   LIG    1       -0.737   1.584  -1.238  0.00  0.00    +0.280 C 
ATOM     11  N   LIG    1       -2.189   1.585  -1.027  0.00  0.00    -0.620 N 
ATOM     12  C   LIG    1       -3.097   1.197  -1.945  0.00  0.00    +0.520 C 
ATOM     13  C   LIG    1       -4.497   1.343  -1.394  0.00  0.00    +0.070 C 
ATOM     14  C   LIG    1       -4.292   1.453   0.135  0.00  0.00    +0.060 C 
ATOM     15  O   LIG    1       -2.828   0.788  -3.054  0.00  0.00    -0.530 OA
ATOM     16  C   LIG    1       -2.850   1.989   0.223  0.00  0.00    +0.210 C 
ATOM     17  C   LIG    1       -2.116   1.325   1.394  0.00  0.00    +0.290 C 
ATOM     18  O   LIG    1       -0.545   2.577   3.184  0.00  0.00    -0.520 OA
ENDBRANCH   4   7
BRANCH   6  19
ATOM     19  C   LIG    1        4.502   3.113   4.220  0.00  0.00    +0.300 C 
BRANCH  19  20
ATOM     20  C   LIG    1        5.332   4.075   3.367  0.00  0.00    +0.060 C 
BRANCH  20  21
ATOM     21  C   LIG    1        6.428   4.674   4.209  0.00  0.00    -0.100 A 
ATOM     22  C   LIG    1        6.205   5.852   4.897  0.00  0.00    +0.040 A 
ATOM     23  C   LIG    1        7.208   6.400   5.674  0.00  0.00    -0.010 A 
ATOM     24  C   LIG    1        8.441   5.774   5.754  0.00  0.00    +0.100 A 
ATOM     25  C   LIG    1        8.665   4.598   5.059  0.00  0.00    -0.010 A 
ATOM     26  F   LIG    1        9.424   6.312   6.509  0.00  0.00    -0.140 F 
ATOM     27  C   LIG    1        7.659   4.049   4.287  0.00  0.00    +0.050 A 
ENDBRANCH  20  21
ENDBRANCH  19  20
ENDBRANCH   6  19
TORSDOF 4
