REMARK  Name = ZINCqH0000037rIB.0
REMARK                            x       y       z     vdW  Elec       q    Type
REMARK                         _______ _______ _______ _____ _____    ______ ____
ROOT
ATOM      1  N   LIG    1       -2.806  -3.080   0.834  0.00  0.00    -0.520 NA
ATOM      2  C   LIG    1       -2.575  -2.735  -0.575  0.00  0.00    +0.180 C 
ATOM      3  C   LIG    1       -1.279  -1.931  -0.699  0.00  0.00    +0.060 C 
ATOM      4  C   LIG    1       -1.391  -0.659   0.146  0.00  0.00    -0.040 C 
ATOM      5  C   LIG    1       -1.680  -1.043   1.600  0.00  0.00    +0.060 C 
ATOM      6  C   LIG    1       -2.964  -1.874   1.657  0.00  0.00    +0.180 C 
ENDROOT
BRANCH   4   7
ATOM      7  C   LIG    1       -0.095   0.108   0.076  0.00  0.00    +0.400 C 
ATOM      8  O   LIG    1        0.940  -0.472  -0.173  0.00  0.00    -0.440 OA
BRANCH   7   9
ATOM      9  C   LIG    1       -0.086   1.560   0.310  0.00  0.00    -0.170 A 
ATOM     10  C   LIG    1       -1.280   2.234   0.592  0.00  0.00    +0.080 A 
ATOM     11  C   LIG    1       -1.263   3.594   0.815  0.00  0.00    +0.020 A 
ATOM     12  C   LIG    1       -0.070   4.295   0.750  0.00  0.00    -0.010 A 
ATOM     13  C   LIG    1        1.115   3.636   0.466  0.00  0.00    +0.020 A 
ATOM     14 CL   LIG    1       -0.060   6.009   1.025  0.00  0.00    -0.060 Cl
ATOM     15  C   LIG    1        1.114   2.275   0.245  0.00  0.00    +0.090 A 
ENDBRANCH   7   9
ENDBRANCH   4   7
BRANCH   1  16
ATOM     16  C   LIG    1       -3.967  -3.969   0.975  0.00  0.00    +0.210 C 
BRANCH  16  23
ATOM     17  C   LIG    1       -7.831  -6.917   2.127  0.00  0.00    +0.030 C 
ATOM     18  C   LIG    1       -6.375  -7.100   1.693  0.00  0.00    -0.030 C 
ATOM     19  C   LIG    1       -6.221  -8.446   0.981  0.00  0.00    +0.030 C 
ATOM     20  C   LIG    1       -4.758  -8.645   0.576  0.00  0.00    -0.040 C 
ATOM     21  C   LIG    1       -4.345  -7.534  -0.395  0.00  0.00    +0.280 C 
ATOM     22  N   LIG    1       -4.627  -6.233   0.228  0.00  0.00    -0.620 N 
ATOM     23  C   LIG    1       -3.662  -5.298   0.333  0.00  0.00    +0.510 C 
ATOM     24  O   LIG    1       -2.548  -5.527  -0.089  0.00  0.00    -0.520 OA
ATOM     25  C   LIG    1       -4.598 -10.005  -0.107  0.00  0.00    +0.030 C 
ATOM     26  C   LIG    1       -5.979  -5.973   0.741  0.00  0.00    +0.260 C 
ENDBRANCH  16  23
ENDBRANCH   1  16
TORSDOF 4
