REMARK  Name = ZINCkj000005lcp0.0
REMARK                            x       y       z     vdW  Elec       q    Type
REMARK                         _______ _______ _______ _____ _____    ______ ____
ROOT
ATOM      1  N   LIG    1       -0.101   6.457  -1.544  0.00  0.00    -1.120 NA
ATOM      2  H   LIG    1        0.651   6.952  -1.907  0.00  0.00    +0.420 HD
ENDROOT
BRANCH   1   3
ATOM      3  C   LIG    1       -1.254   6.151  -2.393  0.00  0.00    +0.270 C 
ATOM      4  C   LIG    1       -0.981   4.870  -3.183  0.00  0.00    +0.010 C 
ATOM      5  C   LIG    1        0.259   5.066  -4.058  0.00  0.00    +0.020 C 
ATOM      6  C   LIG    1        0.019   6.223  -5.030  0.00  0.00    +0.030 C 
ATOM      7  C   LIG    1       -0.254   7.504  -4.240  0.00  0.00    +0.010 C 
ATOM      8  C   LIG    1       -1.494   7.308  -3.365  0.00  0.00    -0.010 C 
BRANCH   8   9
ATOM      9  C   LIG    1       -1.768   8.589  -2.575  0.00  0.00    +0.270 C 
BRANCH   9  10
ATOM     10  N   LIG    1       -2.115   9.673  -3.504  0.00  0.00    -0.640 N 
ATOM     11  H   LIG    1       -1.349   9.828  -4.141  0.00  0.00    +0.430 HD
ATOM     12  H   LIG    1       -2.296  10.518  -2.983  0.00  0.00    +0.440 HD
ATOM     13  H   LIG    1       -2.940   9.417  -4.026  0.00  0.00    +0.440 HD
ENDBRANCH   9  10
ENDBRANCH   8   9
ENDBRANCH   1   3
BRANCH   1  14
ATOM     14  S   LIG    1       -0.079   5.959   0.035  0.00  0.00    +2.690 S 
ATOM     15  O   LIG    1        1.171   6.374   0.570  0.00  0.00    -0.940 OA
ATOM     16  O   LIG    1       -1.329   6.340   0.594  0.00  0.00    -0.950 OA
BRANCH  14  20
ATOM     17  C   LIG    1       -0.017   1.428   0.010  0.00  0.00    +0.050 A 
ATOM     18  C   LIG    1       -1.234   2.113   0.019  0.00  0.00    +0.060 A 
ATOM     19  C   LIG    1       -1.246   3.492   0.033  0.00  0.00    +0.130 A 
ATOM     20  C   LIG    1       -0.055   4.197   0.025  0.00  0.00    -0.660 A 
ATOM     21  C   LIG    1        1.154   3.525   0.010  0.00  0.00    +0.140 A 
ATOM     22  C   LIG    1        1.180   2.146   0.002  0.00  0.00    +0.060 A 
BRANCH  17  24
ATOM     23  N   LIG    1        0.018  -1.140  -0.004  0.00  0.00    -0.380 NA
ATOM     24  C   LIG    1        0.002  -0.004   0.002  0.00  0.00    +0.230 C 
ENDBRANCH  17  24
ENDBRANCH  14  20
ENDBRANCH   1  14
TORSDOF 6
