REMARK  Name = ZINCrg00000c6pYo.1
REMARK                            x       y       z     vdW  Elec       q    Type
REMARK                         _______ _______ _______ _____ _____    ______ ____
ROOT
ATOM      1  O   LIG    1       -1.922  -1.626   1.964  0.00  0.00    -0.530 OA
ATOM      2  C   LIG    1       -1.714  -2.324   0.994  0.00  0.00    +0.520 C 
ATOM      3  N   LIG    1       -1.395  -1.758  -0.187  0.00  0.00    -0.600 N 
ATOM      4  C   LIG    1       -1.148  -2.586  -1.335  0.00  0.00    +0.280 C 
ATOM      5  C   LIG    1        0.338  -3.005  -1.455  0.00  0.00    +0.280 C 
ATOM      6  N   LIG    1        1.208  -1.857  -1.077  0.00  0.00    -0.600 N 
ATOM      7  C   LIG    1        0.898  -0.508  -1.455  0.00  0.00    +0.270 C 
ATOM      8  C   LIG    1        0.110   0.139  -0.304  0.00  0.00    +0.140 C 
ATOM      9  C   LIG    1        2.322  -2.093  -0.356  0.00  0.00    +0.590 C 
ATOM     10  O   LIG    1        2.594  -3.228  -0.011  0.00  0.00    -0.520 OA
ATOM     11  C   LIG    1       -1.299  -0.284  -0.300  0.00  0.00    +0.320 C 
ENDROOT
BRANCH   9  12
ATOM     12  C   LIG    1        3.205  -0.983   0.013  0.00  0.00    -0.280 A 
ATOM     13  C   LIG    1        4.439  -1.108   0.587  0.00  0.00    +0.130 A 
ATOM     14  C   LIG    1        5.052   0.098   0.827  0.00  0.00    -0.010 A 
ATOM     15  C   LIG    1        4.347   1.176   0.462  0.00  0.00    -0.170 A 
ATOM     16  S   LIG    1        2.850   0.724  -0.220  0.00  0.00    +0.190 S 
BRANCH  15  17
ATOM     17  C   LIG    1        4.815   2.599   0.627  0.00  0.00    +0.030 C 
ATOM     18  C   LIG    1        3.804   3.712   0.348  0.00  0.00    +0.030 C 
ATOM     19  C   LIG    1        4.946   3.450  -0.637  0.00  0.00    +0.050 C 
ENDBRANCH  15  17
ENDBRANCH   9  12
BRANCH   8  20
ATOM     20  O   LIG    1        0.170   1.560  -0.440  0.00  0.00    -0.540 OA
ATOM     21  H   LIG    1        1.069   1.916  -0.450  0.00  0.00    +0.370 HD
ENDBRANCH   8  20
BRANCH   2  22
ATOM     22  C   LIG    1       -1.811  -3.823   1.110  0.00  0.00    +0.070 C 
BRANCH  22  23
ATOM     23  C   LIG    1       -2.184  -4.201   2.545  0.00  0.00    +0.190 C 
BRANCH  23  24
ATOM     24  C   LIG    1       -2.281  -5.700   2.661  0.00  0.00    +0.230 A 
ATOM     25  N   LIG    1       -3.363  -6.408   2.470  0.00  0.00    -0.310 NA
ATOM     26  N   LIG    1       -3.011  -7.752   2.675  0.00  0.00    -0.480 N 
ATOM     27  H   LIG    1       -3.595  -8.523   2.604  0.00  0.00    +0.440 HD
ATOM     28  C   LIG    1       -1.705  -7.756   2.993  0.00  0.00    +0.480 A 
ATOM     29  N   LIG    1       -1.280  -6.519   2.981  0.00  0.00    -0.540 NA
ENDBRANCH  23  24
ENDBRANCH  22  23
ENDBRANCH   2  22
TORSDOF 6
