REMARK  Name = ZINCrg00000c6pYo.0
REMARK                            x       y       z     vdW  Elec       q    Type
REMARK                         _______ _______ _______ _____ _____    ______ ____
ROOT
ATOM      1  O   LIG    1        0.959   2.781  -1.208  0.00  0.00    -0.530 OA
ATOM      2  C   LIG    1       -0.082   2.347  -1.654  0.00  0.00    +0.520 C 
ATOM      3  N   LIG    1       -0.724   1.348  -1.017  0.00  0.00    -0.600 N 
ATOM      4  C   LIG    1       -1.956   0.834  -1.547  0.00  0.00    +0.280 C 
ATOM      5  C   LIG    1       -3.195   1.594  -1.010  0.00  0.00    +0.280 C 
ATOM      6  N   LIG    1       -2.998   1.907   0.431  0.00  0.00    -0.600 N 
ATOM      7  C   LIG    1       -2.385   0.979   1.337  0.00  0.00    +0.270 C 
ATOM      8  C   LIG    1       -0.885   1.302   1.400  0.00  0.00    +0.140 C 
ATOM      9  C   LIG    1       -3.408   3.102   0.901  0.00  0.00    +0.590 C 
ATOM     10  O   LIG    1       -3.914   3.912   0.146  0.00  0.00    -0.520 OA
ATOM     11  C   LIG    1       -0.159   0.782   0.231  0.00  0.00    +0.320 C 
ENDROOT
BRANCH   9  12
ATOM     12  C   LIG    1       -3.245   3.426   2.321  0.00  0.00    -0.280 A 
ATOM     13  C   LIG    1       -3.770   4.521   2.949  0.00  0.00    +0.130 A 
ATOM     14  C   LIG    1       -3.465   4.577   4.289  0.00  0.00    +0.000 A 
ATOM     15  C   LIG    1       -2.709   3.570   4.741  0.00  0.00    -0.170 A 
ATOM     16  S   LIG    1       -2.338   2.474   3.488  0.00  0.00    +0.200 S 
BRANCH  15  17
ATOM     17  C   LIG    1       -2.246   3.423   6.168  0.00  0.00    +0.030 C 
ATOM     18  C   LIG    1       -1.222   2.328   6.470  0.00  0.00    +0.030 C 
ATOM     19  C   LIG    1       -2.675   2.164   6.924  0.00  0.00    +0.050 C 
ENDBRANCH  15  17
ENDBRANCH   9  12
BRANCH   8  20
ATOM     20  O   LIG    1       -0.338   0.719   2.584  0.00  0.00    -0.540 OA
ATOM     21  H   LIG    1       -0.765   1.013   3.401  0.00  0.00    +0.370 HD
ENDBRANCH   8  20
BRANCH   2  22
ATOM     22  C   LIG    1       -0.656   2.923  -2.923  0.00  0.00    +0.080 C 
BRANCH  22  23
ATOM     23  C   LIG    1        0.261   4.034  -3.439  0.00  0.00    +0.180 C 
BRANCH  23  24
ATOM     24  C   LIG    1       -0.313   4.610  -4.708  0.00  0.00    +0.180 A 
ATOM     25  N   LIG    1       -0.627   3.946  -5.786  0.00  0.00    -0.290 NA
ATOM     26  N   LIG    1       -1.093   4.754  -6.672  0.00  0.00    -0.290 NA
ATOM     27  C   LIG    1       -1.089   5.972  -6.201  0.00  0.00    +0.380 A 
ATOM     28  N   LIG    1       -0.593   5.915  -4.941  0.00  0.00    -0.580 N 
ATOM     29  H   LIG    1       -0.465   6.658  -4.331  0.00  0.00    +0.430 HD
ENDBRANCH  23  24
ENDBRANCH  22  23
ENDBRANCH   2  22
TORSDOF 6
