REMARK  Name = ZINCpk00001AZimi.0
REMARK                            x       y       z     vdW  Elec       q    Type
REMARK                         _______ _______ _______ _____ _____    ______ ____
ROOT
ATOM      1  N   LIG    1       -0.239   0.775  -0.288  0.00  0.00    -0.680 N 
ATOM      2  H   LIG    1       -0.390   0.007  -0.860  0.00  0.00    +0.410 HD
ATOM      3  C   LIG    1       -1.215   1.203   0.536  0.00  0.00    +0.710 C 
ATOM      4  N   LIG    1       -2.376   0.522   0.618  0.00  0.00    -0.740 N 
ATOM      5  H   LIG    1       -2.508  -0.276   0.083  0.00  0.00    +0.400 HD
ATOM      6  O   LIG    1       -1.050   2.204   1.206  0.00  0.00    -0.560 OA
ENDROOT
BRANCH   1  10
ATOM      7  C   LIG    1        3.422   2.759  -0.389  0.00  0.00    -0.160 A 
ATOM      8  C   LIG    1        3.374   1.370  -0.536  0.00  0.00    +0.100 A 
ATOM      9  C   LIG    1        2.163   0.718  -0.501  0.00  0.00    -0.030 A 
ATOM     10  C   LIG    1        0.987   1.439  -0.321  0.00  0.00    +0.190 A 
ATOM     11  C   LIG    1        1.030   2.822  -0.179  0.00  0.00    +0.010 A 
ATOM     12  C   LIG    1        2.239   3.481  -0.207  0.00  0.00    +0.100 A 
BRANCH   7  14
ATOM     13  N   LIG    1        4.840   4.682   0.135  0.00  0.00    -0.480 N 
ATOM     14  C   LIG    1        4.719   3.463  -0.425  0.00  0.00    +0.570 C 
ATOM     15  O   LIG    1        5.678   2.942  -0.962  0.00  0.00    -0.520 OA
ATOM     16  C   LIG    1        6.142   5.355   0.150  0.00  0.00    +0.320 C 
BRANCH  13  18
ATOM     17  C   LIG    1        3.591   5.118   2.121  0.00  0.00    +0.220 C 
ATOM     18  O   LIG    1        3.711   5.313   0.710  0.00  0.00    -0.140 OA
ENDBRANCH  13  18
ENDBRANCH   7  14
ENDBRANCH   1  10
BRANCH   4  19
ATOM     19  C   LIG    1       -3.437   0.988   1.514  0.00  0.00    +0.380 C 
BRANCH  19  20
ATOM     20  C   LIG    1       -4.619   0.058   1.418  0.00  0.00    +0.070 A 
ATOM     21  C   LIG    1       -4.982  -0.678   2.495  0.00  0.00    +0.010 A 
ATOM     22  C   LIG    1       -6.099  -1.545   2.395  0.00  0.00    +0.360 A 
ATOM     23  C   LIG    1       -6.791  -1.619   1.165  0.00  0.00    -0.150 A 
ATOM     24  C   LIG    1       -6.375  -0.862   0.125  0.00  0.00    +0.320 A 
ATOM     25  O   LIG    1       -6.454  -2.220   3.351  0.00  0.00    -0.520 OA
ATOM     26  N   LIG    1       -5.307  -0.038   0.251  0.00  0.00    -0.570 N 
ATOM     27  H   LIG    1       -5.028   0.495  -0.510  0.00  0.00    +0.420 HD
BRANCH  21  28
ATOM     28  O   LIG    1       -4.286  -0.583   3.661  0.00  0.00    -0.460 OA
ATOM     29  H   LIG    1       -4.625  -1.149   4.368  0.00  0.00    +0.410 HD
ENDBRANCH  21  28
ENDBRANCH  19  20
ENDBRANCH   4  19
TORSDOF 6
