REMARK  Name = ZINCtV00001bB3ja.0
REMARK                            x       y       z     vdW  Elec       q    Type
REMARK                         _______ _______ _______ _____ _____    ______ ____
ROOT
ATOM      1  C   LIG    1       -2.437   4.253  -0.260  0.00  0.00    +0.130 A 
ATOM      2  N   LIG    1       -2.539   5.540  -0.085  0.00  0.00    -0.460 NA
ATOM      3  C   LIG    1       -3.711   6.089  -0.354  0.00  0.00    +0.120 A 
ATOM      4  C   LIG    1       -4.668   5.237  -0.772  0.00  0.00    -0.070 A 
ATOM      5  S   LIG    1       -3.980   3.615  -0.820  0.00  0.00    +0.110 S 
ENDROOT
BRANCH   3   6
ATOM      6  C   LIG    1       -3.957   7.544  -0.200  0.00  0.00    -0.050 A 
ATOM      7  C   LIG    1       -5.211   8.075  -0.497  0.00  0.00    +0.070 A 
ATOM      8  C   LIG    1       -5.439   9.427  -0.349  0.00  0.00    -0.050 A 
ATOM      9  C   LIG    1       -4.417  10.261   0.085  0.00  0.00    +0.110 A 
ATOM     10  C   LIG    1       -3.166   9.736   0.377  0.00  0.00    +0.010 A 
ATOM     11  C   LIG    1       -2.934   8.384   0.236  0.00  0.00    +0.090 A 
BRANCH   9  12
ATOM     12  O   LIG    1       -4.643  11.594   0.226  0.00  0.00    -0.320 OA
BRANCH  12  13
ATOM     13  C   LIG    1       -5.953  12.067  -0.092  0.00  0.00    +0.590 C 
ATOM     14  F   LIG    1       -6.890  11.438   0.736  0.00  0.00    -0.200 F 
ATOM     15  F   LIG    1       -6.243  11.775  -1.429  0.00  0.00    -0.200 F 
ENDBRANCH  12  13
ENDBRANCH   9  12
ENDBRANCH   3   6
BRANCH   1  17
ATOM     16  C   LIG    1       -1.235   2.106  -0.236  0.00  0.00    +0.210 C 
ATOM     17  C   LIG    1       -1.220   3.455  -0.021  0.00  0.00    -0.040 C 
BRANCH  16  21
ATOM     18  C   LIG    1        3.699   0.851  -0.006  0.00  0.00    +0.130 C 
ATOM     19  C   LIG    1        2.193   0.795  -0.033  0.00  0.00    +0.020 A 
ATOM     20  C   LIG    1        1.377   1.857  -0.151  0.00  0.00    -0.020 A 
ATOM     21  C   LIG    1        0.005   1.334  -0.131  0.00  0.00    -0.190 A 
ATOM     22  C   LIG    1        0.123  -0.037   0.001  0.00  0.00    +0.090 A 
ATOM     23  C   LIG    1       -1.016  -1.021   0.069  0.00  0.00    +0.150 C 
ATOM     24  N   LIG    1        1.442  -0.340   0.058  0.00  0.00    -0.410 N 
BRANCH  24  25
ATOM     25  C   LIG    1        1.985  -1.694   0.197  0.00  0.00    +0.170 C 
ATOM     26  C   LIG    1        3.053  -2.134  -0.806  0.00  0.00    +0.050 C 
ATOM     27  C   LIG    1        1.637  -2.710  -0.893  0.00  0.00    +0.040 C 
ENDBRANCH  24  25
ENDBRANCH  16  21
BRANCH  17  28
ATOM     28  C   LIG    1       -0.022   4.094   0.436  0.00  0.00    +0.280 C 
ATOM     29  N   LIG    1        0.927   4.601   0.798  0.00  0.00    -0.420 NA
ENDBRANCH  17  28
ENDBRANCH   1  17
TORSDOF 7
