REMARK  Name = ZINCrg000000obxX.0
REMARK                            x       y       z     vdW  Elec       q    Type
REMARK                         _______ _______ _______ _____ _____    ______ ____
ROOT
ATOM      1  N   LIG    1        4.539   5.761  -0.012  0.00  0.00    -0.650 N 
ATOM      2  H   LIG    1        3.655   6.154   0.049  0.00  0.00    +0.420 HD
ATOM      3  C   LIG    1        4.676   4.433  -0.192  0.00  0.00    +0.570 C 
ATOM      4  O   LIG    1        5.779   3.953  -0.364  0.00  0.00    -0.490 OA
ENDROOT
BRANCH   3   5
ATOM      5  C   LIG    1        3.480   3.556  -0.180  0.00  0.00    +0.150 A 
ATOM      6  C   LIG    1        3.637   2.184  -0.366  0.00  0.00    +0.030 A 
ATOM      7  C   LIG    1        2.519   1.365  -0.355  0.00  0.00    +0.200 A 
ATOM      8  C   LIG    1        1.276   1.959  -0.154  0.00  0.00    -0.220 A 
ATOM      9  C   LIG    1        0.031   1.168  -0.126  0.00  0.00    +0.570 A 
ATOM     10  N   LIG    1       -1.136   1.822   0.069  0.00  0.00    -0.660 N 
ATOM     11  H   LIG    1       -1.966   1.321   0.086  0.00  0.00    +0.440 HD
ATOM     12  C   LIG    1       -1.165   3.152   0.243  0.00  0.00    +0.710 A 
ATOM     13  N   LIG    1       -0.060   3.917   0.226  0.00  0.00    -0.530 N 
ATOM     14  C   LIG    1       -0.179   5.364   0.419  0.00  0.00    +0.370 C 
ATOM     15  O   LIG    1       -2.240   3.691   0.419  0.00  0.00    -0.520 OA
ATOM     16  O   LIG    1        0.053  -0.038  -0.280  0.00  0.00    -0.480 OA
ATOM     17  C   LIG    1        1.189   3.353   0.029  0.00  0.00    +0.410 A 
ATOM     18  N   LIG    1        2.281   4.093   0.010  0.00  0.00    -0.490 NA
ENDBRANCH   3   5
BRANCH   1  22
ATOM     19  C   LIG    1        7.916   8.181   0.283  0.00  0.00    -0.140 A 
ATOM     20  C   LIG    1        6.751   8.673  -0.314  0.00  0.00    +0.110 A 
ATOM     21  C   LIG    1        5.637   7.871  -0.410  0.00  0.00    -0.010 A 
ATOM     22  C   LIG    1        5.669   6.571   0.086  0.00  0.00    +0.180 A 
ATOM     23  C   LIG    1        6.825   6.079   0.685  0.00  0.00    +0.000 A 
ATOM     24  C   LIG    1        7.944   6.875   0.780  0.00  0.00    +0.100 A 
BRANCH  19  25
ATOM     25  C   LIG    1        9.111   9.038   0.388  0.00  0.00    +0.510 C 
ATOM     26  O   LIG    1        9.084  10.174  -0.044  0.00  0.00    -0.510 OA
BRANCH  25  27
ATOM     27  O   LIG    1       10.233   8.562   0.963  0.00  0.00    -0.350 OA
BRANCH  27  29
ATOM     28  C   LIG    1       12.542   8.751   1.713  0.00  0.00    +0.070 C 
ATOM     29  C   LIG    1       11.370   9.462   1.033  0.00  0.00    +0.200 C 
ENDBRANCH  27  29
ENDBRANCH  25  27
ENDBRANCH  19  25
ENDBRANCH   1  22
TORSDOF 5
