REMARK  Name = ZINCpk00000dARI7.0
REMARK                            x       y       z     vdW  Elec       q    Type
REMARK                         _______ _______ _______ _____ _____    ______ ____
ROOT
ATOM      1  N   LIG    1       -5.891   6.846  -2.051  0.00  0.00    -0.490 N 
ATOM      2  C   LIG    1       -4.938   6.474  -3.105  0.00  0.00    +0.200 C 
ATOM      3  C   LIG    1       -4.595   4.986  -2.976  0.00  0.00    +0.300 C 
ATOM      4  N   LIG    1       -4.136   4.729  -1.603  0.00  0.00    -0.610 N 
ATOM      5  C   LIG    1       -4.978   5.192  -0.489  0.00  0.00    +0.290 C 
ATOM      6  C   LIG    1       -2.976   4.082  -1.371  0.00  0.00    +0.510 C 
ATOM      7  O   LIG    1       -2.297   3.703  -2.301  0.00  0.00    -0.520 OA
ATOM      8  C   LIG    1       -5.303   6.677  -0.716  0.00  0.00    +0.200 C 
ENDROOT
BRANCH   1  12
ATOM      9  C   LIG    1       -7.265  10.726  -2.591  0.00  0.00    -0.200 A 
ATOM     10  C   LIG    1       -7.721   9.964  -1.508  0.00  0.00    +0.110 A 
ATOM     11  C   LIG    1       -7.267   8.688  -1.334  0.00  0.00    -0.030 A 
ATOM     12  C   LIG    1       -6.351   8.144  -2.232  0.00  0.00    +0.150 A 
ATOM     13  C   LIG    1       -5.890   8.901  -3.307  0.00  0.00    -0.060 A 
ATOM     14  C   LIG    1       -6.343  10.176  -3.491  0.00  0.00    +0.090 A 
BRANCH   9  16
ATOM     15  C   LIG    1       -7.257  12.917  -3.946  0.00  0.00    +0.080 C 
ATOM     16  C   LIG    1       -7.750  12.098  -2.781  0.00  0.00    +0.400 C 
ATOM     17  O   LIG    1       -8.547  12.574  -2.000  0.00  0.00    -0.460 OA
ENDBRANCH   9  16
ENDBRANCH   1  12
BRANCH   6  18
ATOM     18  C   LIG    1       -2.525   3.830   0.045  0.00  0.00    +0.320 C 
BRANCH  18  19
ATOM     19  N   LIG    1       -1.246   3.116   0.029  0.00  0.00    -0.480 N 
ATOM     20  C   LIG    1       -0.085   3.819   0.022  0.00  0.00    +0.300 A 
ATOM     21  C   LIG    1        1.109   3.182   0.008  0.00  0.00    -0.080 A 
ATOM     22  C   LIG    1        1.155   1.781   0.001  0.00  0.00    +0.120 A 
ATOM     23  C   LIG    1       -0.013   1.076   0.008  0.00  0.00    -0.090 A 
ATOM     24  C   LIG    1       -1.235   1.769   0.018  0.00  0.00    +0.520 A 
ATOM     25  O   LIG    1       -2.287   1.151   0.019  0.00  0.00    -0.550 OA
ENDBRANCH  18  19
ENDBRANCH   6  18
TORSDOF 4
