REMARK  Name = ZINCqH0000003ZfY.0
REMARK                            x       y       z     vdW  Elec       q    Type
REMARK                         _______ _______ _______ _____ _____    ______ ____
ROOT
ATOM      1  C   LIG    1        0.402  -0.746   2.508  0.00  0.00    +0.520 C 
ATOM      2  N   LIG    1        0.139  -1.278   1.298  0.00  0.00    -0.680 N 
ATOM      3  H   LIG    1        0.038  -0.699   0.525  0.00  0.00    +0.420 HD
ATOM      4  O   LIG    1        0.609  -1.472   3.457  0.00  0.00    -0.500 OA
ENDROOT
BRANCH   2   5
ATOM      5  C   LIG    1        0.010  -2.663   1.155  0.00  0.00    +0.130 A 
ATOM      6  C   LIG    1       -0.541  -3.420   2.181  0.00  0.00    +0.080 A 
ATOM      7  C   LIG    1       -0.672  -4.787   2.034  0.00  0.00    +0.020 A 
ATOM      8  C   LIG    1       -0.244  -5.404   0.873  0.00  0.00    +0.100 A 
ATOM      9  C   LIG    1        0.311  -4.654  -0.148  0.00  0.00    -0.660 A 
ATOM     10  C   LIG    1        0.439  -3.286  -0.010  0.00  0.00    +0.090 A 
BRANCH   9  11
ATOM     11  S   LIG    1        0.854  -5.445  -1.626  0.00  0.00    +2.700 S 
ATOM     12  O   LIG    1        0.839  -4.451  -2.641  0.00  0.00    -0.950 OA
ATOM     13  O   LIG    1        0.127  -6.662  -1.720  0.00  0.00    -0.950 OA
BRANCH  11  14
ATOM     14  N   LIG    1        2.440  -5.863  -1.403  0.00  0.00    -1.000 NA
ATOM     15  C   LIG    1        3.504  -4.926  -1.773  0.00  0.00    +0.300 C 
ATOM     16  C   LIG    1        2.781  -7.171  -0.838  0.00  0.00    +0.300 C 
ENDBRANCH  11  14
ENDBRANCH   9  11
ENDBRANCH   2   5
BRANCH   1  17
ATOM     17  C   LIG    1        0.440   0.750   2.682  0.00  0.00    +0.050 C 
BRANCH  17  18
ATOM     18  C   LIG    1        0.937   1.083   4.065  0.00  0.00    -0.060 A 
ATOM     19  C   LIG    1        0.171   0.764   5.170  0.00  0.00    +0.030 A 
ATOM     20  C   LIG    1        0.628   1.066   6.439  0.00  0.00    +0.000 A 
ATOM     21  C   LIG    1        1.849   1.694   6.602  0.00  0.00    +0.000 A 
ATOM     22  C   LIG    1        2.613   2.018   5.497  0.00  0.00    +0.000 A 
ATOM     23  C   LIG    1        2.157   1.712   4.228  0.00  0.00    +0.000 A 
ENDBRANCH  17  18
BRANCH  17  24
ATOM     24  C   LIG    1       -0.967   1.321   2.494  0.00  0.00    +0.000 C 
ATOM     25  C   LIG    1       -1.491   0.941   1.108  0.00  0.00    +0.020 C 
BRANCH  24  27
ATOM     26  C   LIG    1       -0.619   3.227   4.072  0.00  0.00    +0.010 C 
ATOM     27  C   LIG    1       -0.920   2.845   2.622  0.00  0.00    +0.020 C 
ENDBRANCH  24  27
ENDBRANCH  17  24
ENDBRANCH   1  17
TORSDOF 7
