REMARK  Name = ZINCvU00000008q8.0
REMARK                            x       y       z     vdW  Elec       q    Type
REMARK                         _______ _______ _______ _____ _____    ______ ____
ROOT
ATOM      1  C   LIG    1        0.150  -2.982   0.086  0.00  0.00    +0.240 C 
ATOM      2  N   LIG    1        0.486  -4.157  -0.359  0.00  0.00    -0.230 NA
ATOM      3  N   LIG    1        1.876  -4.327  -0.354  0.00  0.00    -0.470 N 
ATOM      4  C   LIG    1        2.448  -3.073   0.164  0.00  0.00    +0.500 C 
ATOM      5  N   LIG    1        1.275  -2.225   0.432  0.00  0.00    -0.580 N 
ENDROOT
BRANCH   3   6
ATOM      6  C   LIG    1        2.580  -5.461  -0.758  0.00  0.00    +0.250 A 
ATOM      7  C   LIG    1        3.968  -5.434  -0.823  0.00  0.00    -0.030 A 
ATOM      8  C   LIG    1        4.662  -6.559  -1.219  0.00  0.00    +0.070 A 
ATOM      9  C   LIG    1        3.976  -7.712  -1.562  0.00  0.00    -0.080 A 
ATOM     10  C   LIG    1        2.594  -7.741  -1.504  0.00  0.00    +0.070 A 
ATOM     11 CL   LIG    1        4.852  -9.123  -2.066  0.00  0.00    -0.070 Cl
ATOM     12  C   LIG    1        1.894  -6.620  -1.103  0.00  0.00    -0.010 A 
ENDBRANCH   3   6
BRANCH   5  13
ATOM     13  C   LIG    1        1.282  -0.924   0.939  0.00  0.00    +0.170 A 
ATOM     14  C   LIG    1        1.394   0.159   0.076  0.00  0.00    +0.020 A 
ATOM     15  C   LIG    1        1.401   1.444   0.580  0.00  0.00    +0.020 A 
ATOM     16  C   LIG    1        1.297   1.655   1.943  0.00  0.00    -0.070 A 
ATOM     17  C   LIG    1        1.186   0.579   2.806  0.00  0.00    +0.010 A 
ATOM     18  C   LIG    1        1.305   3.059   2.490  0.00  0.00    +0.090 C 
ATOM     19  C   LIG    1        1.178  -0.709   2.308  0.00  0.00    +0.030 A 
ENDBRANCH   5  13
BRANCH   4  20
ATOM     20  C   LIG    1        3.219  -3.325   1.434  0.00  0.00    -0.190 A 
ATOM     21  C   LIG    1        2.611  -3.979   2.491  0.00  0.00    +0.080 A 
ATOM     22  C   LIG    1        3.316  -4.217   3.654  0.00  0.00    -0.080 A 
ATOM     23  C   LIG    1        4.633  -3.790   3.766  0.00  0.00    +0.230 A 
ATOM     24  C   LIG    1        5.238  -3.129   2.705  0.00  0.00    -0.070 A 
ATOM     25  C   LIG    1        4.529  -2.899   1.542  0.00  0.00    +0.080 A 
BRANCH  23  26
ATOM     26  N   LIG    1        5.347  -4.024   4.944  0.00  0.00    -0.640 N 
ATOM     27  C   LIG    1        4.707  -4.721   6.062  0.00  0.00    +0.280 C 
ATOM     28  C   LIG    1        6.736  -3.572   5.060  0.00  0.00    +0.280 C 
ENDBRANCH  23  26
ENDBRANCH   4  20
BRANCH   1  30
ATOM     29  C   LIG    1       -2.328  -3.443  -0.148  0.00  0.00    +0.100 C 
ATOM     30  C   LIG    1       -1.185  -2.525   0.202  0.00  0.00    +0.420 C 
ATOM     31  O   LIG    1       -1.409  -1.394   0.583  0.00  0.00    -0.430 OA
ENDBRANCH   1  30
TORSDOF 5
