REMARK  Name = ZINCqH0000003bNi.0
REMARK                            x       y       z     vdW  Elec       q    Type
REMARK                         _______ _______ _______ _____ _____    ______ ____
ROOT
ATOM      1  C   LIG    1        3.188   3.594  -1.904  0.00  0.00    +0.410 A 
ATOM      2  C   LIG    1        3.490   4.215  -0.668  0.00  0.00    -0.140 A 
ATOM      3  C   LIG    1        2.660   4.423   0.512  0.00  0.00    -0.010 A 
ATOM      4  C   LIG    1        3.271   5.057   1.511  0.00  0.00    -0.020 A 
ATOM      5  S   LIG    1        4.929   5.448   1.097  0.00  0.00    +0.180 S 
ATOM      6  C   LIG    1        4.777   4.729  -0.499  0.00  0.00    +0.090 A 
ATOM      7  N   LIG    1        5.660   4.613  -1.500  0.00  0.00    -0.490 NA
ATOM      8  C   LIG    1        5.332   4.028  -2.629  0.00  0.00    +0.520 A 
ATOM      9  N   LIG    1        4.128   3.527  -2.836  0.00  0.00    -0.550 NA
ENDROOT
BRANCH   1  13
ATOM     10  C   LIG    1       -0.097   1.572  -3.550  0.00  0.00    -0.010 C 
ATOM     11  C   LIG    1       -0.085   3.103  -3.528  0.00  0.00    +0.070 C 
ATOM     12  C   LIG    1        1.357   3.594  -3.379  0.00  0.00    +0.200 C 
ATOM     13  N   LIG    1        1.931   3.064  -2.136  0.00  0.00    -0.480 N 
ATOM     14  C   LIG    1        1.972   1.597  -2.153  0.00  0.00    +0.200 C 
ATOM     15  C   LIG    1        0.549   1.046  -2.265  0.00  0.00    +0.060 C 
BRANCH  10  18
ATOM     16  N   LIG    1       -1.775  -0.242  -3.668  0.00  0.00    -0.730 N 
ATOM     17  H   LIG    1       -1.044  -0.878  -3.636  0.00  0.00    +0.400 HD
ATOM     18  C   LIG    1       -1.520   1.081  -3.635  0.00  0.00    +0.520 C 
ATOM     19  O   LIG    1       -2.434   1.877  -3.675  0.00  0.00    -0.530 OA
BRANCH  16  21
ATOM     20  C   LIG    1       -3.169  -2.248  -3.772  0.00  0.00    +0.020 C 
ATOM     21  C   LIG    1       -3.158  -0.719  -3.751  0.00  0.00    +0.250 C 
ENDBRANCH  16  21
ENDBRANCH  10  18
ENDBRANCH   1  13
BRANCH   3  22
ATOM     22  C   LIG    1        1.250   3.971   0.591  0.00  0.00    -0.030 A 
ATOM     23  C   LIG    1        0.324   4.397  -0.361  0.00  0.00    +0.070 A 
ATOM     24  C   LIG    1       -0.987   3.974  -0.282  0.00  0.00    +0.000 A 
ATOM     25  C   LIG    1       -1.383   3.129   0.739  0.00  0.00    +0.010 A 
ATOM     26  C   LIG    1       -0.469   2.702   1.686  0.00  0.00    -0.010 A 
ATOM     27  C   LIG    1        0.845   3.119   1.617  0.00  0.00    +0.020 A 
ENDBRANCH   3  22
TORSDOF 4
