REMARK  Name = ZINCrg00000SjSFI.0
REMARK                            x       y       z     vdW  Elec       q    Type
REMARK                         _______ _______ _______ _____ _____    ______ ____
ROOT
ATOM      1  N   LIG    1       -2.988   8.650   1.095  0.00  0.00    -0.530 NA
ATOM      2  C   LIG    1       -2.378   9.988   1.084  0.00  0.00    +0.150 C 
ATOM      3  C   LIG    1       -3.469  11.043   1.281  0.00  0.00    +0.220 C 
ATOM      4  O   LIG    1       -4.460  10.892   0.262  0.00  0.00    -0.380 OA
ATOM      5  C   LIG    1       -5.077   9.602   0.243  0.00  0.00    +0.240 C 
ATOM      6  C   LIG    1       -4.001   8.532   0.036  0.00  0.00    +0.120 C 
ENDROOT
BRANCH   1   7
ATOM      7  C   LIG    1       -1.966   7.604   0.965  0.00  0.00    +0.350 C 
BRANCH   7  11
ATOM      8  C   LIG    1        0.268   7.780   3.770  0.00  0.00    +0.170 A 
ATOM      9  N   LIG    1        0.867   8.514   2.881  0.00  0.00    -0.380 NA
ATOM     10  O   LIG    1        0.217   8.549   1.857  0.00  0.00    +0.080 OA
ATOM     11  C   LIG    1       -0.893   7.818   2.001  0.00  0.00    +0.180 A 
ATOM     12  N   LIG    1       -0.872   7.329   3.217  0.00  0.00    -0.460 NA
BRANCH   8  14
ATOM     13  C   LIG    1        0.220   8.559   6.124  0.00  0.00    +0.040 C 
ATOM     14  C   LIG    1        0.757   7.493   5.166  0.00  0.00    +0.160 C 
ENDBRANCH   8  14
ENDBRANCH   7  11
ENDBRANCH   1   7
BRANCH   6  15
ATOM     15  C   LIG    1       -4.643   7.144   0.095  0.00  0.00    +0.290 C 
BRANCH  15  16
ATOM     16  N   LIG    1       -5.158   6.902   1.445  0.00  0.00    -0.720 N 
ATOM     17  H   LIG    1       -4.995   7.549   2.150  0.00  0.00    +0.400 HD
ATOM     18  C   LIG    1       -5.858   5.781   1.708  0.00  0.00    +0.610 C 
ATOM     19  O   LIG    1       -6.062   4.969   0.824  0.00  0.00    -0.530 OA
BRANCH  18  20
ATOM     20  C   LIG    1       -6.372   5.539   3.056  0.00  0.00    -0.360 A 
ATOM     21  C   LIG    1       -7.093   4.450   3.459  0.00  0.00    +0.210 A 
ATOM     22  N   LIG    1       -7.431   4.473   4.724  0.00  0.00    -0.560 NA
ATOM     23  C   LIG    1       -7.057   5.507   5.422  0.00  0.00    +0.330 A 
ATOM     24  C   LIG    1       -7.463   3.321   2.532  0.00  0.00    +0.160 C 
ATOM     25  S   LIG    1       -6.173   6.599   4.449  0.00  0.00    +0.130 S 
BRANCH  23  26
ATOM     26  N   LIG    1       -7.331   5.692   6.760  0.00  0.00    -0.580 N 
ATOM     27  C   LIG    1       -6.848   6.892   7.448  0.00  0.00    +0.310 C 
ATOM     28  C   LIG    1       -8.100   4.686   7.496  0.00  0.00    +0.310 C 
ENDBRANCH  23  26
ENDBRANCH  18  20
ENDBRANCH  15  16
ENDBRANCH   6  15
TORSDOF 7
