REMARK  Name = ZINCpe000000YBJs.0
REMARK                            x       y       z     vdW  Elec       q    Type
REMARK                         _______ _______ _______ _____ _____    ______ ____
ROOT
ATOM      1  C   LIG    1        0.129  -8.380  -2.132  0.00  0.00    +0.240 C 
ATOM      2  C   LIG    1        1.121  -8.449  -3.294  0.00  0.00    +0.280 C 
ATOM      3  N   LIG    1        1.958  -9.636  -3.189  0.00  0.00    -0.710 N 
ATOM      4  H   LIG    1        2.810  -9.630  -3.654  0.00  0.00    +0.410 HD
ATOM      5  C   LIG    1        1.636 -10.731  -2.499  0.00  0.00    +0.520 C 
ATOM      6  C   LIG    1        0.392 -10.834  -1.658  0.00  0.00    +0.340 C 
ATOM      7  O   LIG    1        2.380 -11.687  -2.551  0.00  0.00    -0.530 OA
ATOM      8  N   LIG    1       -0.494  -9.706  -1.979  0.00  0.00    -0.600 N 
ATOM      9  C   LIG    1       -1.823  -9.877  -2.128  0.00  0.00    +0.570 C 
ATOM     10  O   LIG    1       -2.546  -8.913  -2.283  0.00  0.00    -0.480 OA
ENDROOT
BRANCH   9  11
ATOM     11  C   LIG    1       -2.399 -11.238  -2.101  0.00  0.00    -0.120 A 
ATOM     12  C   LIG    1       -2.965 -11.735  -0.928  0.00  0.00    +0.120 A 
ATOM     13  C   LIG    1       -3.506 -13.016  -0.912  0.00  0.00    -0.040 A 
ATOM     14  C   LIG    1       -3.480 -13.797  -2.067  0.00  0.00    +0.080 A 
ATOM     15  C   LIG    1       -2.919 -13.302  -3.228  0.00  0.00    +0.040 A 
ATOM     16  C   LIG    1       -2.384 -12.028  -3.255  0.00  0.00    -0.000 A 
ATOM     17 CL   LIG    1       -1.687 -11.411  -4.720  0.00  0.00    -0.050 Cl
BRANCH  13  18
ATOM     18  C   LIG    1       -4.109 -13.551   0.333  0.00  0.00    +0.160 A 
ATOM     19  C   LIG    1       -4.654 -14.833   0.341  0.00  0.00    -0.020 A 
ATOM     20  C   LIG    1       -5.209 -15.321   1.512  0.00  0.00    +0.070 A 
ATOM     21  C   LIG    1       -5.210 -14.505   2.634  0.00  0.00    -0.030 A 
ATOM     22  C   LIG    1       -4.657 -13.241   2.554  0.00  0.00    +0.270 A 
ATOM     23  N   LIG    1       -4.131 -12.803   1.429  0.00  0.00    -0.480 NA
ENDBRANCH  13  18
ENDBRANCH   9  11
BRANCH   1  27
ATOM     24  N   LIG    1       -1.562  -7.356  -3.619  0.00  0.00    -0.830 N 
ATOM     25  H   LIG    1       -2.244  -6.693  -3.809  0.00  0.00    +0.410 HD
ATOM     26  H   LIG    1       -1.333  -8.022  -4.285  0.00  0.00    +0.390 HD
ATOM     27  C   LIG    1       -0.931  -7.351  -2.427  0.00  0.00    +0.550 C 
ATOM     28  O   LIG    1       -1.218  -6.518  -1.593  0.00  0.00    -0.530 OA
ENDBRANCH   1  27
TORSDOF 3
