REMARK  Name = ZINCvU00000004MS.0
REMARK                            x       y       z     vdW  Elec       q    Type
REMARK                         _______ _______ _______ _____ _____    ______ ____
ROOT
ATOM      1  C   LIG    1       -1.439   3.424   2.150  0.00  0.00    +0.290 A 
ATOM      2  N   LIG    1       -1.967   3.288   3.331  0.00  0.00    -0.480 NA
ATOM      3  C   LIG    1       -2.646   2.113   3.395  0.00  0.00    +0.050 A 
ATOM      4  C   LIG    1       -3.384   1.480   4.398  0.00  0.00    +0.070 A 
ATOM      5  C   LIG    1       -3.977   0.275   4.149  0.00  0.00    +0.000 A 
ATOM      6  C   LIG    1       -3.846  -0.336   2.910  0.00  0.00    +0.030 A 
ATOM      7  C   LIG    1       -3.120   0.269   1.906  0.00  0.00    +0.010 A 
ATOM      8  C   LIG    1       -2.516   1.497   2.139  0.00  0.00    +0.060 A 
ATOM      9  N   LIG    1       -1.743   2.348   1.375  0.00  0.00    -0.480 N 
ENDROOT
BRANCH   1  12
ATOM     10  N   LIG    1        0.779   6.260   2.739  0.00  0.00    -0.560 N 
ATOM     11  C   LIG    1        0.605   4.806   2.635  0.00  0.00    +0.300 C 
ATOM     12  C   LIG    1       -0.612   4.603   1.706  0.00  0.00    +0.090 C 
ATOM     13  C   LIG    1       -1.385   5.927   1.902  0.00  0.00    +0.100 C 
ATOM     14  C   LIG    1       -0.325   6.914   2.338  0.00  0.00    +0.520 C 
ATOM     15  O   LIG    1       -0.453   8.120   2.328  0.00  0.00    -0.500 OA
BRANCH  10  20
ATOM     16  C   LIG    1        5.506   8.793   4.590  0.00  0.00    +0.080 C 
ATOM     17  C   LIG    1        4.250   8.120   4.098  0.00  0.00    -0.110 A 
ATOM     18  C   LIG    1        4.140   6.743   4.150  0.00  0.00    +0.040 A 
ATOM     19  C   LIG    1        2.990   6.123   3.700  0.00  0.00    -0.040 A 
ATOM     20  C   LIG    1        1.945   6.885   3.195  0.00  0.00    +0.160 A 
ATOM     21  C   LIG    1        2.062   8.268   3.138  0.00  0.00    +0.000 A 
ATOM     22  C   LIG    1        3.211   8.882   3.595  0.00  0.00    -0.060 A 
ATOM     23  C   LIG    1        3.336  10.383   3.538  0.00  0.00    +0.090 C 
ENDBRANCH  10  20
ENDBRANCH   1  12
BRANCH   9  24
ATOM     24  C   LIG    1       -1.330   2.135  -0.015  0.00  0.00    +0.370 C 
BRANCH  24  25
ATOM     25  C   LIG    1       -0.012   1.406  -0.041  0.00  0.00    -0.130 A 
ATOM     26  C   LIG    1        1.172   2.120  -0.048  0.00  0.00    +0.060 A 
ATOM     27  C   LIG    1        2.382   1.453  -0.078  0.00  0.00    -0.010 A 
ATOM     28  C   LIG    1        2.408   0.069  -0.102  0.00  0.00    +0.110 A 
ATOM     29  C   LIG    1        1.222  -0.645  -0.095  0.00  0.00    -0.010 A 
ATOM     30  F   LIG    1        3.590  -0.585  -0.131  0.00  0.00    -0.130 F 
ATOM     31  C   LIG    1        0.013   0.024  -0.065  0.00  0.00    +0.060 A 
ENDBRANCH  24  25
ENDBRANCH   9  24
TORSDOF 4
