REMARK  Name = ZINCrg000000nFrG.0
REMARK                            x       y       z     vdW  Elec       q    Type
REMARK                         _______ _______ _______ _____ _____    ______ ____
ROOT
ATOM      1  C   LIG    1       -0.351  -1.210  -3.713  0.00  0.00    +0.360 C 
ENDROOT
BRANCH   1   2
ATOM      2  N   LIG    1       -0.667  -2.627  -3.521  0.00  0.00    -0.560 N 
ATOM      3  C   LIG    1        0.193  -3.530  -3.037  0.00  0.00    +0.710 C 
ATOM      4  N   LIG    1       -0.345  -4.759  -2.954  0.00  0.00    -0.720 N 
ATOM      5  H   LIG    1        0.093  -5.561  -2.627  0.00  0.00    +0.440 HD
ATOM      6  C   LIG    1       -1.728  -4.655  -3.460  0.00  0.00    +0.140 C 
ATOM      7  C   LIG    1       -1.814  -5.466  -4.773  0.00  0.00    +0.050 C 
ATOM      8  C   LIG    1       -1.137  -6.793  -4.569  0.00  0.00    +0.010 C 
ATOM      9  C   LIG    1       -2.120  -7.905  -4.154  0.00  0.00    +0.000 C 
ATOM     10  C   LIG    1       -3.155  -7.430  -3.117  0.00  0.00    +0.010 C 
ATOM     11  C   LIG    1       -2.542  -6.553  -2.058  0.00  0.00    +0.040 C 
ATOM     12  C   LIG    1       -2.720  -5.083  -2.482  0.00  0.00    +0.050 C 
ATOM     13  O   LIG    1        1.333  -3.267  -2.707  0.00  0.00    -0.540 OA
ATOM     14  C   LIG    1       -1.858  -3.183  -3.814  0.00  0.00    +0.530 C 
ATOM     15  O   LIG    1       -2.833  -2.624  -4.269  0.00  0.00    -0.460 OA
ENDBRANCH   1   2
BRANCH   1  17
ATOM     16  N   LIG    1       -0.491   0.887  -2.408  0.00  0.00    -0.600 N 
ATOM     17  C   LIG    1       -0.698  -0.444  -2.462  0.00  0.00    +0.510 C 
ATOM     18  O   LIG    1       -1.163  -1.024  -1.505  0.00  0.00    -0.520 OA
BRANCH  16  19
ATOM     19  C   LIG    1       -0.828   1.632  -1.193  0.00  0.00    +0.280 C 
ATOM     20  C   LIG    1       -2.313   1.429  -0.845  0.00  0.00    +0.060 C 
ATOM     21  C   LIG    1       -2.557   1.928   0.593  0.00  0.00    -0.300 C 
ATOM     22  S   LIG    1       -0.949   1.716   1.452  0.00  0.00    +2.390 S 
ATOM     23  O   LIG    1       -0.441   2.990   1.823  0.00  0.00    -0.930 OA
ATOM     24  O   LIG    1       -1.063   0.686   2.425  0.00  0.00    -0.930 OA
ATOM     25  C   LIG    1       -0.013   1.086   0.008  0.00  0.00    -0.320 C 
ENDBRANCH  16  19
BRANCH  16  26
ATOM     26  C   LIG    1        0.072   1.589  -3.565  0.00  0.00    +0.280 C 
BRANCH  26  28
ATOM     27  C   LIG    1        2.186   2.337  -4.667  0.00  0.00    +0.030 C 
ATOM     28  C   LIG    1        1.598   1.605  -3.459  0.00  0.00    -0.010 C 
ENDBRANCH  26  28
ENDBRANCH  16  26
ENDBRANCH   1  17
TORSDOF 5
