REMARK  Name = ZINCrg00000SjSuh.0
REMARK                            x       y       z     vdW  Elec       q    Type
REMARK                         _______ _______ _______ _____ _____    ______ ____
ROOT
ATOM      1  C   LIG    1        1.405   0.103   6.215  0.00  0.00    +0.110 C 
ENDROOT
BRANCH   1   4
ATOM      2  C   LIG    1        0.797   0.096   2.486  0.00  0.00    +0.160 A 
ATOM      3  C   LIG    1        1.281  -0.242   3.739  0.00  0.00    -0.020 A 
ATOM      4  C   LIG    1        0.877   0.472   4.852  0.00  0.00    -0.010 A 
ATOM      5  C   LIG    1       -0.008   1.525   4.718  0.00  0.00    -0.040 A 
ATOM      6  C   LIG    1       -0.491   1.871   3.469  0.00  0.00    +0.050 A 
ATOM      7  C   LIG    1       -0.095   1.156   2.351  0.00  0.00    +0.100 A 
BRANCH   5   8
ATOM      8  N   LIG    1       -0.437   2.286   5.912  0.00  0.00    +0.040 N 
ATOM      9  O   LIG    1        0.067   2.053   6.996  0.00  0.00    -0.150 OA
ATOM     10  O   LIG    1       -1.294   3.146   5.811  0.00  0.00    -0.170 OA
ENDBRANCH   5   8
BRANCH   2  12
ATOM     11  C   LIG    1        2.110  -1.681   1.605  0.00  0.00    +0.250 C 
ATOM     12  O   LIG    1        1.193  -0.606   1.391  0.00  0.00    -0.290 OA
ENDBRANCH   2  12
BRANCH   7  13
ATOM     13  O   LIG    1       -0.572   1.492   1.123  0.00  0.00    -0.290 OA
ATOM     14  C   LIG    1       -1.484   2.591   1.059  0.00  0.00    +0.250 C 
ENDBRANCH   7  13
ENDBRANCH   1   4
BRANCH   1  15
ATOM     15  C   LIG    1        2.576   1.020   6.573  0.00  0.00    +0.280 C 
BRANCH  15  16
ATOM     16  N   LIG    1        3.090   0.661   7.898  0.00  0.00    -1.120 NA
ATOM     17  H   LIG    1        2.563   0.097   8.486  0.00  0.00    +0.420 HD
BRANCH  16  18
ATOM     18  S   LIG    1        4.569   1.218   8.392  0.00  0.00    +2.790 S 
ATOM     19  O   LIG    1        5.473   0.955   7.328  0.00  0.00    -0.970 OA
ATOM     20  O   LIG    1        4.760   0.732   9.713  0.00  0.00    -0.970 OA
BRANCH  18  21
ATOM     21  N   LIG    1        4.456   2.866   8.512  0.00  0.00    -1.010 NA
ATOM     22  C   LIG    1        4.771   3.733   7.365  0.00  0.00    +0.260 C 
ATOM     23  C   LIG    1        3.603   4.715   7.173  0.00  0.00    +0.130 C 
ATOM     24  O   LIG    1        3.337   5.375   8.413  0.00  0.00    -0.370 OA
ATOM     25  C   LIG    1        2.919   4.500   9.464  0.00  0.00    +0.180 C 
ATOM     26  C   LIG    1        1.669   3.735   9.026  0.00  0.00    +0.020 C 
ATOM     27  C   LIG    1        3.978   5.751   6.112  0.00  0.00    +0.060 C 
ATOM     28  C   LIG    1        4.045   3.507   9.772  0.00  0.00    +0.270 C 
ENDBRANCH  18  21
ENDBRANCH  16  18
ENDBRANCH  15  16
ENDBRANCH   1  15
TORSDOF 8
