REMARK  Name = ZINCqH0000038dbS.0
REMARK                            x       y       z     vdW  Elec       q    Type
REMARK                         _______ _______ _______ _____ _____    ______ ____
ROOT
ATOM      1  C   LIG    1       -2.277   1.550   0.727  0.00  0.00    +0.270 C 
ATOM      2  C   LIG    1       -0.816   1.624   1.221  0.00  0.00    +0.050 C 
ATOM      3  C   LIG    1       -0.013   1.086   0.008  0.00  0.00    +0.040 C 
ATOM      4  C   LIG    1       -0.838   1.637  -1.182  0.00  0.00    +0.250 C 
ATOM      5  N   LIG    1       -2.242   1.544  -0.742  0.00  0.00    -0.610 N 
ATOM      6  C   LIG    1       -3.315   1.467  -1.554  0.00  0.00    +0.540 C 
ATOM      7  O   LIG    1       -4.430   1.394  -1.080  0.00  0.00    -0.490 OA
ENDROOT
BRANCH   6   8
ATOM      8  C   LIG    1       -3.131   1.471  -3.049  0.00  0.00    +0.200 C 
ATOM      9  C   LIG    1       -2.555   2.817  -3.489  0.00  0.00    +0.100 C 
ATOM     10  C   LIG    1       -2.595   2.938  -4.990  0.00  0.00    -0.040 A 
ATOM     11  C   LIG    1       -1.763   3.834  -5.630  0.00  0.00    +0.010 A 
ATOM     12  C   LIG    1       -1.801   3.954  -7.008  0.00  0.00    +0.050 A 
ATOM     13  C   LIG    1       -2.671   3.181  -7.756  0.00  0.00    +0.010 A 
ATOM     14  C   LIG    1       -3.509   2.281  -7.130  0.00  0.00    +0.090 A 
ATOM     15  C   LIG    1       -3.472   2.155  -5.742  0.00  0.00    -0.170 A 
ATOM     16  C   LIG    1       -4.361   1.191  -5.053  0.00  0.00    +0.530 C 
ATOM     17  O   LIG    1       -5.008   0.371  -5.673  0.00  0.00    -0.440 OA
ATOM     18  O   LIG    1       -4.419   1.262  -3.699  0.00  0.00    -0.330 OA
ENDBRANCH   6   8
BRANCH   1  23
ATOM     19  C   LIG    1       -5.235   6.146   2.604  0.00  0.00    +0.080 C 
ATOM     20  C   LIG    1       -4.464   4.947   2.114  0.00  0.00    -0.080 A 
ATOM     21  C   LIG    1       -3.607   5.070   1.036  0.00  0.00    +0.000 A 
ATOM     22  C   LIG    1       -2.895   3.971   0.591  0.00  0.00    +0.000 A 
ATOM     23  C   LIG    1       -3.049   2.748   1.216  0.00  0.00    -0.090 A 
ATOM     24  C   LIG    1       -3.906   2.626   2.294  0.00  0.00    +0.020 A 
ATOM     25  C   LIG    1       -4.613   3.725   2.743  0.00  0.00    -0.080 A 
ATOM     26  C   LIG    1       -5.547   3.592   3.918  0.00  0.00    +0.090 C 
ENDBRANCH   1  23
TORSDOF 2
