REMARK  Name = ZINCrH000004qBYI.2
REMARK                            x       y       z     vdW  Elec       q    Type
REMARK                         _______ _______ _______ _____ _____    ______ ____
ROOT
ATOM      1  N   LIG    1        4.089  -1.065  -1.408  0.00  0.00    -0.510 NA
ATOM      2  C   LIG    1        4.301   0.222  -2.083  0.00  0.00    +0.190 C 
ENDROOT
BRANCH   1   3
ATOM      3  C   LIG    1        5.218  -1.975  -1.642  0.00  0.00    +0.170 C 
ATOM      4  C   LIG    1        6.465  -1.503  -0.859  0.00  0.00    +0.010 C 
ATOM      5  C   LIG    1        7.095  -2.846  -0.430  0.00  0.00    +0.260 C 
ATOM      6  N   LIG    1        5.985  -3.806  -0.397  0.00  0.00    -0.620 N 
ATOM      7  C   LIG    1        4.920  -3.345  -1.074  0.00  0.00    +0.520 C 
ATOM      8  O   LIG    1        3.872  -3.940  -1.210  0.00  0.00    -0.500 OA
BRANCH   6   9
ATOM      9  C   LIG    1        6.033  -5.101   0.288  0.00  0.00    +0.350 C 
BRANCH   9  10
ATOM     10  C   LIG    1        6.539  -6.154  -0.664  0.00  0.00    -0.110 A 
ATOM     11  C   LIG    1        5.647  -6.866  -1.445  0.00  0.00    +0.030 A 
ATOM     12  C   LIG    1        6.112  -7.829  -2.321  0.00  0.00    +0.000 A 
ATOM     13  C   LIG    1        7.467  -8.086  -2.410  0.00  0.00    +0.010 A 
ATOM     14  C   LIG    1        8.358  -7.378  -1.625  0.00  0.00    +0.000 A 
ATOM     15  C   LIG    1        7.894  -6.412  -0.752  0.00  0.00    +0.010 A 
ENDBRANCH   9  10
ENDBRANCH   6   9
ENDBRANCH   1   3
BRANCH   1  16
ATOM     16  C   LIG    1        3.857  -0.873   0.030  0.00  0.00    +0.240 C 
BRANCH  16  26
ATOM     17  C   LIG    1        1.071   3.180   0.932  0.00  0.00    +0.130 C 
ATOM     18  C   LIG    1        1.161   1.699   0.669  0.00  0.00    +0.160 A 
ATOM     19  N   LIG    1        0.059   0.991   0.626  0.00  0.00    -0.480 NA
ATOM     20  C   LIG    1        0.087  -0.325   0.396  0.00  0.00    +0.130 A 
ATOM     21  C   LIG    1       -1.098  -1.080   0.350  0.00  0.00    +0.030 A 
ATOM     22  C   LIG    1       -1.038  -2.419   0.114  0.00  0.00    +0.040 A 
ATOM     23  C   LIG    1        0.183  -3.060  -0.084  0.00  0.00    +0.010 A 
ATOM     24  C   LIG    1        1.352  -2.362  -0.047  0.00  0.00    +0.070 A 
ATOM     25  C   LIG    1        1.328  -0.979   0.193  0.00  0.00    -0.090 A 
ATOM     26  C   LIG    1        2.514  -0.222   0.239  0.00  0.00    -0.010 A 
ATOM     27  C   LIG    1        2.413   1.119   0.478  0.00  0.00    -0.040 A 
ENDBRANCH  16  26
ENDBRANCH   1  16
TORSDOF 5
