REMARK  Name = ZINCqH0000032I1l.0
REMARK                            x       y       z     vdW  Elec       q    Type
REMARK                         _______ _______ _______ _____ _____    ______ ____
ROOT
ATOM      1  C   LIG    1       -2.094   6.903   0.065  0.00  0.00    +0.170 C 
ATOM      2  C   LIG    1       -1.600   5.481  -0.016  0.00  0.00    +0.170 C 
ATOM      3  N   LIG    1       -0.372   5.100   0.019  0.00  0.00    -0.470 NA
ATOM      4  C   LIG    1       -0.208   3.745  -0.075  0.00  0.00    +0.060 A 
ATOM      5  C   LIG    1        0.944   2.951  -0.073  0.00  0.00    +0.050 A 
ATOM      6  C   LIG    1        0.838   1.581  -0.183  0.00  0.00    +0.020 A 
ATOM      7  C   LIG    1       -0.402   0.979  -0.296  0.00  0.00    +0.020 A 
ATOM      8  C   LIG    1       -1.550   1.756  -0.304  0.00  0.00    +0.030 A 
ATOM      9  C   LIG    1       -1.454   3.120  -0.189  0.00  0.00    -0.130 A 
ATOM     10  C   LIG    1       -2.457   4.245  -0.155  0.00  0.00    -0.040 C 
ATOM     11  C   LIG    1       -3.256   4.293  -1.453  0.00  0.00    +0.060 C 
ATOM     12  C   LIG    1       -4.211   5.490  -1.419  0.00  0.00    +0.270 C 
ATOM     13  N   LIG    1       -5.022   5.413  -0.197  0.00  0.00    -0.630 N 
ATOM     14  C   LIG    1       -4.340   5.298   1.099  0.00  0.00    +0.300 C 
ATOM     15  C   LIG    1       -6.368   5.446  -0.263  0.00  0.00    +0.710 C 
ATOM     16  N   LIG    1       -6.984   5.447  -1.461  0.00  0.00    -0.740 N 
ATOM     17  H   LIG    1       -6.464   5.348  -2.274  0.00  0.00    +0.400 HD
ATOM     18  O   LIG    1       -7.026   5.476   0.759  0.00  0.00    -0.580 OA
ATOM     19  C   LIG    1       -3.383   4.101   1.047  0.00  0.00    +0.060 C 
ENDROOT
BRANCH  16  20
ATOM     20  C   LIG    1       -8.439   5.596  -1.537  0.00  0.00    +0.340 C 
BRANCH  20  21
ATOM     21  C   LIG    1       -8.873   5.564  -2.980  0.00  0.00    -0.090 A 
ATOM     22  C   LIG    1       -8.953   6.739  -3.703  0.00  0.00    +0.020 A 
ATOM     23  C   LIG    1       -9.346   6.713  -5.029  0.00  0.00    +0.030 A 
ATOM     24  C   LIG    1       -9.671   5.513  -5.630  0.00  0.00    -0.010 A 
ATOM     25  C   LIG    1       -9.597   4.333  -4.905  0.00  0.00    +0.100 A 
ATOM     26  C   LIG    1       -9.197   4.361  -3.577  0.00  0.00    +0.000 A 
BRANCH  25  27
ATOM     27  O   LIG    1       -9.917   3.151  -5.494  0.00  0.00    -0.500 OA
ATOM     28  H   LIG    1      -10.850   2.910  -5.414  0.00  0.00    +0.390 HD
ENDBRANCH  25  27
ENDBRANCH  20  21
ENDBRANCH  16  20
TORSDOF 3
