REMARK  Name = ZINCqH0000034JI6.0
REMARK                            x       y       z     vdW  Elec       q    Type
REMARK                         _______ _______ _______ _____ _____    ______ ____
ROOT
ATOM      1  N   LIG    1       -2.708   7.655   1.512  0.00  0.00    -0.690 N 
ATOM      2  H   LIG    1       -3.062   7.480   2.398  0.00  0.00    +0.410 HD
ATOM      3  C   LIG    1       -2.570   6.646   0.629  0.00  0.00    +0.700 C 
ATOM      4  N   LIG    1       -2.834   5.380   1.007  0.00  0.00    -0.730 N 
ATOM      5  H   LIG    1       -3.125   5.195   1.914  0.00  0.00    +0.400 HD
ATOM      6  O   LIG    1       -2.206   6.878  -0.507  0.00  0.00    -0.560 OA
ENDROOT
BRANCH   1  14
ATOM      7  C   LIG    1       -2.054  12.914  -3.568  0.00  0.00    +0.290 C 
ATOM      8  N   LIG    1       -1.744  12.329  -2.261  0.00  0.00    -0.620 N 
ATOM      9  C   LIG    1       -0.782  12.995  -1.384  0.00  0.00    +0.280 C 
ATOM     10  C   LIG    1       -1.250  12.954   0.068  0.00  0.00    +0.090 C 
ATOM     11  C   LIG    1       -1.617  11.546   0.455  0.00  0.00    -0.070 A 
ATOM     12  C   LIG    1       -1.426  11.100   1.746  0.00  0.00    +0.040 A 
ATOM     13  C   LIG    1       -1.790   9.812   2.096  0.00  0.00    +0.010 A 
ATOM     14  C   LIG    1       -2.341   8.957   1.150  0.00  0.00    +0.150 A 
ATOM     15  C   LIG    1       -2.534   9.395  -0.153  0.00  0.00    +0.110 A 
ATOM     16  C   LIG    1       -2.163  10.689  -0.505  0.00  0.00    -0.120 A 
ATOM     17  C   LIG    1       -2.348  11.186  -1.884  0.00  0.00    +0.560 C 
ATOM     18  O   LIG    1       -3.041  10.570  -2.671  0.00  0.00    -0.530 OA
ENDBRANCH   1  14
BRANCH   4  19
ATOM     19  C   LIG    1       -2.684   4.282   0.048  0.00  0.00    +0.310 C 
ATOM     20  C   LIG    1       -3.534   3.070   0.484  0.00  0.00    +0.050 C 
ATOM     21  C   LIG    1       -2.663   1.877   0.035  0.00  0.00    +0.100 C 
ATOM     22  C   LIG    1       -1.243   2.401   0.029  0.00  0.00    -0.080 A 
ATOM     23  C   LIG    1       -0.035   1.722   0.027  0.00  0.00    -0.030 A 
ATOM     24  C   LIG    1        1.157   2.423   0.027  0.00  0.00    +0.040 A 
ATOM     25  C   LIG    1        1.143   3.804   0.035  0.00  0.00    +0.020 A 
ATOM     26  C   LIG    1       -0.060   4.483   0.042  0.00  0.00    +0.050 A 
ATOM     27 CL   LIG    1       -0.018  -0.014   0.017  0.00  0.00    -0.070 Cl
ATOM     28  C   LIG    1       -1.255   3.783   0.042  0.00  0.00    -0.100 A 
ENDBRANCH   4  19
TORSDOF 2
