REMARK  Name = ZINCtj00000nxsua.0
REMARK                            x       y       z     vdW  Elec       q    Type
REMARK                         _______ _______ _______ _____ _____    ______ ____
ROOT
ATOM      1  N   LIG    1       -4.358   1.970   0.571  0.00  0.00    -0.690 N 
ATOM      2  H   LIG    1       -4.621   2.276   1.453  0.00  0.00    +0.410 HD
ATOM      3  C   LIG    1       -3.067   1.681   0.315  0.00  0.00    +0.610 C 
ATOM      4  O   LIG    1       -2.737   1.297  -0.791  0.00  0.00    -0.530 OA
ENDROOT
BRANCH   3   5
ATOM      5  C   LIG    1       -2.053   1.830   1.377  0.00  0.00    -0.090 A 
ATOM      6  C   LIG    1       -0.718   1.572   1.248  0.00  0.00    +0.150 A 
ATOM      7  N   LIG    1       -0.151   1.841   2.441  0.00  0.00    -0.390 N 
ATOM      8  N   LIG    1       -1.182   2.262   3.294  0.00  0.00    -0.080 NA
ATOM      9  C   LIG    1       -0.013   1.086   0.008  0.00  0.00    +0.190 C 
ATOM     10  N   LIG    1       -2.288   2.240   2.635  0.00  0.00    -0.170 NA
BRANCH   7  11
ATOM     11  C   LIG    1        1.268   1.717   2.782  0.00  0.00    +0.290 C 
ATOM     12  C   LIG    1        1.450   0.762   3.984  0.00  0.00    +0.090 C 
ATOM     13  C   LIG    1        2.571   1.452   4.805  0.00  0.00    +0.290 C 
ATOM     14  N   LIG    1        2.264   2.897   4.655  0.00  0.00    -0.510 N 
ATOM     15  H   LIG    1        1.525   3.164   5.288  0.00  0.00    +0.440 HD
ATOM     16  H   LIG    1        3.090   3.449   4.832  0.00  0.00    +0.440 HD
ATOM     17  C   LIG    1        1.824   3.073   3.254  0.00  0.00    +0.280 C 
ENDBRANCH   7  11
ENDBRANCH   3   5
BRANCH   1  18
ATOM     18  C   LIG    1       -5.364   1.821  -0.484  0.00  0.00    +0.400 C 
BRANCH  18  22
ATOM     19  C   LIG    1       -8.670   4.405   0.328  0.00  0.00    +0.140 A 
ATOM     20  C   LIG    1       -8.210   4.252  -0.972  0.00  0.00    -0.010 A 
ATOM     21  C   LIG    1       -7.141   3.417  -1.232  0.00  0.00    +0.070 A 
ATOM     22  C   LIG    1       -6.530   2.733  -0.198  0.00  0.00    -0.140 A 
ATOM     23  C   LIG    1       -6.989   2.879   1.098  0.00  0.00    +0.080 A 
ATOM     24  C   LIG    1       -8.054   3.719   1.364  0.00  0.00    -0.080 A 
BRANCH  19  26
ATOM     25  C   LIG    1      -10.140   5.336   1.948  0.00  0.00    +0.240 C 
ATOM     26  O   LIG    1       -9.721   5.227   0.586  0.00  0.00    -0.310 OA
ENDBRANCH  19  26
ENDBRANCH  18  22
BRANCH  18  27
ATOM     27  C   LIG    1       -5.842   0.393  -0.525  0.00  0.00    +0.190 A 
ATOM     28  N   LIG    1       -6.156  -0.335   0.512  0.00  0.00    -0.470 NA
ATOM     29  C   LIG    1       -6.540  -1.552   0.100  0.00  0.00    +0.140 A 
ATOM     30  C   LIG    1       -6.454  -1.582  -1.244  0.00  0.00    +0.130 A 
ATOM     31  N   LIG    1       -6.011  -0.349  -1.640  0.00  0.00    -0.450 N 
ATOM     32  C   LIG    1       -5.766   0.085  -3.018  0.00  0.00    +0.330 C 
ENDBRANCH  18  27
ENDBRANCH   1  18
TORSDOF 6
