REMARK  Name = ZINCvU00000009uJ.0
REMARK                            x       y       z     vdW  Elec       q    Type
REMARK                         _______ _______ _______ _____ _____    ______ ____
ROOT
ATOM      1  C   LIG    1       -2.806  -6.816  -0.025  0.00  0.00    +0.240 A 
ATOM      2  N   LIG    1       -1.617  -6.428  -0.424  0.00  0.00    -0.270 NA
ATOM      3  N   LIG    1       -1.492  -5.159  -0.262  0.00  0.00    -0.290 NA
ATOM      4  C   LIG    1       -2.594  -4.659   0.251  0.00  0.00    +0.150 A 
ATOM      5  N   LIG    1       -3.466  -5.696   0.425  0.00  0.00    -0.450 N 
ENDROOT
BRANCH   1   9
ATOM      6  C   LIG    1       -4.323 -10.784  -0.094  0.00  0.00    +0.150 A 
ATOM      7  C   LIG    1       -5.187  -9.710  -0.263  0.00  0.00    -0.010 A 
ATOM      8  C   LIG    1       -4.698  -8.421  -0.241  0.00  0.00    +0.060 A 
ATOM      9  C   LIG    1       -3.334  -8.196  -0.049  0.00  0.00    -0.060 A 
ATOM     10  C   LIG    1       -2.469  -9.279   0.115  0.00  0.00    +0.110 A 
ATOM     11  C   LIG    1       -2.965 -10.565   0.097  0.00  0.00    -0.070 A 
BRANCH   6  13
ATOM     12  C   LIG    1       -3.865 -13.111   0.063  0.00  0.00    +0.240 C 
ATOM     13  O   LIG    1       -4.808 -12.053  -0.116  0.00  0.00    -0.310 OA
ENDBRANCH   6  13
ENDBRANCH   1   9
BRANCH   5  14
ATOM     14  C   LIG    1       -4.823  -5.628   0.973  0.00  0.00    +0.240 C 
ATOM     15  C   LIG    1       -5.713  -4.812   0.034  0.00  0.00    +0.010 C 
ATOM     16  C   LIG    1       -7.130  -4.741   0.607  0.00  0.00    +0.040 C 
ATOM     17  C   LIG    1       -7.091  -4.072   1.982  0.00  0.00    +0.010 C 
ATOM     18  C   LIG    1       -6.201  -4.888   2.922  0.00  0.00    +0.040 C 
ATOM     19  C   LIG    1       -4.784  -4.959   2.349  0.00  0.00    +0.010 C 
ENDBRANCH   5  14
BRANCH   4  20
ATOM     20  S   LIG    1       -2.888  -2.967   0.647  0.00  0.00    +0.070 S 
BRANCH  20  21
ATOM     21  C   LIG    1       -1.304  -2.248   0.148  0.00  0.00    +0.100 C 
BRANCH  21  22
ATOM     22  C   LIG    1       -1.324  -0.762   0.403  0.00  0.00    +0.420 C 
ATOM     23  O   LIG    1       -2.312  -0.242   0.875  0.00  0.00    -0.420 OA
BRANCH  22  24
ATOM     24  C   LIG    1       -0.146   0.055   0.079  0.00  0.00    -0.170 A 
ATOM     25  C   LIG    1        0.996  -0.541  -0.467  0.00  0.00    +0.080 A 
ATOM     26  C   LIG    1        2.097   0.233  -0.768  0.00  0.00    +0.080 A 
ATOM     27  C   LIG    1        2.075   1.599  -0.532  0.00  0.00    +0.060 A 
ATOM     28  C   LIG    1        0.951   2.198   0.006  0.00  0.00    +0.020 A 
ATOM     29  F   LIG    1        3.201  -0.341  -1.295  0.00  0.00    -0.130 F 
ATOM     30  C   LIG    1       -0.161   1.436   0.314  0.00  0.00    +0.150 A 
ATOM     31  F   LIG    1       -1.261   2.023   0.836  0.00  0.00    -0.110 F 
ENDBRANCH  22  24
ENDBRANCH  21  22
ENDBRANCH  20  21
ENDBRANCH   4  20
TORSDOF 7
