REMARK  Name = ZINCrH00000tj11n.0
REMARK                            x       y       z     vdW  Elec       q    Type
REMARK                         _______ _______ _______ _____ _____    ______ ____
ROOT
ATOM      1  C   LIG    1        1.375   1.748  -0.029  0.00  0.00    -0.140 A 
ATOM      2  C   LIG    1        1.244   3.139  -0.021  0.00  0.00    +0.050 A 
ATOM      3  C   LIG    1        2.366   3.938  -0.019  0.00  0.00    -0.020 A 
ATOM      4  C   LIG    1        3.632   3.364  -0.023  0.00  0.00    +0.100 A 
ATOM      5  C   LIG    1        3.770   1.973  -0.030  0.00  0.00    +0.130 A 
ATOM      6  C   LIG    1        2.647   1.168  -0.027  0.00  0.00    +0.110 A 
ENDROOT
BRANCH   1  10
ATOM      7  N   LIG    1       -1.052   1.453  -0.033  0.00  0.00    -0.850 N 
ATOM      8  H   LIG    1       -1.145   2.419  -0.028  0.00  0.00    +0.400 HD
ATOM      9  H   LIG    1       -1.843   0.890  -0.040  0.00  0.00    +0.410 HD
ATOM     10  C   LIG    1        0.173   0.893  -0.032  0.00  0.00    +0.560 C 
ATOM     11  O   LIG    1        0.289  -0.318  -0.038  0.00  0.00    -0.530 OA
ENDBRANCH   1  10
BRANCH   4  12
ATOM     12  N   LIG    1        4.763   4.176  -0.021  0.00  0.00    -0.470 N 
ATOM     13  C   LIG    1        4.388   5.612  -0.063  0.00  0.00    +0.180 C 
ATOM     14  C   LIG    1        5.657   6.326   0.467  0.00  0.00    +0.040 C 
ATOM     15  C   LIG    1        6.158   5.366   1.571  0.00  0.00    +0.020 C 
ATOM     16  C   LIG    1        5.540   3.998   1.225  0.00  0.00    +0.170 C 
ENDBRANCH   4  12
BRANCH   5  17
ATOM     17  N   LIG    1        5.047   1.396  -0.034  0.00  0.00    -0.660 N 
ATOM     18  H   LIG    1        5.800   1.886  -0.398  0.00  0.00    +0.420 HD
ATOM     19  C   LIG    1        5.229   0.159   0.470  0.00  0.00    +0.540 C 
ATOM     20  O   LIG    1        4.277  -0.483   0.861  0.00  0.00    -0.510 OA
BRANCH  19  21
ATOM     21  C   LIG    1        6.615  -0.428   0.546  0.00  0.00    -0.050 C 
ATOM     22  C   LIG    1        7.223  -0.625   1.937  0.00  0.00    +0.080 C 
ATOM     23  C   LIG    1        6.755  -1.836   1.127  0.00  0.00    +0.060 C 
BRANCH  23  24
ATOM     24  C   LIG    1        7.816  -2.730   0.537  0.00  0.00    -0.050 A 
ATOM     25  C   LIG    1        9.143  -2.349   0.582  0.00  0.00    +0.020 A 
ATOM     26  C   LIG    1       10.116  -3.169   0.041  0.00  0.00    +0.020 A 
ATOM     27  C   LIG    1        9.761  -4.370  -0.546  0.00  0.00    +0.020 A 
ATOM     28  C   LIG    1        8.433  -4.751  -0.592  0.00  0.00    +0.030 A 
ATOM     29  C   LIG    1        7.460  -3.934  -0.044  0.00  0.00    -0.030 A 
ATOM     30 CL   LIG    1        5.793  -4.416  -0.094  0.00  0.00    -0.060 Cl
ENDBRANCH  23  24
ENDBRANCH  19  21
ENDBRANCH   5  17
TORSDOF 5
