REMARK  Name = ZINCpk00000Ke8ke.0
REMARK                            x       y       z     vdW  Elec       q    Type
REMARK                         _______ _______ _______ _____ _____    ______ ____
ROOT
ATOM      1  C   LIG    1       -5.544   4.819   3.152  0.00  0.00    +0.510 C 
ATOM      2  N   LIG    1       -4.540   5.717   3.111  0.00  0.00    -0.730 N 
ATOM      3  H   LIG    1       -3.900   5.696   2.382  0.00  0.00    +0.400 HD
ATOM      4  O   LIG    1       -6.344   4.846   4.064  0.00  0.00    -0.520 OA
ENDROOT
BRANCH   1   5
ATOM      5  C   LIG    1       -5.673   3.783   2.066  0.00  0.00    +0.200 C 
BRANCH   5   9
ATOM      6  N   LIG    1       -7.846   0.241   2.833  0.00  0.00    -0.530 NA
ATOM      7  C   LIG    1       -7.505   1.101   3.975  0.00  0.00    +0.210 C 
ATOM      8  C   LIG    1       -6.346   2.023   3.588  0.00  0.00    +0.190 C 
ATOM      9  N   LIG    1       -6.733   2.830   2.422  0.00  0.00    -0.520 NA
ATOM     10  C   LIG    1       -7.074   1.970   1.280  0.00  0.00    +0.190 C 
ATOM     11  C   LIG    1       -8.233   1.048   1.667  0.00  0.00    +0.130 C 
ATOM     12  C   LIG    1       -8.563   0.123   0.494  0.00  0.00    +0.040 C 
BRANCH   6  13
ATOM     13  C   LIG    1       -8.905  -0.712   3.189  0.00  0.00    +0.190 C 
BRANCH  13  14
ATOM     14  C   LIG    1       -8.311  -1.846   4.026  0.00  0.00    +0.180 C 
BRANCH  14  16
ATOM     15  C   LIG    1       -7.289  -2.312   6.144  0.00  0.00    +0.190 C 
ATOM     16  O   LIG    1       -7.864  -1.328   5.281  0.00  0.00    -0.390 OA
ENDBRANCH  14  16
ENDBRANCH  13  14
ENDBRANCH   6  13
ENDBRANCH   5   9
ENDBRANCH   1   5
BRANCH   2  17
ATOM     17  C   LIG    1       -4.414   6.724   4.167  0.00  0.00    +0.300 C 
BRANCH  17  18
ATOM     18  C   LIG    1       -3.279   7.690   3.818  0.00  0.00    -0.110 C 
ATOM     19  C   LIG    1       -3.404   8.485   2.517  0.00  0.00    +0.030 C 
ATOM     20  C   LIG    1       -3.587   9.189   3.864  0.00  0.00    +0.050 C 
BRANCH  18  21
ATOM     21  C   LIG    1       -1.900   7.250   4.236  0.00  0.00    -0.050 A 
ATOM     22  C   LIG    1       -0.827   7.437   3.384  0.00  0.00    +0.000 A 
ATOM     23  C   LIG    1        0.439   7.037   3.769  0.00  0.00    +0.000 A 
ATOM     24  C   LIG    1        0.631   6.443   5.002  0.00  0.00    +0.000 A 
ATOM     25  C   LIG    1       -0.442   6.252   5.852  0.00  0.00    +0.000 A 
ATOM     26  C   LIG    1       -1.708   6.655   5.469  0.00  0.00    +0.010 A 
ENDBRANCH  18  21
ENDBRANCH  17  18
ENDBRANCH   2  17
TORSDOF 8
