REMARK  Name = ZINCpe000000Yuqf.0
REMARK                            x       y       z     vdW  Elec       q    Type
REMARK                         _______ _______ _______ _____ _____    ______ ____
ROOT
ATOM      1  C   LIG    1       -0.738   1.584   1.263  0.00  0.00    +0.260 C 
ATOM      2  C   LIG    1       -0.013   1.086   0.008  0.00  0.00    +0.330 C 
ATOM      3  N   LIG    1       -0.732   1.577  -1.178  0.00  0.00    -0.620 N 
ATOM      4  C   LIG    1       -1.043   3.012  -1.258  0.00  0.00    +0.300 C 
ATOM      5  C   LIG    1       -1.732   3.434   0.044  0.00  0.00    +0.200 C 
ATOM      6  C   LIG    1       -1.095   0.734  -2.164  0.00  0.00    +0.500 C 
ATOM      7  O   LIG    1       -0.829  -0.447  -2.082  0.00  0.00    -0.520 OA
ATOM      8  N   LIG    1       -0.895   3.043   1.186  0.00  0.00    -0.500 NA
ENDROOT
BRANCH   8   9
ATOM      9  C   LIG    1       -1.434   3.580   2.443  0.00  0.00    +0.130 C 
ATOM     10  C   LIG    1       -2.802   4.263   2.389  0.00  0.00    -0.010 C 
ATOM     11  C   LIG    1       -1.536   5.101   2.575  0.00  0.00    +0.040 C 
ENDBRANCH   8   9
BRANCH   1  13
ATOM     12  N   LIG    1        0.655   0.960   3.378  0.00  0.00    -0.400 NA
ATOM     13  C   LIG    1        0.048   1.232   2.457  0.00  0.00    +0.210 C 
ENDBRANCH   1  13
BRANCH   6  14
ATOM     14  C   LIG    1       -1.831   1.258  -3.371  0.00  0.00    +0.330 C 
BRANCH  14  15
ATOM     15  N   LIG    1       -2.110   0.153  -4.291  0.00  0.00    -0.600 N 
ATOM     16  C   LIG    1       -1.139  -0.175  -5.332  0.00  0.00    +0.280 C 
ATOM     17  C   LIG    1       -1.048  -1.690  -5.534  0.00  0.00    +0.090 C 
ATOM     18  C   LIG    1       -2.426  -2.262  -5.736  0.00  0.00    -0.050 A 
ATOM     19  C   LIG    1       -2.631  -3.335  -6.574  0.00  0.00    +0.000 A 
ATOM     20  C   LIG    1       -3.908  -3.845  -6.744  0.00  0.00    +0.040 A 
ATOM     21  C   LIG    1       -4.981  -3.284  -6.075  0.00  0.00    +0.000 A 
ATOM     22  C   LIG    1       -4.788  -2.207  -5.232  0.00  0.00    +0.090 A 
ATOM     23  C   LIG    1       -3.507  -1.691  -5.059  0.00  0.00    -0.140 A 
ATOM     24  C   LIG    1       -3.260  -0.538  -4.166  0.00  0.00    +0.570 C 
ATOM     25  O   LIG    1       -4.083  -0.219  -3.330  0.00  0.00    -0.530 OA
ENDBRANCH  14  15
ENDBRANCH   6  14
TORSDOF 4
