REMARK  Name = ZINCrg00000aSx9Y.0
REMARK                            x       y       z     vdW  Elec       q    Type
REMARK                         _______ _______ _______ _____ _____    ______ ____
ROOT
ATOM      1  N   LIG    1        1.170  -2.769   0.050  0.00  0.00    -0.570 N 
ATOM      2  C   LIG    1        0.042  -3.084  -0.609  0.00  0.00    +0.710 C 
ATOM      3  N   LIG    1       -0.820  -3.997  -0.131  0.00  0.00    -0.730 N 
ATOM      4  H   LIG    1       -1.582  -4.262  -0.669  0.00  0.00    +0.430 HD
ATOM      5  C   LIG    1       -0.625  -4.597   1.190  0.00  0.00    +0.300 C 
ATOM      6  C   LIG    1        0.872  -4.784   1.451  0.00  0.00    +0.010 C 
ATOM      7  O   LIG    1       -0.204  -2.529  -1.661  0.00  0.00    -0.550 OA
ATOM      8  C   LIG    1        1.604  -3.520   1.078  0.00  0.00    +0.520 C 
ATOM      9  O   LIG    1        2.582  -3.179   1.708  0.00  0.00    -0.480 OA
ENDROOT
BRANCH   1  10
ATOM     10  C   LIG    1        1.942  -1.594  -0.362  0.00  0.00    +0.330 C 
BRANCH  10  13
ATOM     11  N   LIG    1        1.237   1.988   0.001  0.00  0.00    -0.610 N 
ATOM     12  C   LIG    1        2.223   0.901  -0.024  0.00  0.00    +0.290 C 
ATOM     13  C   LIG    1        1.450  -0.366   0.406  0.00  0.00    -0.010 C 
ATOM     14  C   LIG    1        0.002  -0.004   0.002  0.00  0.00    +0.050 C 
ATOM     15  C   LIG    1       -0.018   1.509   0.010  0.00  0.00    +0.520 C 
ATOM     16  O   LIG    1       -1.022   2.190   0.019  0.00  0.00    -0.530 OA
BRANCH  11  17
ATOM     17  C   LIG    1        1.578   3.413   0.014  0.00  0.00    +0.320 C 
BRANCH  17  18
ATOM     18  C   LIG    1        1.715   3.891   1.461  0.00  0.00    +0.150 C 
BRANCH  18  20
ATOM     19  C   LIG    1        3.039   3.610   3.439  0.00  0.00    +0.200 C 
ATOM     20  O   LIG    1        2.822   3.232   2.078  0.00  0.00    -0.390 OA
ENDBRANCH  18  20
ENDBRANCH  17  18
ENDBRANCH  11  17
ENDBRANCH  10  13
ENDBRANCH   1  10
BRANCH   6  21
ATOM     21  C   LIG    1        1.397  -5.944   0.602  0.00  0.00    +0.110 C 
BRANCH  21  22
ATOM     22  C   LIG    1        2.840  -6.207   0.950  0.00  0.00    -0.100 A 
ATOM     23  C   LIG    1        3.846  -5.558   0.260  0.00  0.00    +0.040 A 
ATOM     24  C   LIG    1        5.169  -5.794   0.581  0.00  0.00    -0.010 A 
ATOM     25  C   LIG    1        5.487  -6.691   1.587  0.00  0.00    +0.100 A 
ATOM     26  C   LIG    1        4.478  -7.345   2.274  0.00  0.00    -0.010 A 
ATOM     27  F   LIG    1        6.780  -6.927   1.899  0.00  0.00    -0.140 F 
ATOM     28  C   LIG    1        3.156  -7.103   1.954  0.00  0.00    +0.050 A 
ENDBRANCH  21  22
ENDBRANCH   6  21
TORSDOF 7
