REMARK  Name = ZINCqH0000003OEo.0
REMARK                            x       y       z     vdW  Elec       q    Type
REMARK                         _______ _______ _______ _____ _____    ______ ____
ROOT
ATOM      1  C   LIG    1        1.108   3.196   0.008  0.00  0.00    +0.350 A 
ATOM      2  N   LIG    1       -0.060   3.817   0.022  0.00  0.00    -0.440 NA
ATOM      3  C   LIG    1       -1.200   3.150   0.029  0.00  0.00    +0.260 A 
ATOM      4  C   LIG    1       -1.215   1.770   0.017  0.00  0.00    -0.020 A 
ATOM      5  C   LIG    1       -0.013   1.076   0.008  0.00  0.00    +0.000 A 
ATOM      6  C   LIG    1        1.170   1.802   0.001  0.00  0.00    +0.050 A 
ENDROOT
BRANCH   1   8
ATOM      7  C   LIG    1        2.233   5.287   0.009  0.00  0.00    +0.550 C 
ATOM      8  N   LIG    1        2.287   3.941   0.001  0.00  0.00    -0.650 N 
ATOM      9  H   LIG    1        3.146   3.490  -0.009  0.00  0.00    +0.420 HD
ATOM     10  O   LIG    1        1.157   5.853   0.021  0.00  0.00    -0.460 OA
BRANCH   7  15
ATOM     11  C   LIG    1        4.605   8.204   0.002  0.00  0.00    +0.130 A 
ATOM     12  C   LIG    1        5.831   7.552  -0.012  0.00  0.00    -0.050 A 
ATOM     13  C   LIG    1        5.885   6.170  -0.019  0.00  0.00    +0.050 A 
ATOM     14  C   LIG    1        4.720   5.430  -0.007  0.00  0.00    +0.000 A 
ATOM     15  C   LIG    1        3.483   6.077   0.001  0.00  0.00    -0.100 A 
ATOM     16  C   LIG    1        3.430   7.471   0.009  0.00  0.00    +0.060 A 
BRANCH  11  17
ATOM     17  O   LIG    1        4.559   9.562   0.009  0.00  0.00    -0.310 OA
BRANCH  17  19
ATOM     18  C   LIG    1        5.556  11.763   0.011  0.00  0.00    +0.070 C 
ATOM     19  C   LIG    1        5.809  10.254   0.002  0.00  0.00    +0.170 C 
ENDBRANCH  17  19
ENDBRANCH  11  17
ENDBRANCH   7  15
ENDBRANCH   1   8
BRANCH   6  20
ATOM     20  O   LIG    1        2.371   1.165  -0.014  0.00  0.00    -0.310 OA
BRANCH  20  21
ATOM     21  C   LIG    1        2.347  -0.264  -0.022  0.00  0.00    +0.270 C 
BRANCH  21  22
ATOM     22  C   LIG    1        3.759  -0.790  -0.038  0.00  0.00    -0.150 A 
ATOM     23  C   LIG    1        4.404  -1.034  -1.241  0.00  0.00    +0.090 A 
ATOM     24  C   LIG    1        5.705  -1.512  -1.208  0.00  0.00    -0.030 A 
ATOM     25  C   LIG    1        6.308  -1.739   0.015  0.00  0.00    +0.270 A 
ATOM     26  N   LIG    1        5.662  -1.501   1.140  0.00  0.00    -0.480 NA
ATOM     27  C   LIG    1        4.427  -1.040   1.146  0.00  0.00    +0.290 A 
ENDBRANCH  21  22
ENDBRANCH  20  21
ENDBRANCH   6  20
TORSDOF 7
