REMARK  Name = ZINC560000002or4.0
REMARK                            x       y       z     vdW  Elec       q    Type
REMARK                         _______ _______ _______ _____ _____    ______ ____
ROOT
ATOM      1  C   LIG    1       -0.013   1.086   0.008  0.00  0.00    +0.330 C 
ATOM      2  C   LIG    1        1.423   1.615  -0.003  0.00  0.00    +0.030 C 
ENDROOT
BRANCH   1   4
ATOM      3  C   LIG    1       -1.251   1.939   2.185  0.00  0.00    +0.050 C 
ATOM      4  C   LIG    1       -0.702   1.560   1.219  0.00  0.00    -0.230 C 
ENDBRANCH   1   4
BRANCH   1   5
ATOM      5  O   LIG    1       -0.704   1.559  -1.150  0.00  0.00    -0.550 OA
ATOM      6  H   LIG    1       -0.756   2.523  -1.210  0.00  0.00    +0.380 HD
ENDBRANCH   1   5
TORSDOF 2
