REMARK  Name = ZINCtV000002xGVs.0
REMARK                            x       y       z     vdW  Elec       q    Type
REMARK                         _______ _______ _______ _____ _____    ______ ____
ROOT
ATOM      1  S   LIG    1       -2.350   0.829   1.383  0.00  0.00    +0.160 S 
ENDROOT
BRANCH   1   2
ATOM      2  C   LIG    1       -3.150   1.280  -0.121  0.00  0.00    +0.130 A 
ATOM      3  N   LIG    1       -2.605   1.922  -1.128  0.00  0.00    -0.280 NA
ATOM      4  N   LIG    1       -3.479   2.081  -2.059  0.00  0.00    -0.230 NA
ATOM      5  C   LIG    1       -4.618   1.547  -1.683  0.00  0.00    +0.230 A 
ATOM      6  O   LIG    1       -4.431   1.024  -0.450  0.00  0.00    -0.190 OA
BRANCH   5   7
ATOM      7  C   LIG    1       -5.865   1.518  -2.461  0.00  0.00    -0.120 A 
ATOM      8  C   LIG    1       -6.006   2.044  -3.682  0.00  0.00    +0.030 A 
ATOM      9  C   LIG    1       -7.330   1.895  -4.255  0.00  0.00    -0.080 A 
ATOM     10  C   LIG    1       -7.814   2.328  -5.510  0.00  0.00    +0.080 A 
ATOM     11  C   LIG    1       -9.105   2.091  -5.871  0.00  0.00    +0.030 A 
ATOM     12  C   LIG    1       -9.966   1.419  -5.013  0.00  0.00    +0.060 A 
ATOM     13  C   LIG    1       -9.522   0.985  -3.786  0.00  0.00    +0.060 A 
ATOM     14  C   LIG    1       -8.201   1.218  -3.393  0.00  0.00    -0.130 A 
ATOM     15 CL   LIG    1       -4.709   2.842  -4.514  0.00  0.00    +0.000 Cl
ATOM     16  S   LIG    1       -7.359   0.782  -1.912  0.00  0.00    +0.190 S 
ENDBRANCH   5   7
ENDBRANCH   1   2
BRANCH   1  17
ATOM     17  C   LIG    1       -0.732   1.595   1.120  0.00  0.00    +0.000 C 
BRANCH  17  18
ATOM     18  C   LIG    1        0.061   1.547   2.401  0.00  0.00    +0.540 C 
ATOM     19  N   LIG    1        1.036   2.450   2.624  0.00  0.00    -0.660 N 
ATOM     20  H   LIG    1        1.275   3.087   1.932  0.00  0.00    +0.420 HD
ATOM     21  O   LIG    1       -0.179   0.697   3.231  0.00  0.00    -0.500 OA
BRANCH  19  22
ATOM     22  C   LIG    1        1.705   2.470   3.854  0.00  0.00    +0.130 A 
ATOM     23  C   LIG    1        2.121   3.676   4.400  0.00  0.00    +0.030 A 
ATOM     24  C   LIG    1        2.776   3.694   5.616  0.00  0.00    +0.010 A 
ATOM     25  C   LIG    1        3.027   2.508   6.285  0.00  0.00    +0.090 A 
ATOM     26  C   LIG    1        2.617   1.303   5.740  0.00  0.00    +0.010 A 
ATOM     27  F   LIG    1        3.673   2.526   7.472  0.00  0.00    -0.140 F 
ATOM     28  C   LIG    1        1.957   1.282   4.527  0.00  0.00    +0.060 A 
ENDBRANCH  19  22
ENDBRANCH  17  18
BRANCH  17  30
ATOM     29  C   LIG    1        1.357   1.526  -0.250  0.00  0.00    +0.040 C 
ATOM     30  C   LIG    1        0.021   0.834   0.026  0.00  0.00    +0.060 C 
ENDBRANCH  17  30
ENDBRANCH   1  17
TORSDOF 6
