REMARK  Name = ZINCrD00000F5Lx7.0
REMARK                            x       y       z     vdW  Elec       q    Type
REMARK                         _______ _______ _______ _____ _____    ______ ____
ROOT
ATOM      1  C   LIG    1       -0.017   7.863  -0.172  0.00  0.00    +0.530 C 
ATOM      2  O   LIG    1        1.130   8.267  -0.182  0.00  0.00    -0.490 OA
ENDROOT
BRANCH   1   3
ATOM      3  C   LIG    1       -0.288   6.423  -0.066  0.00  0.00    -0.110 C 
ATOM      4  C   LIG    1        0.758   5.529   0.023  0.00  0.00    +0.270 C 
BRANCH   4   5
ATOM      5  C   LIG    1        0.496   4.089  -0.021  0.00  0.00    -0.110 A 
ATOM      6  C   LIG    1        1.345   3.199   0.651  0.00  0.00    +0.090 A 
ATOM      7  C   LIG    1        1.093   1.846   0.612  0.00  0.00    +0.040 A 
ATOM      8  C   LIG    1        0.004   1.357  -0.100  0.00  0.00    +0.070 A 
ATOM      9  O   LIG    1       -0.449   0.086  -0.291  0.00  0.00    -0.300 OA
ATOM     10  C   LIG    1       -1.340   0.159  -1.419  0.00  0.00    +0.440 C 
ATOM     11  O   LIG    1       -1.830   1.512  -1.383  0.00  0.00    -0.300 OA
ATOM     12  C   LIG    1       -0.847   2.238  -0.773  0.00  0.00    +0.030 A 
ATOM     13  C   LIG    1       -0.605   3.595  -0.735  0.00  0.00    +0.070 A 
ENDBRANCH   4   5
BRANCH   3  14
ATOM     14  C   LIG    1       -1.639   5.948  -0.055  0.00  0.00    +0.250 C 
ATOM     15  N   LIG    1       -2.711   5.571  -0.047  0.00  0.00    -0.390 NA
ENDBRANCH   3  14
ENDBRANCH   1   3
BRANCH   1  16
ATOM     16  O   LIG    1       -1.040   8.737  -0.260  0.00  0.00    -0.330 OA
BRANCH  16  17
ATOM     17  C   LIG    1       -0.697  10.145  -0.362  0.00  0.00    +0.240 C 
BRANCH  17  18
ATOM     18  C   LIG    1       -1.959  10.964  -0.450  0.00  0.00    +0.400 C 
ATOM     19  O   LIG    1       -3.040  10.415  -0.429  0.00  0.00    -0.420 OA
BRANCH  18  24
ATOM     20  C   LIG    1       -1.647  16.687  -0.885  0.00  0.00    +0.100 C 
ATOM     21  C   LIG    1       -1.728  15.187  -0.772  0.00  0.00    -0.050 A 
ATOM     22  C   LIG    1       -0.567  14.438  -0.691  0.00  0.00    +0.000 A 
ATOM     23  C   LIG    1       -0.634  13.065  -0.582  0.00  0.00    +0.050 A 
ATOM     24  C   LIG    1       -1.879  12.429  -0.562  0.00  0.00    -0.170 A 
ATOM     25  C   LIG    1       -3.048  13.193  -0.644  0.00  0.00    +0.090 A 
ATOM     26  C   LIG    1       -2.965  14.565  -0.748  0.00  0.00    -0.100 A 
ATOM     27  C   LIG    1       -4.223  15.389  -0.837  0.00  0.00    +0.090 C 
ENDBRANCH  18  24
ENDBRANCH  17  18
ENDBRANCH  16  17
ENDBRANCH   1  16
TORSDOF 7
