REMARK  Name = ZINCpk00000FbEPv.0
REMARK                            x       y       z     vdW  Elec       q    Type
REMARK                         _______ _______ _______ _____ _____    ______ ____
ROOT
ATOM      1  C   LIG    1       -2.441   3.316  -1.530  0.00  0.00    +0.550 C 
ATOM      2  N   LIG    1       -1.179   3.013  -1.165  0.00  0.00    -0.600 N 
ATOM      3  C   LIG    1       -0.334   4.067  -0.650  0.00  0.00    +0.280 C 
ATOM      4  C   LIG    1       -0.506   4.168   0.885  0.00  0.00    +0.020 C 
ATOM      5  C   LIG    1        0.115   3.010   1.546  0.00  0.00    +0.010 C 
ATOM      6  C   LIG    1       -0.516   1.668   1.183  0.00  0.00    +0.240 C 
ATOM      7  C   LIG    1        0.107   1.154  -0.092  0.00  0.00    +0.010 C 
ATOM      8  C   LIG    1       -0.718   1.618  -1.306  0.00  0.00    +0.270 C 
ATOM      9  O   LIG    1       -3.141   2.473  -2.053  0.00  0.00    -0.510 OA
ENDROOT
BRANCH   1  14
ATOM     10  C   LIG    1       -4.514   8.545  -0.580  0.00  0.00    +0.330 C 
ATOM     11  N   LIG    1       -3.977   7.205  -0.831  0.00  0.00    -0.500 N 
ATOM     12  C   LIG    1       -4.273   6.196   0.026  0.00  0.00    +0.310 A 
ATOM     13  C   LIG    1       -3.798   4.946  -0.179  0.00  0.00    -0.060 A 
ATOM     14  C   LIG    1       -2.974   4.681  -1.294  0.00  0.00    -0.010 A 
ATOM     15  C   LIG    1       -2.676   5.713  -2.165  0.00  0.00    -0.060 A 
ATOM     16  C   LIG    1       -3.199   6.997  -1.910  0.00  0.00    +0.520 A 
ATOM     17  O   LIG    1       -2.947   7.919  -2.667  0.00  0.00    -0.540 OA
ENDBRANCH   1  14
BRANCH   6  18
ATOM     18  N   LIG    1       -0.280   0.709   2.264  0.00  0.00    -0.740 N 
ATOM     19  H   LIG    1        0.477   0.826   2.860  0.00  0.00    +0.400 HD
BRANCH  18  20
ATOM     20  C   LIG    1       -1.145  -0.379   2.438  0.00  0.00    +0.110 A 
ATOM     21  C   LIG    1       -0.928  -1.296   3.464  0.00  0.00    +0.020 A 
ATOM     22  C   LIG    1       -1.809  -2.355   3.598  0.00  0.00    -0.060 A 
ATOM     23  C   LIG    1       -2.874  -2.467   2.711  0.00  0.00    +0.350 A 
ATOM     24  N   LIG    1       -3.049  -1.577   1.748  0.00  0.00    -0.510 NA
ATOM     25  C   LIG    1       -2.232  -0.552   1.594  0.00  0.00    +0.230 A 
BRANCH  23  26
ATOM     26  N   LIG    1       -3.766  -3.530   2.838  0.00  0.00    -0.860 N 
ATOM     27  H   LIG    1       -4.511  -3.614   2.222  0.00  0.00    +0.400 HD
ATOM     28  H   LIG    1       -3.642  -4.186   3.541  0.00  0.00    +0.400 HD
ENDBRANCH  23  26
ENDBRANCH  18  20
ENDBRANCH   6  18
TORSDOF 4
