REMARK  Name = ZINCvU0000000Ecx.0
REMARK                            x       y       z     vdW  Elec       q    Type
REMARK                         _______ _______ _______ _____ _____    ______ ____
ROOT
ATOM      1  C   LIG    1       -0.731  -4.756  -0.243  0.00  0.00    +0.100 C 
ENDROOT
BRANCH   1   3
ATOM      2  N   LIG    1        0.455  -6.926  -0.160  0.00  0.00    -0.480 N 
ATOM      3  C   LIG    1       -0.157  -5.983  -0.904  0.00  0.00    +0.540 C 
ATOM      4  O   LIG    1       -0.246  -6.122  -2.105  0.00  0.00    -0.450 OA
BRANCH   2   9
ATOM      5  C   LIG    1        2.088  -9.520  -3.936  0.00  0.00    +0.160 C 
ATOM      6  C   LIG    1        1.848  -9.228  -2.477  0.00  0.00    +0.100 A 
ATOM      7  C   LIG    1        2.245 -10.049  -1.502  0.00  0.00    -0.100 A 
ATOM      8  S   LIG    1        1.769  -9.338   0.038  0.00  0.00    +0.140 S 
ATOM      9  C   LIG    1        1.081  -8.003  -0.779  0.00  0.00    +0.270 A 
ATOM     10  N   LIG    1        1.223  -8.143  -2.060  0.00  0.00    -0.470 NA
ENDBRANCH   2   9
BRANCH   2  11
ATOM     11  C   LIG    1        0.461  -6.821   1.237  0.00  0.00    +0.090 A 
ATOM     12  C   LIG    1        1.478  -6.124   1.878  0.00  0.00    +0.030 A 
ATOM     13  C   LIG    1        1.478  -6.019   3.255  0.00  0.00    +0.030 A 
ATOM     14  C   LIG    1        0.474  -6.614   3.996  0.00  0.00    +0.040 A 
ATOM     15  C   LIG    1       -0.536  -7.313   3.361  0.00  0.00    +0.030 A 
ATOM     16  C   LIG    1       -0.545  -7.418   1.984  0.00  0.00    +0.030 A 
ENDBRANCH   2  11
ENDBRANCH   1   3
BRANCH   1  17
ATOM     17  S   LIG    1       -1.456  -3.676  -1.501  0.00  0.00    +0.100 S 
BRANCH  17  18
ATOM     18  C   LIG    1       -2.034  -2.362  -0.480  0.00  0.00    +0.140 A 
ATOM     19  N   LIG    1       -1.922  -2.280   0.826  0.00  0.00    -0.290 NA
ATOM     20  N   LIG    1       -2.454  -1.187   1.242  0.00  0.00    -0.270 NA
ATOM     21  C   LIG    1       -2.933  -0.511   0.236  0.00  0.00    +0.200 A 
ATOM     22  N   LIG    1       -2.687  -1.237  -0.896  0.00  0.00    -0.430 N 
BRANCH  22  23
ATOM     23  C   LIG    1       -3.047  -0.881  -2.271  0.00  0.00    +0.200 C 
ATOM     24  C   LIG    1       -2.999  -1.990  -3.324  0.00  0.00    +0.070 C 
ATOM     25  C   LIG    1       -1.932  -0.892  -3.319  0.00  0.00    +0.060 C 
ENDBRANCH  22  23
BRANCH  21  26
ATOM     26  C   LIG    1       -3.633   0.821   0.308  0.00  0.00    +0.250 C 
BRANCH  26  27
ATOM     27  C   LIG    1       -2.619   1.929   0.184  0.00  0.00    -0.190 A 
ATOM     28  C   LIG    1       -2.223   2.484  -0.962  0.00  0.00    +0.010 A 
ATOM     29  C   LIG    1       -1.282   3.490  -0.829  0.00  0.00    +0.000 A 
ATOM     30  C   LIG    1       -0.907   3.746   0.426  0.00  0.00    -0.040 A 
ATOM     31  S   LIG    1       -1.772   2.684   1.528  0.00  0.00    +0.130 S 
ENDBRANCH  26  27
ENDBRANCH  21  26
ENDBRANCH  17  18
ENDBRANCH   1  17
TORSDOF 8
