REMARK  Name = ZINCb7000000105j.0
REMARK                            x       y       z     vdW  Elec       q    Type
REMARK                         _______ _______ _______ _____ _____    ______ ____
ROOT
ATOM      1  C   LIG    1        2.424   0.737  -0.017  0.00  0.00    -0.020 C 
ATOM      2  C   LIG    1        2.416  -0.050  -1.331  0.00  0.00    +0.040 C 
ATOM      3  C   LIG    1        3.640  -0.969  -1.371  0.00  0.00    +0.050 C 
ATOM      4  C   LIG    1        4.908  -0.128  -1.206  0.00  0.00    +0.250 C 
ATOM      5  N   LIG    1        4.867   0.579   0.080  0.00  0.00    -0.500 N 
ATOM      6  H   LIG    1        4.759  -0.092   0.826  0.00  0.00    +0.430 HD
ATOM      7  H   LIG    1        5.728   1.089   0.210  0.00  0.00    +0.440 HD
ATOM      8  C   LIG    1        3.737   1.515   0.098  0.00  0.00    +0.280 C 
ENDROOT
BRANCH   1   9
ATOM      9  C   LIG    1        1.248   1.716  -0.001  0.00  0.00    +0.280 C 
BRANCH   9  12
ATOM     10  C   LIG    1       -2.482   0.853   0.018  0.00  0.00    +0.110 C 
ATOM     11  C   LIG    1       -1.187   1.624   0.017  0.00  0.00    +0.510 C 
ATOM     12  N   LIG    1       -0.011   0.966   0.007  0.00  0.00    -0.740 N 
ATOM     13  H   LIG    1        0.002  -0.004   0.002  0.00  0.00    +0.400 HD
ATOM     14  O   LIG    1       -1.204   2.837   0.023  0.00  0.00    -0.540 OA
ENDBRANCH   9  12
ENDBRANCH   1   9
TORSDOF 2
