REMARK  Name = ZINCqH0000004rIk.0
REMARK                            x       y       z     vdW  Elec       q    Type
REMARK                         _______ _______ _______ _____ _____    ______ ____
ROOT
ATOM      1  N   LIG    1       -2.381   0.091  -0.448  0.00  0.00    -0.570 N 
ATOM      2  C   LIG    1       -2.626   1.373   0.218  0.00  0.00    +0.310 C 
ENDROOT
BRANCH   1   3
ATOM      3  C   LIG    1       -3.178  -0.299  -1.519  0.00  0.00    +0.430 A 
ATOM      4  N   LIG    1       -2.950  -1.449  -2.110  0.00  0.00    -0.320 NA
ATOM      5  N   LIG    1       -3.739  -1.860  -3.187  0.00  0.00    -0.240 N 
ATOM      6  C   LIG    1       -4.761  -1.061  -3.636  0.00  0.00    +0.150 A 
ATOM      7  C   LIG    1       -5.004   0.172  -3.000  0.00  0.00    +0.190 A 
ATOM      8  N   LIG    1       -5.327  -1.696  -4.650  0.00  0.00    -0.240 NA
ATOM      9  N   LIG    1       -4.720  -2.815  -4.842  0.00  0.00    -0.200 NA
ATOM     10  C   LIG    1       -3.748  -2.956  -3.975  0.00  0.00    +0.100 A 
ATOM     11  C   LIG    1       -4.222   0.541  -1.952  0.00  0.00    +0.000 A 
BRANCH  10  12
ATOM     12  C   LIG    1       -2.808  -4.130  -3.877  0.00  0.00    +0.580 C 
ATOM     13  F   LIG    1       -3.160  -4.918  -2.776  0.00  0.00    -0.160 F 
ATOM     14  F   LIG    1       -1.498  -3.666  -3.718  0.00  0.00    -0.160 F 
ATOM     15  F   LIG    1       -2.893  -4.895  -5.045  0.00  0.00    -0.150 F 
ENDBRANCH  10  12
ENDBRANCH   1   3
BRANCH   1  16
ATOM     16  C   LIG    1       -1.296  -0.778   0.013  0.00  0.00    +0.320 C 
BRANCH  16  17
ATOM     17  C   LIG    1       -0.001  -0.008   0.015  0.00  0.00    -0.140 A 
ATOM     18  C   LIG    1        0.530   0.450   1.205  0.00  0.00    +0.060 A 
ATOM     19  C   LIG    1        1.718   1.157   1.207  0.00  0.00    -0.030 A 
ATOM     20  C   LIG    1        2.378   1.407   0.018  0.00  0.00    +0.060 A 
ATOM     21  C   LIG    1        1.852   0.952  -1.175  0.00  0.00    -0.080 A 
ATOM     22  C   LIG    1        0.660   0.242  -1.179  0.00  0.00    +0.150 A 
BRANCH  22  23
ATOM     23  O   LIG    1        0.140  -0.208  -2.352  0.00  0.00    -0.300 OA
ATOM     24  C   LIG    1        0.874   0.086  -3.542  0.00  0.00    +0.240 C 
ENDBRANCH  22  23
ENDBRANCH  16  17
BRANCH  16  26
ATOM     25  C   LIG    1       -2.848  -2.152   1.409  0.00  0.00    +0.020 C 
ATOM     26  C   LIG    1       -1.601  -1.266   1.431  0.00  0.00    +0.010 C 
ENDBRANCH  16  26
ENDBRANCH   1  16
TORSDOF 6
