REMARK  Name = ZINC9p0000002gUd.0
REMARK                            x       y       z     vdW  Elec       q    Type
REMARK                         _______ _______ _______ _____ _____    ______ ____
ROOT
ATOM      1  C   LIG    1       -0.013   1.086   0.008  0.00  0.00    +0.020 C 
ATOM      2  C   LIG    1       -0.800   1.618  -1.212  0.00  0.00    +0.000 C 
ATOM      3  C   LIG    1       -2.291   1.215  -1.295  0.00  0.00    +0.020 C 
ATOM      4  C   LIG    1       -2.295  -0.356  -1.279  0.00  0.00    +0.070 C 
ATOM      5  C   LIG    1       -3.329  -0.748  -0.203  0.00  0.00    +0.220 C 
ATOM      6  N   LIG    1       -3.108  -0.269   1.185  0.00  0.00    -0.530 N 
ATOM      7  C   LIG    1       -1.755  -0.822   1.579  0.00  0.00    +0.290 C 
ATOM      8  C   LIG    1       -0.988   0.378   2.171  0.00  0.00    +0.020 C 
ATOM      9  H   LIG    1       -3.825  -0.626   1.798  0.00  0.00    +0.440 HD
ATOM     10  H   LIG    1       -3.095   0.740   1.209  0.00  0.00    +0.430 HD
ATOM     11  C   LIG    1       -0.788   1.613   1.268  0.00  0.00    +0.040 C 
ENDROOT
TORSDOF 0
