REMARK  Name = ZINCrD000000ACE3.0
REMARK                            x       y       z     vdW  Elec       q    Type
REMARK                         _______ _______ _______ _____ _____    ______ ____
ROOT
ATOM      1  C   LIG    1       -2.471   0.960   0.019  0.00  0.00    +0.060 A 
ATOM      2  N   LIG    1       -3.015   0.467   1.077  0.00  0.00    -0.450 NA
ATOM      3  C   LIG    1       -3.995  -0.408   0.901  0.00  0.00    +0.120 A 
ATOM      4  C   LIG    1       -4.277  -0.665  -0.392  0.00  0.00    -0.070 A 
ATOM      5  S   LIG    1       -3.193   0.306  -1.385  0.00  0.00    +0.150 S 
ENDROOT
BRANCH   3   6
ATOM      6  C   LIG    1       -4.714  -1.052   2.027  0.00  0.00    -0.050 A 
ATOM      7  C   LIG    1       -5.737  -1.964   1.772  0.00  0.00    +0.060 A 
ATOM      8  C   LIG    1       -6.400  -2.566   2.821  0.00  0.00    +0.000 A 
ATOM      9  C   LIG    1       -6.057  -2.255   4.131  0.00  0.00    +0.170 A 
ATOM     10  C   LIG    1       -5.043  -1.341   4.388  0.00  0.00    -0.030 A 
ATOM     11  C   LIG    1       -4.372  -0.741   3.343  0.00  0.00    +0.080 A 
BRANCH   9  12
ATOM     12  N   LIG    1       -6.736  -2.862   5.194  0.00  0.00    -0.560 N 
ATOM     13  C   LIG    1       -6.375  -2.700   6.607  0.00  0.00    +0.260 C 
ATOM     14  C   LIG    1       -7.083  -3.856   7.348  0.00  0.00    +0.060 C 
ATOM     15  C   LIG    1       -8.271  -4.155   6.404  0.00  0.00    +0.070 C 
ATOM     16  C   LIG    1       -7.804  -3.665   5.051  0.00  0.00    +0.520 C 
ATOM     17  O   LIG    1       -8.317  -3.957   3.992  0.00  0.00    -0.510 OA
ENDBRANCH   9  12
ENDBRANCH   3   6
BRANCH   1  18
ATOM     18  C   LIG    1       -1.349   1.967   0.019  0.00  0.00    +0.180 C 
BRANCH  18  20
ATOM     19  O   LIG    1        0.003   0.033   0.024  0.00  0.00    -0.520 OA
ATOM     20  C   LIG    1       -0.026   1.245   0.022  0.00  0.00    +0.520 C 
ATOM     21  N   LIG    1        1.124   1.947   0.017  0.00  0.00    -0.730 N 
ATOM     22  H   LIG    1        1.101   2.917   0.015  0.00  0.00    +0.410 HD
BRANCH  21  23
ATOM     23  C   LIG    1        2.410   1.245   0.013  0.00  0.00    +0.390 C 
BRANCH  23  24
ATOM     24  C   LIG    1        3.532   2.252   0.008  0.00  0.00    -0.040 A 
ATOM     25  C   LIG    1        4.117   2.783   1.096  0.00  0.00    -0.030 A 
ATOM     26  C   LIG    1        5.114   3.672   0.632  0.00  0.00    -0.070 A 
ATOM     27  C   LIG    1        5.072   3.637  -0.712  0.00  0.00    +0.180 A 
ATOM     28  O   LIG    1        4.112   2.776  -1.084  0.00  0.00    -0.170 OA
ENDBRANCH  23  24
ENDBRANCH  21  23
ENDBRANCH  18  20
ENDBRANCH   1  18
TORSDOF 6
