REMARK  Name = ZINCpe000000XT9d.0
REMARK                            x       y       z     vdW  Elec       q    Type
REMARK                         _______ _______ _______ _____ _____    ______ ____
ROOT
ATOM      1  N   LIG    1       -0.767   3.218  -1.093  0.00  0.00    -0.730 N 
ATOM      2  H   LIG    1       -0.066   3.662  -0.590  0.00  0.00    +0.400 HD
ATOM      3  C   LIG    1       -1.435   3.887  -2.053  0.00  0.00    +0.520 C 
ATOM      4  O   LIG    1       -2.311   3.333  -2.681  0.00  0.00    -0.520 OA
ENDROOT
BRANCH   3   5
ATOM      5  C   LIG    1       -1.092   5.325  -2.346  0.00  0.00    +0.170 C 
ATOM      6  C   LIG    1       -1.559   6.207  -1.187  0.00  0.00    +0.030 C 
BRANCH   5   7
ATOM      7  N   LIG    1       -1.764   5.746  -3.583  0.00  0.00    -0.510 NA
ATOM      8  C   LIG    1       -1.200   7.007  -4.085  0.00  0.00    +0.180 C 
ATOM      9  C   LIG    1       -1.870   7.369  -5.413  0.00  0.00    +0.180 C 
ATOM     10  N   LIG    1       -3.321   7.488  -5.210  0.00  0.00    -0.530 NA
ATOM     11  C   LIG    1       -3.884   6.227  -4.708  0.00  0.00    +0.190 C 
ATOM     12  C   LIG    1       -3.214   5.865  -3.381  0.00  0.00    +0.190 C 
BRANCH  10  13
ATOM     13  C   LIG    1       -3.992   7.909  -6.447  0.00  0.00    +0.180 C 
BRANCH  13  14
ATOM     14  C   LIG    1       -3.484   7.063  -7.617  0.00  0.00    +0.160 C 
ATOM     15  C   LIG    1       -4.115   7.561  -8.918  0.00  0.00    +0.010 C 
BRANCH  14  16
ATOM     16  O   LIG    1       -3.842   5.696  -7.407  0.00  0.00    -0.560 OA
ATOM     17  H   LIG    1       -4.795   5.545  -7.338  0.00  0.00    +0.370 HD
ENDBRANCH  14  16
ENDBRANCH  13  14
ENDBRANCH  10  13
ENDBRANCH   5   7
ENDBRANCH   3   5
BRANCH   1  18
ATOM     18  C   LIG    1       -1.100   1.820  -0.808  0.00  0.00    +0.290 C 
BRANCH  18  19
ATOM     19  C   LIG    1       -0.202   1.301   0.317  0.00  0.00    +0.200 C 
BRANCH  19  20
ATOM     20  O   LIG    1       -0.489   2.011   1.523  0.00  0.00    -0.310 OA
BRANCH  20  26
ATOM     21  C   LIG    1        0.483   2.673   6.260  0.00  0.00    +0.090 C 
ATOM     22  C   LIG    1        0.730   1.969   4.950  0.00  0.00    -0.050 A 
ATOM     23  C   LIG    1        1.685   0.973   4.871  0.00  0.00    -0.040 A 
ATOM     24  C   LIG    1        1.914   0.325   3.671  0.00  0.00    +0.050 A 
ATOM     25  C   LIG    1        1.183   0.666   2.550  0.00  0.00    -0.090 A 
ATOM     26  C   LIG    1        0.227   1.669   2.626  0.00  0.00    +0.130 A 
ATOM     27  C   LIG    1        0.000   2.318   3.830  0.00  0.00    -0.020 A 
ENDBRANCH  20  26
ENDBRANCH  19  20
ENDBRANCH  18  19
ENDBRANCH   1  18
TORSDOF 9
