REMARK  Name = ZINCqH0000051vBS.0
REMARK                            x       y       z     vdW  Elec       q    Type
REMARK                         _______ _______ _______ _____ _____    ______ ____
ROOT
ATOM      1  C   LIG    1       -4.572  -0.171   2.834  0.00  0.00    +0.350 A 
ATOM      2  N   LIG    1       -5.714  -0.813   3.010  0.00  0.00    -0.440 NA
ATOM      3  C   LIG    1       -6.446  -1.220   1.990  0.00  0.00    +0.260 A 
ATOM      4  C   LIG    1       -6.046  -0.983   0.690  0.00  0.00    -0.020 A 
ATOM      5  C   LIG    1       -4.856  -0.306   0.457  0.00  0.00    +0.000 A 
ATOM      6  C   LIG    1       -4.108   0.110   1.548  0.00  0.00    +0.040 A 
ENDROOT
BRANCH   1   9
ATOM      7  O   LIG    1       -5.317  -0.626   5.343  0.00  0.00    -0.470 OA
ATOM      8  C   LIG    1       -4.271  -0.032   5.187  0.00  0.00    +0.540 C 
ATOM      9  N   LIG    1       -3.828   0.236   3.942  0.00  0.00    -0.650 N 
ATOM     10  H   LIG    1       -2.992   0.712   3.817  0.00  0.00    +0.420 HD
BRANCH   8  11
ATOM     11  C   LIG    1       -3.468   0.407   6.384  0.00  0.00    -0.050 C 
ATOM     12  C   LIG    1       -2.809  -0.683   7.231  0.00  0.00    +0.080 C 
ATOM     13  C   LIG    1       -4.025   0.073   7.769  0.00  0.00    +0.050 C 
BRANCH  13  14
ATOM     14  C   LIG    1       -3.790   1.073   8.873  0.00  0.00    -0.060 A 
ATOM     15  C   LIG    1       -2.500   1.404   9.242  0.00  0.00    +0.000 A 
ATOM     16  C   LIG    1       -2.285   2.324  10.251  0.00  0.00    +0.000 A 
ATOM     17  C   LIG    1       -3.359   2.905  10.898  0.00  0.00    +0.000 A 
ATOM     18  C   LIG    1       -4.650   2.570  10.532  0.00  0.00    +0.000 A 
ATOM     19  C   LIG    1       -4.865   1.653   9.520  0.00  0.00    +0.010 A 
ENDBRANCH  13  14
ENDBRANCH   8  11
ENDBRANCH   1   9
BRANCH   6  20
ATOM     20  O   LIG    1       -2.936   0.776   1.368  0.00  0.00    -0.310 OA
BRANCH  20  21
ATOM     21  C   LIG    1       -2.528   1.018   0.020  0.00  0.00    +0.260 C 
BRANCH  21  22
ATOM     22  C   LIG    1       -1.218   1.762   0.017  0.00  0.00    -0.050 A 
ATOM     23  C   LIG    1       -0.013   1.076   0.008  0.00  0.00    -0.010 A 
ATOM     24  C   LIG    1        1.170   1.792   0.001  0.00  0.00    +0.260 A 
ATOM     25  N   LIG    1        1.160   3.110   0.007  0.00  0.00    -0.480 NA
ATOM     26  C   LIG    1        0.033   3.795   0.021  0.00  0.00    +0.260 A 
ATOM     27  C   LIG    1       -1.188   3.148   0.030  0.00  0.00    -0.010 A 
ENDBRANCH  21  22
ENDBRANCH  20  21
ENDBRANCH   6  20
TORSDOF 6
