REMARK  Name = ZINCvU0000000B5x.0
REMARK                            x       y       z     vdW  Elec       q    Type
REMARK                         _______ _______ _______ _____ _____    ______ ____
ROOT
ATOM      1  C   LIG    1        1.370  -1.600  -1.485  0.00  0.00    +0.570 C 
ATOM      2  N   LIG    1        1.144  -0.355  -1.022  0.00  0.00    -0.610 N 
ATOM      3  C   LIG    1       -0.118   0.125  -0.429  0.00  0.00    +0.240 C 
ATOM      4  C   LIG    1       -0.097   1.660  -0.641  0.00  0.00    +0.040 C 
ATOM      5  C   LIG    1        1.405   1.983  -0.425  0.00  0.00    +0.050 C 
ATOM      6  C   LIG    1        2.114   0.750  -1.024  0.00  0.00    +0.270 C 
ATOM      7  O   LIG    1        2.420  -1.860  -2.041  0.00  0.00    -0.500 OA
ENDROOT
BRANCH   6   8
ATOM      8  C   LIG    1        3.310   0.383  -0.183  0.00  0.00    -0.080 A 
ATOM      9  C   LIG    1        3.133  -0.291   1.011  0.00  0.00    +0.020 A 
ATOM     10  C   LIG    1        4.228  -0.633   1.783  0.00  0.00    +0.020 A 
ATOM     11  C   LIG    1        5.505  -0.290   1.367  0.00  0.00    +0.050 A 
ATOM     12  O   LIG    1        6.573  -0.624   2.142  0.00  0.00    -0.310 OA
ATOM     13  C   LIG    1        7.859  -0.596   1.514  0.00  0.00    +0.220 C 
ATOM     14  C   LIG    1        7.975   0.711   0.716  0.00  0.00    +0.220 C 
ATOM     15  O   LIG    1        6.928   0.734  -0.261  0.00  0.00    -0.310 OA
ATOM     16  C   LIG    1        5.683   0.392   0.169  0.00  0.00    +0.050 A 
ATOM     17  C   LIG    1        4.581   0.727  -0.604  0.00  0.00    +0.030 A 
ENDBRANCH   6   8
BRANCH   1  23
ATOM     18  C   LIG    1        0.107  -3.570  -2.341  0.00  0.00    -0.030 A 
ATOM     19  C   LIG    1       -0.853  -4.546  -2.178  0.00  0.00    +0.040 A 
ATOM     20  C   LIG    1       -1.582  -4.616  -1.004  0.00  0.00    +0.040 A 
ATOM     21  C   LIG    1       -1.353  -3.707   0.014  0.00  0.00    +0.020 A 
ATOM     22  C   LIG    1       -0.393  -2.728  -0.134  0.00  0.00    +0.040 A 
ATOM     23  C   LIG    1        0.343  -2.650  -1.318  0.00  0.00    -0.110 A 
BRANCH  18  24
ATOM     24  C   LIG    1        0.899  -3.495  -3.620  0.00  0.00    +0.110 C 
BRANCH  24  25
ATOM     25  S   LIG    1        2.361  -4.554  -3.487  0.00  0.00    +0.060 S 
BRANCH  25  30
ATOM     26  C   LIG    1        5.831  -5.070  -7.332  0.00  0.00    +0.160 C 
ATOM     27  C   LIG    1        4.575  -4.513  -6.713  0.00  0.00    +0.080 A 
ATOM     28  C   LIG    1        3.773  -3.660  -7.352  0.00  0.00    -0.090 A 
ATOM     29  S   LIG    1        2.433  -3.262  -6.281  0.00  0.00    +0.120 S 
ATOM     30  C   LIG    1        3.081  -4.284  -5.073  0.00  0.00    +0.030 A 
ATOM     31  N   LIG    1        4.183  -4.826  -5.491  0.00  0.00    -0.460 NA
ENDBRANCH  25  30
ENDBRANCH  24  25
ENDBRANCH  18  24
ENDBRANCH   1  23
TORSDOF 5
