REMARK  Name = ZINCpk00001AZiCt.0
REMARK                            x       y       z     vdW  Elec       q    Type
REMARK                         _______ _______ _______ _____ _____    ______ ____
ROOT
ATOM      1  C   LIG    1        3.576   1.960  -0.122  0.00  0.00    +0.520 C 
ATOM      2  N   LIG    1        2.426   1.265  -0.013  0.00  0.00    -0.670 N 
ATOM      3  H   LIG    1        2.449   0.297   0.051  0.00  0.00    +0.410 HD
ATOM      4  O   LIG    1        3.554   3.173  -0.117  0.00  0.00    -0.500 OA
ENDROOT
BRANCH   2   5
ATOM      5  C   LIG    1        1.198   1.940   0.007  0.00  0.00    +0.030 A 
ATOM      6  C   LIG    1        0.251   1.684  -0.947  0.00  0.00    +0.110 A 
ATOM      7  C   LIG    1       -0.968   2.374  -0.903  0.00  0.00    -0.060 A 
ATOM      8  C   LIG    1       -1.198   3.281   0.073  0.00  0.00    +0.280 A 
ATOM      9  N   LIG    1       -0.261   3.533   1.025  0.00  0.00    -0.490 N 
ATOM     10  C   LIG    1        0.924   2.893   1.011  0.00  0.00    +0.520 A 
ATOM     11  O   LIG    1        1.758   3.134   1.870  0.00  0.00    -0.520 OA
BRANCH   9  12
ATOM     12  C   LIG    1       -0.541   4.517   2.074  0.00  0.00    +0.200 C 
ATOM     13  C   LIG    1       -2.007   4.521   2.548  0.00  0.00    +0.230 C 
ATOM     14  O   LIG    1       -1.898   5.958   2.504  0.00  0.00    -0.360 OA
ATOM     15  C   LIG    1       -0.828   5.933   1.539  0.00  0.00    +0.230 C 
ENDBRANCH   9  12
ENDBRANCH   2   5
BRANCH   1  16
ATOM     16  C   LIG    1        4.888   1.230  -0.251  0.00  0.00    +0.120 C 
BRANCH  16  23
ATOM     17  C   LIG    1        9.818   5.682  -1.426  0.00  0.00    +0.350 C 
ATOM     18  N   LIG    1        9.096   4.954  -0.380  0.00  0.00    -0.410 N 
ATOM     19  N   LIG    1        9.342   5.050   0.993  0.00  0.00    -0.250 NA
ATOM     20  C   LIG    1        8.527   4.274   1.649  0.00  0.00    +0.280 A 
ATOM     21  C   LIG    1        7.670   3.603   0.677  0.00  0.00    -0.180 A 
ATOM     22  C   LIG    1        6.628   2.675   0.776  0.00  0.00    +0.110 A 
ATOM     23  C   LIG    1        6.011   2.230  -0.357  0.00  0.00    -0.110 A 
ATOM     24  C   LIG    1        6.411   2.686  -1.607  0.00  0.00    +0.080 A 
ATOM     25  C   LIG    1        7.422   3.596  -1.729  0.00  0.00    -0.020 A 
ATOM     26  C   LIG    1        8.071   4.068  -0.591  0.00  0.00    +0.130 A 
ENDBRANCH  16  23
ENDBRANCH   1  16
TORSDOF 4
