REMARK  Name = ZINCpk000005V3TO.0
REMARK                            x       y       z     vdW  Elec       q    Type
REMARK                         _______ _______ _______ _____ _____    ______ ____
ROOT
ATOM      1  N   LIG    1       -1.191   1.870   0.018  0.00  0.00    -0.740 N 
ATOM      2  H   LIG    1       -1.204   2.840   0.023  0.00  0.00    +0.400 HD
ATOM      3  C   LIG    1       -0.014   1.212   0.009  0.00  0.00    +0.730 C 
ATOM      4  N   LIG    1        1.143   1.901   0.001  0.00  0.00    -0.630 N 
ATOM      5  C   LIG    1        1.268   3.366   0.002  0.00  0.00    +0.240 C 
ATOM      6  C   LIG    1        2.776   3.698   0.021  0.00  0.00    +0.080 C 
ATOM      7  C   LIG    1        3.411   2.403   0.594  0.00  0.00    +0.070 C 
ATOM      8  C   LIG    1        2.495   1.312  -0.015  0.00  0.00    +0.290 C 
ATOM      9  O   LIG    1        0.002  -0.004   0.002  0.00  0.00    -0.580 OA
ENDROOT
BRANCH   7  10
ATOM     10  C   LIG    1        4.853   2.240   0.111  0.00  0.00    +0.370 C 
ATOM     11  F   LIG    1        5.644   3.259   0.652  0.00  0.00    -0.190 F 
ATOM     12  F   LIG    1        4.889   2.314  -1.286  0.00  0.00    -0.190 F 
ENDBRANCH   7  10
BRANCH   7  13
ATOM     13  O   LIG    1        3.346   2.389   2.021  0.00  0.00    -0.520 OA
ATOM     14  H   LIG    1        3.641   1.559   2.420  0.00  0.00    +0.390 HD
ENDBRANCH   7  13
BRANCH   1  15
ATOM     15  C   LIG    1       -2.449   1.120   0.020  0.00  0.00    +0.310 C 
BRANCH  15  16
ATOM     16  C   LIG    1       -3.626   2.098   0.031  0.00  0.00    +0.050 C 
BRANCH  16  18
ATOM     17  O   LIG    1       -4.904   0.114   0.026  0.00  0.00    -0.530 OA
ATOM     18  C   LIG    1       -4.920   1.327   0.033  0.00  0.00    +0.530 C 
ATOM     19  N   LIG    1       -6.096   1.985   0.042  0.00  0.00    -0.610 N 
ATOM     20  C   LIG    1       -7.371   1.252   0.044  0.00  0.00    +0.300 C 
ATOM     21  C   LIG    1       -8.095   1.535   1.364  0.00  0.00    +0.110 C 
ATOM     22  C   LIG    1       -8.035   3.020   1.652  0.00  0.00    -0.170 A 
ATOM     23  C   LIG    1       -7.171   3.884   1.085  0.00  0.00    -0.130 A 
ATOM     24  C   LIG    1       -7.317   5.195   1.528  0.00  0.00    +0.020 A 
ATOM     25  C   LIG    1       -8.277   5.396   2.426  0.00  0.00    -0.040 A 
ATOM     26  S   LIG    1       -9.083   3.875   2.777  0.00  0.00    +0.110 S 
ATOM     27  C   LIG    1       -6.139   3.454   0.056  0.00  0.00    +0.360 C 
ENDBRANCH  16  18
ENDBRANCH  15  16
ENDBRANCH   1  15
TORSDOF 5
