REMARK  Name = ZINCqH0000005edq.2
REMARK                            x       y       z     vdW  Elec       q    Type
REMARK                         _______ _______ _______ _____ _____    ______ ____
ROOT
ATOM      1  C   LIG    1        2.483   1.067  -0.010  0.00  0.00    +0.330 C 
ENDROOT
BRANCH   1   2
ATOM      2  C   LIG    1        1.250   1.923   0.130  0.00  0.00    -0.100 A 
ATOM      3  C   LIG    1       -0.001   1.336   0.141  0.00  0.00    +0.020 A 
ATOM      4  C   LIG    1       -1.132   2.121   0.264  0.00  0.00    +0.010 A 
ATOM      5  C   LIG    1       -1.011   3.493   0.386  0.00  0.00    +0.010 A 
ATOM      6  C   LIG    1        0.240   4.080   0.375  0.00  0.00    +0.010 A 
ATOM      7  C   LIG    1        1.371   3.295   0.247  0.00  0.00    +0.050 A 
ENDBRANCH   1   2
BRANCH   1   8
ATOM      8  C   LIG    1        3.185   0.977   1.320  0.00  0.00    +0.190 A 
ATOM      9  N   LIG    1        3.188  -0.053   2.129  0.00  0.00    -0.470 NA
ATOM     10  C   LIG    1        3.944   0.319   3.187  0.00  0.00    +0.210 A 
ATOM     11  N   LIG    1        4.344   1.543   2.964  0.00  0.00    -0.370 NA
ATOM     12  O   LIG    1        3.918   1.934   1.898  0.00  0.00    +0.100 OA
BRANCH  10  13
ATOM     13  C   LIG    1        4.256  -0.507   4.380  0.00  0.00    -0.030 A 
ATOM     14  C   LIG    1        3.753  -1.802   4.486  0.00  0.00    +0.050 A 
ATOM     15  C   LIG    1        4.051  -2.567   5.595  0.00  0.00    +0.010 A 
ATOM     16  C   LIG    1        4.838  -2.047   6.606  0.00  0.00    +0.030 A 
ATOM     17  C   LIG    1        5.335  -0.760   6.510  0.00  0.00    +0.010 A 
ATOM     18  C   LIG    1        5.048   0.012   5.402  0.00  0.00    +0.050 A 
ENDBRANCH  10  13
ENDBRANCH   1   8
BRANCH   1  20
ATOM     19  C   LIG    1        2.720   1.812  -2.302  0.00  0.00    +0.210 C 
ATOM     20  N   LIG    1        3.386   1.669  -1.001  0.00  0.00    -0.530 NA
BRANCH  20  21
ATOM     21  C   LIG    1        4.624   0.888  -1.127  0.00  0.00    +0.180 C 
BRANCH  21  22
ATOM     22  C   LIG    1        5.636   1.667  -1.969  0.00  0.00    -0.030 C 
ATOM     23  C   LIG    1        6.921   0.832  -2.184  0.00  0.00    +0.010 C 
ATOM     24  C   LIG    1        8.032   1.904  -2.026  0.00  0.00    +0.200 C 
ATOM     25  O   LIG    1        7.528   2.764  -0.982  0.00  0.00    -0.380 OA
ATOM     26  C   LIG    1        6.117   2.920  -1.212  0.00  0.00    +0.210 C 
ENDBRANCH  21  22
ENDBRANCH  20  21
ENDBRANCH   1  20
TORSDOF 6
