REMARK  Name = ZINCrg000000o1bK.0
REMARK                            x       y       z     vdW  Elec       q    Type
REMARK                         _______ _______ _______ _____ _____    ______ ____
ROOT
ATOM      1  N   LIG    1        3.259   4.198   3.911  0.00  0.00    -0.560 N 
ATOM      2  C   LIG    1        2.480   4.123   2.814  0.00  0.00    +0.530 C 
ATOM      3  O   LIG    1        2.289   5.112   2.137  0.00  0.00    -0.500 OA
ENDROOT
BRANCH   1   4
ATOM      4  C   LIG    1        3.583   3.036   4.619  0.00  0.00    +0.110 A 
ATOM      5  C   LIG    1        2.710   2.539   5.578  0.00  0.00    +0.030 A 
ATOM      6  C   LIG    1        3.030   1.389   6.272  0.00  0.00    +0.020 A 
ATOM      7  C   LIG    1        4.224   0.737   6.020  0.00  0.00    +0.020 A 
ATOM      8  C   LIG    1        5.098   1.233   5.070  0.00  0.00    +0.020 A 
ATOM      9  C   LIG    1        4.781   2.380   4.369  0.00  0.00    +0.020 A 
ENDBRANCH   1   4
BRANCH   1  10
ATOM     10  C   LIG    1        3.767   5.496   4.362  0.00  0.00    +0.370 C 
BRANCH  10  11
ATOM     11  C   LIG    1        2.786   6.112   5.325  0.00  0.00    +0.450 C 
ATOM     12  O   LIG    1        1.767   5.527   5.607  0.00  0.00    -0.500 OA
BRANCH  11  13
ATOM     13  O   LIG    1        3.044   7.311   5.871  0.00  0.00    -0.360 OA
BRANCH  13  15
ATOM     14  C   LIG    1        2.519   9.207   7.306  0.00  0.00    +0.070 C 
ATOM     15  C   LIG    1        2.054   7.844   6.791  0.00  0.00    +0.200 C 
ENDBRANCH  13  15
ENDBRANCH  11  13
ENDBRANCH  10  11
ENDBRANCH   1  10
BRANCH   2  16
ATOM     16  C   LIG    1        1.845   2.812   2.428  0.00  0.00    +0.220 C 
BRANCH  16  17
ATOM     17  N   LIG    1        0.936   3.023   1.294  0.00  0.00    -0.500 NA
ATOM     18  C   LIG    1        0.295   1.761   0.890  0.00  0.00    +0.230 C 
ATOM     19  C   LIG    1       -0.340   1.120   2.126  0.00  0.00    +0.070 C 
ATOM     20  C   LIG    1       -1.187   2.132   2.848  0.00  0.00    -0.260 A 
ATOM     21  C   LIG    1       -2.120   1.699   3.780  0.00  0.00    +0.370 A 
ATOM     22  N   LIG    1       -2.864   2.592   4.412  0.00  0.00    -0.570 NA
ATOM     23  C   LIG    1       -2.716   3.886   4.170  0.00  0.00    +0.570 A 
ATOM     24  N   LIG    1       -1.835   4.330   3.286  0.00  0.00    -0.560 NA
ATOM     25  C   LIG    1       -1.063   3.487   2.613  0.00  0.00    +0.200 A 
ATOM     26  C   LIG    1       -0.079   4.032   1.615  0.00  0.00    +0.320 C 
BRANCH  23  27
ATOM     27  N   LIG    1       -3.505   4.795   4.853  0.00  0.00    -0.820 N 
ATOM     28  H   LIG    1       -4.154   4.482   5.502  0.00  0.00    +0.410 HD
ATOM     29  H   LIG    1       -3.408   5.745   4.682  0.00  0.00    +0.410 HD
ENDBRANCH  23  27
ENDBRANCH  16  17
ENDBRANCH   2  16
TORSDOF 8
