REMARK  Name = ZINCqH00000078gS.0
REMARK                            x       y       z     vdW  Elec       q    Type
REMARK                         _______ _______ _______ _____ _____    ______ ____
ROOT
ATOM      1  C   LIG    1       -2.449   1.117   0.020  0.00  0.00    +0.350 C 
ENDROOT
BRANCH   1   2
ATOM      2  C   LIG    1       -3.537   1.963   0.630  0.00  0.00    +0.270 A 
ATOM      3  N   LIG    1       -3.993   3.071   0.122  0.00  0.00    -0.470 NA
ATOM      4  C   LIG    1       -4.965   3.574   0.925  0.00  0.00    +0.040 A 
ATOM      5  C   LIG    1       -5.774   4.712   0.861  0.00  0.00    +0.070 A 
ATOM      6  C   LIG    1       -6.687   4.954   1.848  0.00  0.00    +0.000 A 
ATOM      7  C   LIG    1       -6.823   4.080   2.917  0.00  0.00    +0.040 A 
ATOM      8  C   LIG    1       -6.036   2.951   3.000  0.00  0.00    +0.010 A 
ATOM      9  C   LIG    1       -5.103   2.688   2.007  0.00  0.00    +0.050 A 
ATOM     10  N   LIG    1       -4.189   1.676   1.789  0.00  0.00    -0.590 N 
ATOM     11  H   LIG    1       -4.039   0.905   2.358  0.00  0.00    +0.420 HD
ENDBRANCH   1   2
BRANCH   1  13
ATOM     12  C   LIG    1       -0.014   1.209   0.009  0.00  0.00    +0.520 C 
ATOM     13  N   LIG    1       -1.191   1.867   0.018  0.00  0.00    -0.720 N 
ATOM     14  H   LIG    1       -1.204   2.837   0.023  0.00  0.00    +0.410 HD
ATOM     15  O   LIG    1        0.002  -0.004   0.002  0.00  0.00    -0.520 OA
BRANCH  12  16
ATOM     16  C   LIG    1        1.280   1.980   0.001  0.00  0.00    +0.110 C 
BRANCH  16  20
ATOM     17  C   LIG    1        4.566  -0.752  -0.046  0.00  0.00    +0.130 A 
ATOM     18  C   LIG    1        4.020  -0.302  -1.239  0.00  0.00    -0.020 A 
ATOM     19  C   LIG    1        2.958   0.581  -1.221  0.00  0.00    +0.070 A 
ATOM     20  C   LIG    1        2.439   1.016  -0.016  0.00  0.00    -0.110 A 
ATOM     21  C   LIG    1        2.985   0.573   1.175  0.00  0.00    +0.060 A 
ATOM     22  C   LIG    1        4.043  -0.315   1.163  0.00  0.00    -0.080 A 
BRANCH  17  24
ATOM     23  C   LIG    1        6.122  -2.042   1.206  0.00  0.00    +0.250 C 
ATOM     24  O   LIG    1        5.611  -1.621  -0.060  0.00  0.00    -0.320 OA
ENDBRANCH  17  24
ENDBRANCH  16  20
ENDBRANCH  12  16
ENDBRANCH   1  13
BRANCH   1  25
ATOM     25  C   LIG    1       -2.830   0.756  -1.417  0.00  0.00    +0.060 C 
BRANCH  25  26
ATOM     26  C   LIG    1       -1.788  -0.204  -1.995  0.00  0.00    +0.110 C 
BRANCH  26  27
ATOM     27  S   LIG    1       -2.239  -0.632  -3.699  0.00  0.00    -0.270 S 
ATOM     28  C   LIG    1       -0.908  -1.758  -4.203  0.00  0.00    +0.140 C 
ENDBRANCH  26  27
ENDBRANCH  25  26
ENDBRANCH   1  25
TORSDOF 8
