REMARK  Name = ZINCrH000004rzSS.0
REMARK                            x       y       z     vdW  Elec       q    Type
REMARK                         _______ _______ _______ _____ _____    ______ ____
ROOT
ATOM      1  C   LIG    1        1.266   1.719   0.183  0.00  0.00    +0.280 C 
ENDROOT
BRANCH   1   2
ATOM      2  N   LIG    1       -0.011   1.005   0.106  0.00  0.00    -0.720 N 
ATOM      3  H   LIG    1       -0.024   0.057  -0.099  0.00  0.00    +0.400 HD
ATOM      4  C   LIG    1       -1.167   1.665   0.315  0.00  0.00    +0.550 C 
ATOM      5  O   LIG    1       -1.150   2.853   0.573  0.00  0.00    -0.490 OA
BRANCH   4   6
ATOM      6  C   LIG    1       -2.455   0.946   0.231  0.00  0.00    -0.080 A 
ATOM      7  C   LIG    1       -2.478  -0.417  -0.070  0.00  0.00    +0.090 A 
ATOM      8  C   LIG    1       -3.684  -1.084  -0.141  0.00  0.00    +0.110 A 
ATOM      9  C   LIG    1       -4.869  -0.403   0.075  0.00  0.00    -0.010 A 
ATOM     10  C   LIG    1       -4.855   0.949   0.368  0.00  0.00    +0.110 A 
ATOM     11  C   LIG    1       -3.655   1.628   0.448  0.00  0.00    +0.010 A 
ATOM     12 CL   LIG    1       -3.638   3.325   0.815  0.00  0.00    +0.010 Cl
BRANCH   9  13
ATOM     13  N   LIG    1       -6.159  -1.125  -0.010  0.00  0.00    +0.020 N 
ATOM     14  O   LIG    1       -6.175  -2.315  -0.268  0.00  0.00    -0.140 OA
ATOM     15  O   LIG    1       -7.204  -0.528   0.178  0.00  0.00    -0.140 OA
ENDBRANCH   9  13
ENDBRANCH   4   6
ENDBRANCH   1   2
BRANCH   1  16
ATOM     16  C   LIG    1        2.413   0.746  -0.099  0.00  0.00    +0.040 C 
BRANCH  16  17
ATOM     17  C   LIG    1        3.733   1.517  -0.151  0.00  0.00    +0.200 C 
BRANCH  17  22
ATOM     18  C   LIG    1        2.532   3.785  -4.493  0.00  0.00    +0.180 C 
ATOM     19  C   LIG    1        3.153   3.525  -3.145  0.00  0.00    +0.020 A 
ATOM     20  C   LIG    1        3.986   4.354  -2.490  0.00  0.00    -0.060 A 
ATOM     21  C   LIG    1        4.319   3.720  -1.270  0.00  0.00    +0.020 A 
ATOM     22  C   LIG    1        3.676   2.539  -1.257  0.00  0.00    -0.090 A 
ATOM     23  O   LIG    1        2.969   2.428  -2.393  0.00  0.00    -0.160 OA
ENDBRANCH  17  22
BRANCH  17  24
ATOM     24  C   LIG    1        4.882   0.542  -0.418  0.00  0.00    +0.480 C 
ATOM     25  F   LIG    1        4.912  -0.430   0.588  0.00  0.00    -0.170 F 
ATOM     26  F   LIG    1        6.094   1.240  -0.427  0.00  0.00    -0.170 F 
ATOM     27  F   LIG    1        4.691  -0.077  -1.658  0.00  0.00    -0.170 F 
ENDBRANCH  17  24
BRANCH  17  28
ATOM     28  O   LIG    1        3.949   2.177   1.097  0.00  0.00    -0.520 OA
ATOM     29  H   LIG    1        3.258   2.812   1.331  0.00  0.00    +0.400 HD
ENDBRANCH  17  28
ENDBRANCH  16  17
ENDBRANCH   1  16
TORSDOF 8
