REMARK  Name = ZINCpk00000KfLEU.0
REMARK                            x       y       z     vdW  Elec       q    Type
REMARK                         _______ _______ _______ _____ _____    ______ ____
ROOT
ATOM      1  O   LIG    1       -0.001  -0.014  -0.029  0.00  0.00    -0.520 OA
ATOM      2  C   LIG    1       -0.017   1.199  -0.008  0.00  0.00    +0.530 C 
ATOM      3  N   LIG    1       -1.193   1.857   0.006  0.00  0.00    -0.610 N 
ATOM      4  C   LIG    1       -1.229   3.325   0.038  0.00  0.00    +0.270 C 
ATOM      5  C   LIG    1       -2.104   3.818  -1.125  0.00  0.00    +0.040 C 
ATOM      6  C   LIG    1       -3.480   3.154  -1.038  0.00  0.00    +0.030 C 
ATOM      7  C   LIG    1       -3.325   1.637  -1.162  0.00  0.00    +0.260 C 
ATOM      8  C   LIG    1       -2.464   1.119  -0.005  0.00  0.00    +0.300 C 
ENDROOT
BRANCH   2   9
ATOM      9  C   LIG    1        1.278   1.970  -0.003  0.00  0.00    +0.010 C 
ATOM     10  C   LIG    1        1.463   2.748  -1.325  0.00  0.00    +0.100 C 
ATOM     11  C   LIG    1        2.947   2.654  -1.607  0.00  0.00    +0.520 C 
ATOM     12  N   LIG    1        3.497   1.679  -0.863  0.00  0.00    -0.560 N 
ATOM     13  O   LIG    1        3.551   3.356  -2.390  0.00  0.00    -0.500 OA
ATOM     14  C   LIG    1        2.491   1.013  -0.027  0.00  0.00    +0.310 C 
BRANCH  12  15
ATOM     15  C   LIG    1        4.855   1.341  -0.883  0.00  0.00    +0.160 A 
ATOM     16  C   LIG    1        5.708   1.944  -1.798  0.00  0.00    -0.010 A 
ATOM     17  C   LIG    1        7.049   1.612  -1.812  0.00  0.00    +0.040 A 
ATOM     18  C   LIG    1        7.539   0.673  -0.924  0.00  0.00    -0.020 A 
ATOM     19  C   LIG    1        6.691   0.067  -0.015  0.00  0.00    +0.040 A 
ATOM     20  C   LIG    1        5.351   0.398   0.007  0.00  0.00    -0.030 A 
ENDBRANCH  12  15
ENDBRANCH   2   9
BRANCH   7  21
ATOM     21  N   LIG    1       -4.645   1.004  -1.110  0.00  0.00    -0.380 N 
ATOM     22  C   LIG    1       -5.702   1.404  -0.384  0.00  0.00    +0.480 A 
ATOM     23  N   LIG    1       -6.689   0.577  -0.614  0.00  0.00    -0.540 NA
ATOM     24  C   LIG    1       -6.302  -0.360  -1.478  0.00  0.00    +0.420 A 
ATOM     25  N   LIG    1       -5.059  -0.138  -1.815  0.00  0.00    -0.320 NA
ENDBRANCH   7  21
TORSDOF 3
