REMARK  Name = ZINCvU00000003JM.0
REMARK                            x       y       z     vdW  Elec       q    Type
REMARK                         _______ _______ _______ _____ _____    ______ ____
ROOT
ATOM      1  C   LIG    1        4.203  -4.572   4.946  0.00  0.00    -0.030 C 
ATOM      2  C   LIG    1        4.473  -4.904   3.477  0.00  0.00    +0.040 C 
ATOM      3  C   LIG    1        3.229  -4.571   2.646  0.00  0.00    +0.280 C 
ATOM      4  N   LIG    1        2.858  -3.171   2.890  0.00  0.00    -0.610 N 
ATOM      5  C   LIG    1        2.669  -2.721   4.276  0.00  0.00    +0.280 C 
ATOM      6  C   LIG    1        2.700  -2.313   1.863  0.00  0.00    +0.520 C 
ATOM      7  O   LIG    1        2.864  -2.695   0.723  0.00  0.00    -0.530 OA
ATOM      8  C   LIG    1        3.913  -3.076   5.088  0.00  0.00    +0.040 C 
ENDROOT
BRANCH   1   9
ATOM      9  C   LIG    1        5.412  -4.930   5.771  0.00  0.00    +0.400 C 
ATOM     10  O   LIG    1        6.519  -4.876   5.280  0.00  0.00    -0.440 OA
BRANCH   9  15
ATOM     11  C   LIG    1        4.775  -6.548  11.251  0.00  0.00    +0.100 C 
ATOM     12  C   LIG    1        4.942  -6.124   9.815  0.00  0.00    -0.050 A 
ATOM     13  C   LIG    1        3.846  -5.677   9.097  0.00  0.00    -0.010 A 
ATOM     14  C   LIG    1        3.991  -5.287   7.782  0.00  0.00    +0.070 A 
ATOM     15  C   LIG    1        5.249  -5.344   7.174  0.00  0.00    -0.180 A 
ATOM     16  C   LIG    1        6.350  -5.803   7.904  0.00  0.00    -0.020 A 
ATOM     17  C   LIG    1        7.709  -5.874   7.257  0.00  0.00    +0.110 C 
ATOM     18  C   LIG    1        6.191  -6.183   9.220  0.00  0.00    -0.010 A 
ENDBRANCH   9  15
ENDBRANCH   1   9
BRANCH   6  19
ATOM     19  C   LIG    1        2.319  -0.879   2.129  0.00  0.00    +0.060 C 
BRANCH  19  20
ATOM     20  C   LIG    1        2.205  -0.127   0.802  0.00  0.00    +0.210 C 
BRANCH  20  21
ATOM     21  C   LIG    1        1.824   1.307   1.069  0.00  0.00    +0.200 A 
ATOM     22  N   LIG    1        2.659   2.288   1.264  0.00  0.00    -0.470 NA
ATOM     23  C   LIG    1        1.964   3.417   1.470  0.00  0.00    +0.170 A 
ATOM     24  C   LIG    1        0.645   3.103   1.397  0.00  0.00    -0.000 A 
ATOM     25  O   LIG    1        0.572   1.778   1.145  0.00  0.00    -0.190 OA
BRANCH  24  26
ATOM     26  C   LIG    1       -0.492   4.035   1.556  0.00  0.00    -0.020 A 
ATOM     27  C   LIG    1       -1.802   3.567   1.441  0.00  0.00    +0.030 A 
ATOM     28  C   LIG    1       -2.859   4.440   1.595  0.00  0.00    +0.010 A 
ATOM     29  C   LIG    1       -2.622   5.779   1.852  0.00  0.00    +0.020 A 
ATOM     30  C   LIG    1       -1.325   6.250   1.961  0.00  0.00    +0.020 A 
ATOM     31  C   LIG    1       -0.260   5.386   1.815  0.00  0.00    +0.030 A 
ENDBRANCH  24  26
ENDBRANCH  20  21
ENDBRANCH  19  20
ENDBRANCH   6  19
TORSDOF 6
