REMARK  Name = ZINCpk00000e9y3x.0
REMARK                            x       y       z     vdW  Elec       q    Type
REMARK                         _______ _______ _______ _____ _____    ______ ____
ROOT
ATOM      1  N   LIG    1       -5.475   3.969  -0.692  0.00  0.00    -0.530 NA
ATOM      2  C   LIG    1       -5.654   2.515  -0.790  0.00  0.00    +0.170 C 
ATOM      3  C   LIG    1       -4.880   1.830   0.341  0.00  0.00    +0.300 C 
ATOM      4  N   LIG    1       -3.483   2.288   0.295  0.00  0.00    -0.600 N 
ATOM      5  C   LIG    1       -3.227   3.736   0.259  0.00  0.00    +0.280 C 
ATOM      6  C   LIG    1       -2.465   1.405   0.292  0.00  0.00    +0.590 C 
ATOM      7  O   LIG    1       -2.695   0.211   0.324  0.00  0.00    -0.550 OA
ATOM      8  C   LIG    1       -4.067   4.346  -0.875  0.00  0.00    +0.170 C 
ENDROOT
BRANCH   6   9
ATOM      9  C   LIG    1       -1.079   1.884   0.251  0.00  0.00    -0.050 A 
ATOM     10  C   LIG    1       -0.627   3.110   0.692  0.00  0.00    +0.010 A 
ATOM     11  C   LIG    1        0.753   3.143   0.469  0.00  0.00    -0.050 A 
ATOM     12  C   LIG    1        1.111   1.966  -0.098  0.00  0.00    +0.190 A 
ATOM     13  N   LIG    1        0.006   1.193  -0.238  0.00  0.00    -0.400 N 
BRANCH  13  14
ATOM     14  C   LIG    1       -0.026  -0.155  -0.811  0.00  0.00    +0.360 C 
BRANCH  14  15
ATOM     15  C   LIG    1       -0.347  -0.069  -2.281  0.00  0.00    -0.070 A 
ATOM     16  C   LIG    1       -1.662  -0.047  -2.721  0.00  0.00    -0.010 A 
ATOM     17  C   LIG    1       -1.917   0.037  -4.076  0.00  0.00    +0.260 A 
ATOM     18  N   LIG    1       -0.928   0.086  -4.947  0.00  0.00    -0.480 NA
ATOM     19  C   LIG    1        0.334   0.063  -4.565  0.00  0.00    +0.260 A 
ATOM     20  C   LIG    1        0.666  -0.015  -3.226  0.00  0.00    -0.010 A 
ENDBRANCH  14  15
ENDBRANCH  13  14
ENDBRANCH   6   9
BRANCH   1  21
ATOM     21  C   LIG    1       -6.337   4.672  -1.651  0.00  0.00    +0.140 C 
BRANCH  21  22
ATOM     22  C   LIG    1       -5.948   6.151  -1.698  0.00  0.00    +0.200 C 
BRANCH  22  24
ATOM     23  C   LIG    1       -6.377   8.333  -2.836  0.00  0.00    +0.010 C 
ATOM     24  C   LIG    1       -6.846   6.884  -2.697  0.00  0.00    -0.020 C 
ENDBRANCH  22  24
BRANCH  22  25
ATOM     25  O   LIG    1       -6.110   6.728  -0.400  0.00  0.00    -0.550 OA
ATOM     26  H   LIG    1       -7.013   6.681  -0.059  0.00  0.00    +0.380 HD
ENDBRANCH  22  25
ENDBRANCH  21  22
ENDBRANCH   1  21
TORSDOF 7
