REMARK  Name = ZINCvU0000000JAI.0
REMARK                            x       y       z     vdW  Elec       q    Type
REMARK                         _______ _______ _______ _____ _____    ______ ____
ROOT
ATOM      1  C   LIG    1       -3.562   7.964   5.832  0.00  0.00    +0.290 A 
ATOM      2  N   LIG    1       -4.676   8.186   5.198  0.00  0.00    -0.480 NA
ATOM      3  C   LIG    1       -5.261   9.311   5.684  0.00  0.00    +0.050 A 
ATOM      4  C   LIG    1       -6.440   9.994   5.376  0.00  0.00    +0.070 A 
ATOM      5  C   LIG    1       -6.766  11.132   6.059  0.00  0.00    +0.000 A 
ATOM      6  C   LIG    1       -5.937  11.619   7.059  0.00  0.00    +0.030 A 
ATOM      7  C   LIG    1       -4.768  10.961   7.380  0.00  0.00    +0.010 A 
ATOM      8  C   LIG    1       -4.421   9.804   6.696  0.00  0.00    +0.060 A 
ATOM      9  N   LIG    1       -3.357   8.927   6.770  0.00  0.00    -0.480 N 
ENDROOT
BRANCH   1  12
ATOM     10  N   LIG    1       -2.171   5.305   3.755  0.00  0.00    -0.560 N 
ATOM     11  C   LIG    1       -2.240   6.735   4.079  0.00  0.00    +0.300 C 
ATOM     12  C   LIG    1       -2.636   6.804   5.569  0.00  0.00    +0.090 C 
ATOM     13  C   LIG    1       -3.368   5.456   5.765  0.00  0.00    +0.110 C 
ATOM     14  C   LIG    1       -2.798   4.564   4.685  0.00  0.00    +0.520 C 
ATOM     15  O   LIG    1       -2.893   3.355   4.660  0.00  0.00    -0.500 OA
BRANCH  10  20
ATOM     16  C   LIG    1       -0.773   2.892   1.354  0.00  0.00    +0.160 A 
ATOM     17  C   LIG    1       -0.258   3.750   0.393  0.00  0.00    -0.100 A 
ATOM     18  C   LIG    1       -0.379   5.118   0.549  0.00  0.00    +0.080 A 
ATOM     19  C   LIG    1       -1.013   5.635   1.662  0.00  0.00    -0.060 A 
ATOM     20  C   LIG    1       -1.530   4.781   2.628  0.00  0.00    +0.200 A 
ATOM     21  C   LIG    1       -1.415   3.407   2.470  0.00  0.00    -0.030 A 
BRANCH  16  23
ATOM     22  C   LIG    1        0.015   1.086   0.023  0.00  0.00    +0.250 C 
ATOM     23  O   LIG    1       -0.653   1.547   1.200  0.00  0.00    -0.310 OA
ENDBRANCH  16  23
ENDBRANCH  10  20
ENDBRANCH   1  12
BRANCH   9  24
ATOM     24  C   LIG    1       -2.217   9.019   7.686  0.00  0.00    +0.370 C 
BRANCH  24  25
ATOM     25  C   LIG    1       -1.121   9.830   7.044  0.00  0.00    -0.120 A 
ATOM     26  C   LIG    1       -0.154   9.204   6.281  0.00  0.00    +0.040 A 
ATOM     27  C   LIG    1        0.849   9.948   5.689  0.00  0.00    +0.030 A 
ATOM     28  C   LIG    1        0.890  11.319   5.868  0.00  0.00    -0.020 A 
ATOM     29  C   LIG    1       -0.075  11.945   6.637  0.00  0.00    +0.030 A 
ATOM     30 CL   LIG    1        2.153  12.254   5.130  0.00  0.00    -0.060 Cl
ATOM     31  C   LIG    1       -1.080  11.200   7.225  0.00  0.00    +0.050 A 
ENDBRANCH  24  25
ENDBRANCH   9  24
TORSDOF 5
