REMARK  Name = ZINCpe00000gN0fU.1
REMARK                            x       y       z     vdW  Elec       q    Type
REMARK                         _______ _______ _______ _____ _____    ______ ____
ROOT
ATOM      1  N   LIG    1       -2.733   7.285   0.067  0.00  0.00    -0.620 N 
ATOM      2  H   LIG    1       -2.299   8.152   0.068  0.00  0.00    +0.420 HD
ATOM      3  C   LIG    1       -1.992   6.159   0.054  0.00  0.00    +0.570 C 
ATOM      4  O   LIG    1       -2.536   5.072   0.053  0.00  0.00    -0.490 OA
ENDROOT
BRANCH   3   5
ATOM      5  C   LIG    1       -0.519   6.247   0.040  0.00  0.00    -0.130 A 
ATOM      6  C   LIG    1        0.257   5.080   0.026  0.00  0.00    +0.100 A 
ATOM      7  N   LIG    1       -0.036   3.736   0.017  0.00  0.00    -0.570 N 
ATOM      8  H   LIG    1       -0.922   3.341   0.019  0.00  0.00    +0.440 HD
ATOM      9  C   LIG    1        1.147   3.062   0.008  0.00  0.00    +0.290 A 
ATOM     10  N   LIG    1        2.139   3.903   0.002  0.00  0.00    -0.480 NA
ATOM     11  C   LIG    1        1.658   5.174   0.013  0.00  0.00    +0.040 A 
ATOM     12  C   LIG    1        2.265   6.432   0.014  0.00  0.00    +0.120 A 
ATOM     13  C   LIG    1        1.491   7.573   0.028  0.00  0.00    +0.000 A 
ATOM     14  C   LIG    1        0.111   7.491   0.041  0.00  0.00    +0.080 A 
BRANCH   9  15
ATOM     15  C   LIG    1        1.286   1.562  -0.002  0.00  0.00    +0.330 C 
BRANCH  15  16
ATOM     16  O   LIG    1       -0.011   0.963   0.007  0.00  0.00    -0.570 OA
ATOM     17  H   LIG    1        0.002  -0.004   0.002  0.00  0.00    +0.400 HD
ENDBRANCH  15  16
ENDBRANCH   9  15
ENDBRANCH   3   5
BRANCH   1  20
ATOM     18  C   LIG    1       -6.211   7.808   0.102  0.00  0.00    +0.400 A 
ATOM     19  N   LIG    1       -4.966   8.242   0.099  0.00  0.00    -0.560 NA
ATOM     20  C   LIG    1       -4.128   7.202   0.080  0.00  0.00    +0.450 A 
ATOM     21  N   LIG    1       -4.825   6.090   0.080  0.00  0.00    -0.290 NA
ATOM     22  N   LIG    1       -6.181   6.457   0.095  0.00  0.00    -0.480 N 
ATOM     23  H   LIG    1       -6.944   5.858   0.099  0.00  0.00    +0.440 HD
BRANCH  18  27
ATOM     24  C   LIG    1       -9.251  11.771   0.152  0.00  0.00    +0.380 C 
ATOM     25  N   LIG    1       -8.755  10.392   0.140  0.00  0.00    -0.360 N 
ATOM     26  C   LIG    1       -7.462  10.018   0.131  0.00  0.00    +0.320 A 
ATOM     27  C   LIG    1       -7.426   8.652   0.118  0.00  0.00    -0.200 A 
ATOM     28  C   LIG    1       -8.760   8.194   0.129  0.00  0.00    +0.270 A 
ATOM     29  N   LIG    1       -9.546   9.237   0.142  0.00  0.00    -0.290 NA
ENDBRANCH  18  27
ENDBRANCH   1  20
TORSDOF 5
