REMARK  Name = ZINCpe00000gN0fU.0
REMARK                            x       y       z     vdW  Elec       q    Type
REMARK                         _______ _______ _______ _____ _____    ______ ____
ROOT
ATOM      1  N   LIG    1        4.338   7.763  -0.001  0.00  0.00    -0.630 N 
ATOM      2  H   LIG    1        3.791   8.563   0.009  0.00  0.00    +0.420 HD
ATOM      3  C   LIG    1        3.755   6.548  -0.001  0.00  0.00    +0.550 C 
ATOM      4  O   LIG    1        4.441   5.544  -0.012  0.00  0.00    -0.450 OA
ENDROOT
BRANCH   3   5
ATOM      5  C   LIG    1        2.286   6.436   0.013  0.00  0.00    -0.080 A 
ATOM      6  C   LIG    1        1.669   5.167   0.014  0.00  0.00    +0.110 A 
ATOM      7  N   LIG    1        2.141   3.905   0.002  0.00  0.00    -0.470 NA
ATOM      8  C   LIG    1        1.147   3.062   0.008  0.00  0.00    +0.290 A 
ATOM      9  N   LIG    1       -0.033   3.735   0.017  0.00  0.00    -0.580 N 
ATOM     10  H   LIG    1       -0.920   3.342   0.019  0.00  0.00    +0.430 HD
ATOM     11  C   LIG    1        0.267   5.084   0.027  0.00  0.00    +0.030 A 
ATOM     12  C   LIG    1       -0.498   6.241   0.041  0.00  0.00    +0.060 A 
ATOM     13  C   LIG    1        0.116   7.479   0.041  0.00  0.00    +0.030 A 
ATOM     14  C   LIG    1        1.494   7.582   0.027  0.00  0.00    +0.060 A 
BRANCH   8  15
ATOM     15  C   LIG    1        1.286   1.562  -0.002  0.00  0.00    +0.330 C 
BRANCH  15  16
ATOM     16  O   LIG    1       -0.011   0.963   0.007  0.00  0.00    -0.580 OA
ATOM     17  H   LIG    1        0.002  -0.004   0.002  0.00  0.00    +0.400 HD
ENDBRANCH  15  16
ENDBRANCH   8  15
ENDBRANCH   3   5
BRANCH   1  20
ATOM     18  C   LIG    1        7.714   8.750  -0.029  0.00  0.00    +0.390 A 
ATOM     19  N   LIG    1        6.422   9.011  -0.021  0.00  0.00    -0.560 NA
ATOM     20  C   LIG    1        5.732   7.869  -0.014  0.00  0.00    +0.450 A 
ATOM     21  N   LIG    1        6.572   6.861  -0.028  0.00  0.00    -0.290 NA
ATOM     22  N   LIG    1        7.866   7.407  -0.038  0.00  0.00    -0.480 N 
ATOM     23  H   LIG    1        8.703   6.917  -0.048  0.00  0.00    +0.440 HD
BRANCH  18  27
ATOM     24  C   LIG    1       10.192  13.086  -0.032  0.00  0.00    +0.370 C 
ATOM     25  N   LIG    1        9.887  11.653  -0.036  0.00  0.00    -0.370 N 
ATOM     26  C   LIG    1        8.655  11.109  -0.032  0.00  0.00    +0.320 A 
ATOM     27  C   LIG    1        8.804   9.750  -0.035  0.00  0.00    -0.200 A 
ATOM     28  C   LIG    1       10.188   9.475  -0.051  0.00  0.00    +0.270 A 
ATOM     29  N   LIG    1       10.826  10.615  -0.051  0.00  0.00    -0.290 NA
ENDBRANCH  18  27
ENDBRANCH   1  20
TORSDOF 5
