REMARK  Name = ZINCtV000002MmCo.0
REMARK                            x       y       z     vdW  Elec       q    Type
REMARK                         _______ _______ _______ _____ _____    ______ ____
ROOT
ATOM      1  O   LIG    1        1.930   5.764  -0.250  0.00  0.00    -0.490 OA
ATOM      2  C   LIG    1        2.847   5.008  -0.489  0.00  0.00    +0.540 C 
ATOM      3  N   LIG    1        2.657   3.675  -0.419  0.00  0.00    -0.660 N 
ATOM      4  H   LIG    1        3.405   3.071  -0.551  0.00  0.00    +0.420 HD
ENDROOT
BRANCH   3   5
ATOM      5  C   LIG    1        1.380   3.162  -0.157  0.00  0.00    +0.200 A 
ATOM      6  C   LIG    1        0.461   3.917   0.555  0.00  0.00    +0.020 A 
ATOM      7  C   LIG    1       -0.799   3.409   0.813  0.00  0.00    +0.060 A 
ATOM      8  C   LIG    1       -1.149   2.151   0.358  0.00  0.00    -0.010 A 
ATOM      9  C   LIG    1       -0.237   1.388  -0.348  0.00  0.00    +0.100 A 
ATOM     10  C   LIG    1        1.030   1.890  -0.611  0.00  0.00    -0.180 A 
BRANCH  10  11
ATOM     11  S   LIG    1        2.192   0.924  -1.516  0.00  0.00    +0.010 S 
BRANCH  11  12
ATOM     12  C   LIG    1        2.180   1.678  -3.109  0.00  0.00    -0.100 A 
ATOM     13  C   LIG    1        1.274   2.693  -3.392  0.00  0.00    +0.020 A 
ATOM     14  C   LIG    1        1.271   3.286  -4.639  0.00  0.00    +0.050 A 
ATOM     15  C   LIG    1        2.162   2.863  -5.610  0.00  0.00    -0.040 A 
ATOM     16  C   LIG    1        3.062   1.849  -5.333  0.00  0.00    +0.050 A 
ATOM     17 CL   LIG    1        2.150   3.606  -7.179  0.00  0.00    -0.060 Cl
ATOM     18  C   LIG    1        3.073   1.256  -4.086  0.00  0.00    +0.050 A 
ENDBRANCH  11  12
ENDBRANCH  10  11
ENDBRANCH   3   5
BRANCH   2  19
ATOM     19  C   LIG    1        4.199   5.557  -0.864  0.00  0.00    +0.090 C 
BRANCH  19  20
ATOM     20  S   LIG    1        4.134   7.370  -0.871  0.00  0.00    +0.120 S 
BRANCH  20  21
ATOM     21  C   LIG    1        5.775   7.824  -1.324  0.00  0.00    +0.200 A 
ATOM     22  N   LIG    1        6.756   6.987  -1.573  0.00  0.00    -0.310 NA
ATOM     23  N   LIG    1        7.884   7.759  -1.895  0.00  0.00    -0.470 N 
ATOM     24  H   LIG    1        8.765   7.430  -2.130  0.00  0.00    +0.440 HD
ATOM     25  C   LIG    1        7.497   9.054  -1.808  0.00  0.00    +0.380 A 
ATOM     26  N   LIG    1        6.223   9.074  -1.462  0.00  0.00    -0.500 NA
BRANCH  25  27
ATOM     27  C   LIG    1        8.347  10.230  -2.054  0.00  0.00    -0.160 A 
ATOM     28  C   LIG    1        7.943  11.516  -1.968  0.00  0.00    +0.100 A 
ATOM     29  C   LIG    1        8.922  12.446  -2.241  0.00  0.00    +0.010 A 
ATOM     30  C   LIG    1       10.117  11.936  -2.558  0.00  0.00    +0.000 A 
ATOM     31  S   LIG    1       10.044  10.179  -2.514  0.00  0.00    +0.140 S 
ENDBRANCH  25  27
ENDBRANCH  20  21
ENDBRANCH  19  20
ENDBRANCH   2  19
TORSDOF 7
