REMARK  Name = ZINCtV000002MmCo.1
REMARK                            x       y       z     vdW  Elec       q    Type
REMARK                         _______ _______ _______ _____ _____    ______ ____
ROOT
ATOM      1  O   LIG    1       -2.164   1.214  -1.263  0.00  0.00    -0.500 OA
ATOM      2  C   LIG    1       -0.965   1.037  -1.303  0.00  0.00    +0.540 C 
ATOM      3  N   LIG    1       -0.287   1.275  -2.443  0.00  0.00    -0.660 N 
ATOM      4  H   LIG    1        0.680   1.196  -2.458  0.00  0.00    +0.420 HD
ENDROOT
BRANCH   3   5
ATOM      5  C   LIG    1       -0.978   1.636  -3.607  0.00  0.00    +0.160 A 
ATOM      6  C   LIG    1       -2.119   2.419  -3.524  0.00  0.00    +0.050 A 
ATOM      7  C   LIG    1       -2.796   2.780  -4.675  0.00  0.00    +0.030 A 
ATOM      8  C   LIG    1       -2.346   2.351  -5.910  0.00  0.00    +0.020 A 
ATOM      9  C   LIG    1       -1.212   1.565  -6.003  0.00  0.00    +0.020 A 
ATOM     10  C   LIG    1       -0.523   1.204  -4.854  0.00  0.00    -0.120 A 
BRANCH  10  11
ATOM     11  S   LIG    1        0.921   0.202  -4.969  0.00  0.00    -0.000 S 
BRANCH  11  12
ATOM     12  C   LIG    1        1.163   0.053  -6.708  0.00  0.00    -0.140 A 
ATOM     13  C   LIG    1        0.665  -1.052  -7.388  0.00  0.00    +0.090 A 
ATOM     14  C   LIG    1        0.851  -1.163  -8.752  0.00  0.00    +0.020 A 
ATOM     15  C   LIG    1        1.544  -0.181  -9.439  0.00  0.00    -0.000 A 
ATOM     16  C   LIG    1        2.046   0.917  -8.763  0.00  0.00    +0.020 A 
ATOM     17 CL   LIG    1        1.782  -0.328 -11.152  0.00  0.00    -0.060 Cl
ATOM     18  C   LIG    1        1.858   1.037  -7.401  0.00  0.00    +0.090 A 
ENDBRANCH  11  12
ENDBRANCH  10  11
ENDBRANCH   3   5
BRANCH   2  19
ATOM     19  C   LIG    1       -0.234   0.551  -0.079  0.00  0.00    +0.130 C 
BRANCH  19  20
ATOM     20  S   LIG    1       -1.411   0.326   1.278  0.00  0.00    +0.100 S 
BRANCH  20  21
ATOM     21  C   LIG    1       -0.318  -0.229   2.543  0.00  0.00    +0.250 A 
ATOM     22  N   LIG    1        0.980  -0.403   2.421  0.00  0.00    -0.530 NA
ATOM     23  C   LIG    1        1.490  -0.831   3.586  0.00  0.00    +0.310 A 
ATOM     24  N   LIG    1        0.513  -0.941   4.461  0.00  0.00    -0.280 NA
ATOM     25  N   LIG    1       -0.667  -0.556   3.807  0.00  0.00    -0.460 N 
ATOM     26  H   LIG    1       -1.559  -0.530   4.187  0.00  0.00    +0.450 HD
BRANCH  23  27
ATOM     27  C   LIG    1        2.914  -1.134   3.843  0.00  0.00    -0.130 A 
ATOM     28  C   LIG    1        3.418  -1.564   5.016  0.00  0.00    +0.060 A 
ATOM     29  C   LIG    1        4.781  -1.784   5.012  0.00  0.00    +0.010 A 
ATOM     30  C   LIG    1        5.391  -1.528   3.852  0.00  0.00    -0.040 A 
ATOM     31  S   LIG    1        4.212  -0.983   2.667  0.00  0.00    +0.180 S 
ENDBRANCH  23  27
ENDBRANCH  20  21
ENDBRANCH  19  20
ENDBRANCH   2  19
TORSDOF 7
