REMARK  Name = ZINCvU0000000C7K.0
REMARK                            x       y       z     vdW  Elec       q    Type
REMARK                         _______ _______ _______ _____ _____    ______ ____
ROOT
ATOM      1  C   LIG    1        3.292   3.929   0.997  0.00  0.00    +0.190 A 
ATOM      2  N   LIG    1        4.221   4.796   0.660  0.00  0.00    -0.480 NA
ATOM      3  C   LIG    1        3.985   5.251  -0.577  0.00  0.00    +0.200 A 
ATOM      4  C   LIG    1        2.863   4.644  -1.047  0.00  0.00    +0.030 A 
ATOM      5  N   LIG    1        2.421   3.796  -0.044  0.00  0.00    -0.400 N 
ENDROOT
BRANCH   5   6
ATOM      6  C   LIG    1        1.292   2.967  -0.088  0.00  0.00    +0.120 A 
ATOM      7  C   LIG    1        1.444   1.587  -0.114  0.00  0.00    +0.040 A 
ATOM      8  C   LIG    1        0.330   0.771  -0.158  0.00  0.00    +0.060 A 
ATOM      9  C   LIG    1       -0.935   1.327  -0.182  0.00  0.00    +0.060 A 
ATOM     10  C   LIG    1       -1.091   2.702  -0.151  0.00  0.00    -0.020 A 
ATOM     11 CL   LIG    1       -2.682   3.397  -0.175  0.00  0.00    -0.050 Cl
ATOM     12  C   LIG    1        0.021   3.523  -0.107  0.00  0.00    +0.050 A 
ENDBRANCH   5   6
BRANCH   4  13
ATOM     13  C   LIG    1        2.238   4.849  -2.370  0.00  0.00    -0.020 A 
ATOM     14  C   LIG    1        1.348   3.901  -2.879  0.00  0.00    +0.000 A 
ATOM     15  C   LIG    1        0.762   4.101  -4.112  0.00  0.00    +0.010 A 
ATOM     16  C   LIG    1        1.064   5.232  -4.849  0.00  0.00    +0.020 A 
ATOM     17  C   LIG    1        1.950   6.173  -4.354  0.00  0.00    +0.020 A 
ATOM     18  C   LIG    1        2.538   5.988  -3.119  0.00  0.00    +0.030 A 
ENDBRANCH   4  13
BRANCH   1  19
ATOM     19  S   LIG    1        3.191   3.078   2.537  0.00  0.00    +0.060 S 
BRANCH  19  20
ATOM     20  C   LIG    1        4.648   3.759   3.368  0.00  0.00    +0.120 C 
BRANCH  20  21
ATOM     21  C   LIG    1        4.768   3.156   4.744  0.00  0.00    +0.390 C 
ATOM     22  O   LIG    1        3.952   2.350   5.124  0.00  0.00    -0.400 OA
BRANCH  21  23
ATOM     23  C   LIG    1        5.905   3.560   5.647  0.00  0.00    +0.230 C 
BRANCH  23  28
ATOM     24  C   LIG    1        8.843   0.080   7.617  0.00  0.00    +0.160 C 
ATOM     25  C   LIG    1        7.552   0.840   7.457  0.00  0.00    +0.060 A 
ATOM     26  C   LIG    1        6.456   0.563   8.169  0.00  0.00    -0.080 A 
ATOM     27  S   LIG    1        5.190   1.684   7.676  0.00  0.00    +0.200 S 
ATOM     28  C   LIG    1        6.258   2.410   6.555  0.00  0.00    +0.020 A 
ATOM     29  N   LIG    1        7.412   1.834   6.603  0.00  0.00    -0.440 NA
ENDBRANCH  23  28
BRANCH  23  30
ATOM     30  C   LIG    1        5.500   4.719   6.459  0.00  0.00    +0.200 C 
ATOM     31  N   LIG    1        5.187   5.614   7.085  0.00  0.00    -0.370 NA
ENDBRANCH  23  30
ENDBRANCH  21  23
ENDBRANCH  20  21
ENDBRANCH  19  20
ENDBRANCH   1  19
TORSDOF 8
