REMARK  Name = ZINCrH000004jGKR.0
REMARK                            x       y       z     vdW  Elec       q    Type
REMARK                         _______ _______ _______ _____ _____    ______ ____
ROOT
ATOM      1  C   LIG    1       -0.978  -1.661   4.170  0.00  0.00    -0.700 A 
ATOM      2  C   LIG    1       -1.612  -2.794   3.694  0.00  0.00    +0.210 A 
ATOM      3  C   LIG    1       -1.073  -3.494   2.633  0.00  0.00    -0.030 A 
ATOM      4  C   LIG    1        0.107  -3.060   2.043  0.00  0.00    +0.220 A 
ATOM      5  C   LIG    1        0.745  -1.924   2.528  0.00  0.00    -0.070 A 
ATOM      6  C   LIG    1        0.198  -1.225   3.586  0.00  0.00    +0.230 A 
ENDROOT
BRANCH   4   7
ATOM      7  N   LIG    1        0.655  -3.766   0.970  0.00  0.00    -0.470 N 
ATOM      8  C   LIG    1        1.954  -4.355   1.333  0.00  0.00    +0.250 C 
ATOM      9  C   LIG    1        1.779  -5.154   2.625  0.00  0.00    +0.080 C 
ATOM     10  C   LIG    1        0.605  -6.091   2.496  0.00  0.00    -0.060 A 
ATOM     11  C   LIG    1        0.492  -7.138   3.399  0.00  0.00    -0.020 A 
ATOM     12  C   LIG    1       -0.571  -8.017   3.318  0.00  0.00    +0.050 A 
ATOM     13  C   LIG    1       -1.527  -7.851   2.333  0.00  0.00    -0.020 A 
ATOM     14  C   LIG    1       -1.414  -6.808   1.433  0.00  0.00    +0.050 A 
ATOM     15 CL   LIG    1       -2.866  -8.951   2.225  0.00  0.00    -0.040 Cl
ATOM     16 CL   LIG    1        1.695  -7.348   4.633  0.00  0.00    -0.040 Cl
ATOM     17  C   LIG    1       -0.346  -5.927   1.512  0.00  0.00    -0.100 A 
ATOM     18  C   LIG    1       -0.263  -4.810   0.504  0.00  0.00    +0.310 C 
ENDBRANCH   4   7
BRANCH   1  19
ATOM     19  S   LIG    1       -1.669  -0.770   5.524  0.00  0.00    +2.700 S 
ATOM     20  O   LIG    1       -3.056  -1.079   5.541  0.00  0.00    -0.940 OA
ATOM     21  O   LIG    1       -1.169   0.557   5.428  0.00  0.00    -0.940 OA
BRANCH  19  23
ATOM     22  C   LIG    1        0.211  -0.865   7.466  0.00  0.00    +0.310 C 
ATOM     23  N   LIG    1       -1.030  -1.411   6.910  0.00  0.00    -1.000 NA
ATOM     24  C   LIG    1       -1.705  -2.525   7.581  0.00  0.00    +0.300 C 
ENDBRANCH  19  23
ENDBRANCH   1  19
BRANCH   5  25
ATOM     25  N   LIG    1        2.006  -1.461   1.907  0.00  0.00    +0.030 N 
ATOM     26  O   LIG    1        2.161  -1.552   0.702  0.00  0.00    -0.120 OA
ATOM     27  O   LIG    1        2.889  -0.988   2.600  0.00  0.00    -0.160 OA
ENDBRANCH   5  25
TORSDOF 4
