REMARK  Name = ZINCvU0000000JrD.0
REMARK                            x       y       z     vdW  Elec       q    Type
REMARK                         _______ _______ _______ _____ _____    ______ ____
ROOT
ATOM      1  C   LIG    1        0.355   0.206   2.933  0.00  0.00    +0.010 C 
ATOM      2  C   LIG    1       -0.649   0.532   4.041  0.00  0.00    +0.100 C 
ATOM      3  C   LIG    1        0.109   0.844   5.315  0.00  0.00    -0.160 C 
ATOM      4  C   LIG    1        1.215   1.823   5.203  0.00  0.00    +0.430 C 
ATOM      5  C   LIG    1        2.026   1.715   3.968  0.00  0.00    -0.180 C 
ATOM      6  C   LIG    1        3.365   1.883   3.982  0.00  0.00    +0.100 C 
ATOM      7  O   LIG    1        1.441   2.656   6.063  0.00  0.00    -0.430 OA
ATOM      8  C   LIG    1       -0.206   0.261   6.490  0.00  0.00    +0.090 C 
ATOM      9  C   LIG    1        1.275   1.406   2.689  0.00  0.00    +0.090 C 
ENDROOT
BRANCH   6  10
ATOM     10  C   LIG    1        4.112   1.945   2.715  0.00  0.00    -0.060 A 
ATOM     11  C   LIG    1        5.361   1.325   2.604  0.00  0.00    +0.100 A 
ATOM     12  C   LIG    1        6.051   1.383   1.412  0.00  0.00    +0.040 A 
ATOM     13  C   LIG    1        5.517   2.062   0.331  0.00  0.00    +0.110 A 
ATOM     14  C   LIG    1        4.285   2.684   0.435  0.00  0.00    -0.040 A 
ATOM     15  C   LIG    1        3.579   2.630   1.618  0.00  0.00    +0.120 A 
BRANCH  14  16
ATOM     16  N   LIG    1        3.723   3.408  -0.727  0.00  0.00    +0.030 N 
ATOM     17  O   LIG    1        4.345   3.457  -1.774  0.00  0.00    -0.150 OA
ATOM     18  O   LIG    1        2.638   3.955  -0.638  0.00  0.00    -0.160 OA
ENDBRANCH  14  16
ENDBRANCH   6  10
BRANCH   8  19
ATOM     19  C   LIG    1        0.662   0.452   7.663  0.00  0.00    -0.060 A 
ATOM     20  C   LIG    1        0.105   0.531   8.944  0.00  0.00    +0.100 A 
ATOM     21  C   LIG    1        0.925   0.710  10.038  0.00  0.00    +0.040 A 
ATOM     22  C   LIG    1        2.296   0.812   9.871  0.00  0.00    +0.110 A 
ATOM     23  C   LIG    1        2.854   0.735   8.606  0.00  0.00    -0.040 A 
ATOM     24  C   LIG    1        2.048   0.550   7.503  0.00  0.00    +0.100 A 
BRANCH  23  25
ATOM     25  N   LIG    1        4.321   0.845   8.439  0.00  0.00    +0.030 N 
ATOM     26  O   LIG    1        4.813   0.777   7.327  0.00  0.00    -0.160 OA
ATOM     27  O   LIG    1        5.034   1.002   9.413  0.00  0.00    -0.150 OA
ENDBRANCH  23  25
ENDBRANCH   8  19
BRANCH   1  29
ATOM     28  C   LIG    1        0.602  -0.464   0.538  0.00  0.00    +0.020 C 
ATOM     29  C   LIG    1       -0.400  -0.124   1.643  0.00  0.00    -0.060 C 
ATOM     30  C   LIG    1       -1.319  -1.323   1.884  0.00  0.00    +0.030 C 
ATOM     31  C   LIG    1       -1.237   1.084   1.219  0.00  0.00    +0.030 C 
ENDBRANCH   1  29
TORSDOF 5
