REMARK  Name = ZINCpe000000XMJM.0
REMARK                            x       y       z     vdW  Elec       q    Type
REMARK                         _______ _______ _______ _____ _____    ______ ____
ROOT
ATOM      1  N   LIG    1       -4.711   1.163  -0.810  0.00  0.00    -0.610 N 
ATOM      2  C   LIG    1       -3.695   1.809   0.029  0.00  0.00    +0.300 C 
ATOM      3  C   LIG    1       -2.482   0.853   0.018  0.00  0.00    +0.000 C 
ATOM      4  C   LIG    1       -2.683   0.104  -1.320  0.00  0.00    +0.080 C 
ATOM      5  C   LIG    1       -4.169   0.205  -1.582  0.00  0.00    +0.520 C 
ATOM      6  O   LIG    1       -4.783  -0.479  -2.374  0.00  0.00    -0.520 OA
ENDROOT
BRANCH   3   7
ATOM      7  C   LIG    1       -1.187   1.624   0.017  0.00  0.00    +0.530 C 
ATOM      8  N   LIG    1       -0.011   0.966   0.007  0.00  0.00    -0.730 N 
ATOM      9  H   LIG    1        0.002  -0.004   0.002  0.00  0.00    +0.400 HD
ATOM     10  O   LIG    1       -1.204   2.837   0.023  0.00  0.00    -0.530 OA
BRANCH   8  11
ATOM     11  C   LIG    1        1.248   1.716  -0.001  0.00  0.00    +0.290 C 
BRANCH  11  12
ATOM     12  C   LIG    1        2.424   0.737  -0.017  0.00  0.00    +0.010 C 
ATOM     13  C   LIG    1        2.493  -0.027   1.317  0.00  0.00    +0.070 C 
ATOM     14  C   LIG    1        3.857  -0.739   1.409  0.00  0.00    -0.310 C 
ATOM     15  S   LIG    1        4.996   0.282   0.406  0.00  0.00    +2.390 S 
ATOM     16  O   LIG    1        5.939   0.916   1.258  0.00  0.00    -0.930 OA
ATOM     17  O   LIG    1        5.446  -0.473  -0.711  0.00  0.00    -0.930 OA
ATOM     18  C   LIG    1        3.759   1.514  -0.153  0.00  0.00    -0.310 C 
ENDBRANCH  11  12
ENDBRANCH   8  11
ENDBRANCH   3   7
BRANCH   1  19
ATOM     19  C   LIG    1       -6.133   1.516  -0.807  0.00  0.00    +0.350 C 
BRANCH  19  24
ATOM     20  C   LIG    1       -7.096   5.653  -4.726  0.00  0.00    +0.090 C 
ATOM     21  C   LIG    1       -6.846   4.574  -3.703  0.00  0.00    -0.080 A 
ATOM     22  C   LIG    1       -6.940   3.243  -4.066  0.00  0.00    +0.000 A 
ATOM     23  C   LIG    1       -6.709   2.254  -3.128  0.00  0.00    +0.040 A 
ATOM     24  C   LIG    1       -6.384   2.595  -1.829  0.00  0.00    -0.120 A 
ATOM     25  C   LIG    1       -6.295   3.926  -1.465  0.00  0.00    +0.020 A 
ATOM     26  C   LIG    1       -6.522   4.915  -2.404  0.00  0.00    +0.000 A 
ENDBRANCH  19  24
ENDBRANCH   1  19
TORSDOF 5
