REMARK  Name = ZINCkj000005jUra.2
REMARK                            x       y       z     vdW  Elec       q    Type
REMARK                         _______ _______ _______ _____ _____    ______ ____
ROOT
ATOM      1  C   LIG    1        1.114  -4.802  -0.462  0.00  0.00    +0.100 C 
ATOM      2  C   LIG    1        2.524  -4.244  -0.252  0.00  0.00    +0.230 C 
ATOM      3  C   LIG    1        3.533  -5.066  -1.070  0.00  0.00    +0.250 C 
ATOM      4  N   LIG    1        4.860  -4.445  -0.970  0.00  0.00    -0.380 N 
ATOM      5  C   LIG    1        4.839  -3.116  -1.592  0.00  0.00    +0.160 C 
ATOM      6  C   LIG    1        3.895  -2.199  -0.806  0.00  0.00    +0.330 C 
ATOM      7  C   LIG    1        4.347  -3.236  -3.036  0.00  0.00    +0.080 C 
ATOM      8  C   LIG    1        5.846  -5.290  -1.656  0.00  0.00    +0.330 C 
ATOM      9  H   LIG    1        5.114  -4.356   0.003  0.00  0.00    +0.430 HD
ATOM     10  N   LIG    1        2.579  -2.850  -0.719  0.00  0.00    -0.620 N 
ATOM     11  C   LIG    1        1.454  -2.186  -1.052  0.00  0.00    +0.590 C 
ATOM     12  O   LIG    1        0.371  -2.727  -0.935  0.00  0.00    -0.470 OA
ENDROOT
BRANCH  11  13
ATOM     13  C   LIG    1        1.537  -0.801  -1.559  0.00  0.00    +0.080 A 
ATOM     14  N   LIG    1        2.453   0.027  -1.070  0.00  0.00    -0.460 NA
ATOM     15  C   LIG    1        2.560   1.266  -1.493  0.00  0.00    +0.270 A 
ATOM     16  C   LIG    1        1.715   1.765  -2.475  0.00  0.00    +0.020 A 
ATOM     17  C   LIG    1        0.744   0.944  -3.017  0.00  0.00    +0.030 A 
ATOM     18  C   LIG    1        0.648  -0.369  -2.553  0.00  0.00    +0.100 A 
BRANCH  18  19
ATOM     19  N   LIG    1       -0.311  -1.232  -3.066  0.00  0.00    -0.500 N 
ATOM     20  C   LIG    1       -0.079  -1.487  -4.494  0.00  0.00    +0.210 C 
ATOM     21  C   LIG    1       -1.665  -0.709  -2.838  0.00  0.00    +0.220 C 
ENDBRANCH  18  19
ENDBRANCH  11  13
TORSDOF 2
