REMARK  Name = ZINCkj000005jUra.1
REMARK                            x       y       z     vdW  Elec       q    Type
REMARK                         _______ _______ _______ _____ _____    ______ ____
ROOT
ATOM      1  C   LIG    1        2.976  -4.632  -1.661  0.00  0.00    +0.050 C 
ATOM      2  C   LIG    1        2.524  -4.244  -0.252  0.00  0.00    +0.260 C 
ATOM      3  C   LIG    1        3.529  -4.774   0.770  0.00  0.00    +0.260 C 
ATOM      4  N   LIG    1        4.819  -4.098   0.585  0.00  0.00    -0.390 N 
ATOM      5  C   LIG    1        4.678  -2.666   0.874  0.00  0.00    +0.150 C 
ATOM      6  C   LIG    1        3.730  -2.030  -0.148  0.00  0.00    +0.340 C 
ATOM      7  C   LIG    1        6.049  -1.991   0.787  0.00  0.00    +0.100 C 
ATOM      8  C   LIG    1        5.811  -4.684   1.496  0.00  0.00    +0.320 C 
ATOM      9  H   LIG    1        5.126  -4.220  -0.368  0.00  0.00    +0.420 HD
ATOM     10  N   LIG    1        2.464  -2.779  -0.138  0.00  0.00    -0.620 N 
ATOM     11  C   LIG    1        1.282  -2.140  -0.022  0.00  0.00    +0.580 C 
ATOM     12  O   LIG    1        0.258  -2.779   0.121  0.00  0.00    -0.460 OA
ENDROOT
BRANCH  11  13
ATOM     13  C   LIG    1        1.232  -0.665  -0.068  0.00  0.00    +0.080 A 
ATOM     14  N   LIG    1        2.328   0.024  -0.368  0.00  0.00    -0.460 NA
ATOM     15  C   LIG    1        2.326   1.337  -0.419  0.00  0.00    +0.270 A 
ATOM     16  C   LIG    1        1.172   2.063  -0.161  0.00  0.00    +0.030 A 
ATOM     17  C   LIG    1        0.004   1.395   0.155  0.00  0.00    +0.040 A 
ATOM     18  C   LIG    1        0.029   0.000   0.204  0.00  0.00    +0.110 A 
BRANCH  18  19
ATOM     19  N   LIG    1       -1.118  -0.716   0.518  0.00  0.00    -0.500 N 
ATOM     20  C   LIG    1       -2.157  -0.520  -0.502  0.00  0.00    +0.210 C 
ATOM     21  C   LIG    1       -1.616  -0.355   1.852  0.00  0.00    +0.210 C 
ENDBRANCH  18  19
ENDBRANCH  11  13
TORSDOF 2
