REMARK  Name = ZINCpk000000oTgD.0
REMARK                            x       y       z     vdW  Elec       q    Type
REMARK                         _______ _______ _______ _____ _____    ______ ____
ROOT
ATOM      1  C   LIG    1       -0.898   3.118  -1.144  0.00  0.00    +0.030 C 
ATOM      2  C   LIG    1       -0.759   1.596  -1.228  0.00  0.00    +0.050 C 
ATOM      3  C   LIG    1       -0.013   1.086   0.008  0.00  0.00    +0.290 C 
ATOM      4  N   LIG    1       -0.706   1.562   1.213  0.00  0.00    -0.610 N 
ATOM      5  C   LIG    1       -0.975   3.001   1.350  0.00  0.00    +0.280 C 
ATOM      6  C   LIG    1       -1.091   0.697   2.171  0.00  0.00    +0.510 C 
ATOM      7  O   LIG    1       -0.866  -0.488   2.044  0.00  0.00    -0.530 OA
ATOM      8  C   LIG    1       -1.711   3.490   0.099  0.00  0.00    +0.050 C 
ENDROOT
BRANCH   1   9
ATOM      9  C   LIG    1       -1.602   3.627  -2.375  0.00  0.00    +0.460 C 
ATOM     10  O   LIG    1       -1.957   2.853  -3.232  0.00  0.00    -0.500 OA
BRANCH   9  11
ATOM     11  O   LIG    1       -1.836   4.941  -2.520  0.00  0.00    -0.360 OA
BRANCH  11  13
ATOM     12  C   LIG    1       -2.694   6.880  -3.717  0.00  0.00    +0.070 C 
ATOM     13  C   LIG    1       -2.519   5.360  -3.731  0.00  0.00    +0.200 C 
ENDBRANCH  11  13
ENDBRANCH   9  11
ENDBRANCH   1   9
BRANCH   6  14
ATOM     14  C   LIG    1       -1.801   1.201   3.401  0.00  0.00    +0.300 C 
BRANCH  14  15
ATOM     15  N   LIG    1       -2.111   0.073   4.283  0.00  0.00    -0.710 N 
ATOM     16  H   LIG    1       -1.857  -0.827   4.027  0.00  0.00    +0.410 HD
ATOM     17  C   LIG    1       -2.750   0.286   5.450  0.00  0.00    +0.570 C 
ATOM     18  O   LIG    1       -3.068   1.415   5.772  0.00  0.00    -0.520 OA
BRANCH  17  19
ATOM     19  C   LIG    1       -3.062  -0.850   6.339  0.00  0.00    -0.190 A 
ATOM     20  C   LIG    1       -2.702  -2.148   5.970  0.00  0.00    +0.130 A 
ATOM     21  C   LIG    1       -2.991  -3.205   6.806  0.00  0.00    -0.020 A 
ATOM     22  C   LIG    1       -3.648  -2.984   8.007  0.00  0.00    +0.160 A 
ATOM     23  C   LIG    1       -4.014  -1.701   8.378  0.00  0.00    -0.040 A 
ATOM     24  F   LIG    1       -3.933  -4.026   8.819  0.00  0.00    -0.120 F 
ATOM     25  C   LIG    1       -3.725  -0.632   7.552  0.00  0.00    +0.200 A 
ATOM     26  F   LIG    1       -4.082   0.620   7.913  0.00  0.00    -0.100 F 
ENDBRANCH  17  19
ENDBRANCH  14  15
ENDBRANCH   6  14
TORSDOF 6
