REMARK  Name = ZINCrg00000yaFPK.0
REMARK                            x       y       z     vdW  Elec       q    Type
REMARK                         _______ _______ _______ _____ _____    ______ ____
ROOT
ATOM      1  C   LIG    1       -4.441  -1.720   1.282  0.00  0.00    +0.170 C 
ENDROOT
BRANCH   1   2
ATOM      2  O   LIG    1       -3.412  -2.680   1.529  0.00  0.00    -0.540 OA
ATOM      3  H   LIG    1       -3.548  -3.526   1.080  0.00  0.00    +0.380 HD
ENDBRANCH   1   2
BRANCH   1   4
ATOM      4  C   LIG    1       -5.784  -2.275   1.760  0.00  0.00    +0.250 C 
BRANCH   4   6
ATOM      5  C   LIG    1       -6.301  -1.444   3.992  0.00  0.00    +0.520 C 
ATOM      6  N   LIG    1       -5.765  -2.410   3.219  0.00  0.00    -0.610 N 
ATOM      7  C   LIG    1       -5.163  -3.594   3.838  0.00  0.00    +0.290 C 
ATOM      8  O   LIG    1       -6.184  -1.499   5.198  0.00  0.00    -0.510 OA
BRANCH   5   9
ATOM      9  C   LIG    1       -7.044  -0.297   3.357  0.00  0.00    +0.150 C 
BRANCH   9  10
ATOM     10  C   LIG    1       -6.057   0.597   2.605  0.00  0.00    +0.010 C 
ATOM     11  C   LIG    1       -4.923   1.010   3.546  0.00  0.00    +0.040 C 
ENDBRANCH   9  10
BRANCH   9  12
ATOM     12  O   LIG    1       -7.699   0.466   4.373  0.00  0.00    -0.350 OA
BRANCH  12  14
ATOM     13  C   LIG    1       -9.499   1.914   5.081  0.00  0.00    +0.050 C 
ATOM     14  C   LIG    1       -8.950   1.022   3.965  0.00  0.00    +0.150 C 
ENDBRANCH  12  14
ENDBRANCH   9  12
ENDBRANCH   5   9
ENDBRANCH   4   6
ENDBRANCH   1   4
BRANCH   1  15
ATOM     15  C   LIG    1       -4.516  -1.427  -0.218  0.00  0.00    +0.270 C 
BRANCH  15  16
ATOM     16  N   LIG    1       -3.230  -0.895  -0.677  0.00  0.00    -0.600 N 
ATOM     17  C   LIG    1       -2.272  -1.734  -1.117  0.00  0.00    +0.590 C 
ATOM     18  O   LIG    1       -2.505  -2.923  -1.220  0.00  0.00    -0.520 OA
ATOM     19  C   LIG    1       -2.986   0.549  -0.656  0.00  0.00    +0.280 C 
BRANCH  17  20
ATOM     20  C   LIG    1       -0.942  -1.211  -1.473  0.00  0.00    -0.120 A 
ATOM     21  C   LIG    1       -0.722  -0.596  -2.700  0.00  0.00    +0.110 A 
ATOM     22  C   LIG    1        0.554  -0.113  -3.001  0.00  0.00    -0.010 A 
ATOM     23  C   LIG    1        1.574  -0.232  -2.123  0.00  0.00    +0.300 A 
ATOM     24  N   LIG    1        1.409  -0.826  -0.908  0.00  0.00    -0.280 N 
ATOM     25  N   LIG    1        2.290  -1.066   0.155  0.00  0.00    -0.310 NA
ATOM     26  C   LIG    1        1.637  -1.678   1.117  0.00  0.00    +0.280 A 
ATOM     27  C   LIG    1        0.317  -1.855   0.724  0.00  0.00    -0.100 A 
ATOM     28  C   LIG    1        0.184  -1.324  -0.544  0.00  0.00    +0.120 A 
ENDBRANCH  17  20
ENDBRANCH  15  16
ENDBRANCH   1  15
TORSDOF 10
