REMARK  Name = ZINCtV00000tRTSg.0
REMARK                            x       y       z     vdW  Elec       q    Type
REMARK                         _______ _______ _______ _____ _____    ______ ____
ROOT
ATOM      1  C   LIG    1        2.232  -2.068  -2.275  0.00  0.00    +0.170 C 
ATOM      2  C   LIG    1        1.734  -2.850  -1.087  0.00  0.00    +0.160 A 
ATOM      3  C   LIG    1        1.245  -2.165  -0.021  0.00  0.00    -0.250 A 
ATOM      4  C   LIG    1        0.734  -2.939   1.127  0.00  0.00    +0.430 A 
ATOM      5  C   LIG    1        0.540  -4.383   0.893  0.00  0.00    -0.250 A 
ATOM      6  C   LIG    1       -0.171  -5.176   1.792  0.00  0.00    +0.160 A 
ATOM      7  C   LIG    1       -0.336  -6.508   1.536  0.00  0.00    -0.090 A 
ATOM      8  C   LIG    1        0.201  -7.073   0.382  0.00  0.00    +0.190 A 
ATOM      9  C   LIG    1        0.912  -6.298  -0.519  0.00  0.00    -0.030 A 
ATOM     10  C   LIG    1        1.094  -4.943  -0.272  0.00  0.00    +0.180 A 
ATOM     11  O   LIG    1        0.489  -2.419   2.201  0.00  0.00    -0.450 OA
ATOM     12  O   LIG    1        1.798  -4.181  -1.131  0.00  0.00    -0.210 OA
ENDROOT
BRANCH   3  13
ATOM     13  C   LIG    1        1.220  -0.682  -0.013  0.00  0.00    -0.030 A 
ATOM     14  C   LIG    1        0.002  -0.004   0.002  0.00  0.00    +0.060 A 
ATOM     15  C   LIG    1       -0.017   1.376   0.010  0.00  0.00    -0.010 A 
ATOM     16  C   LIG    1        1.172   2.087   0.002  0.00  0.00    +0.100 A 
ATOM     17  C   LIG    1        2.385   1.417  -0.013  0.00  0.00    -0.010 A 
ATOM     18  F   LIG    1        1.149   3.437   0.009  0.00  0.00    -0.140 F 
ATOM     19  C   LIG    1        2.413   0.037  -0.021  0.00  0.00    +0.050 A 
ENDBRANCH   3  13
BRANCH   8  20
ATOM     20  O   LIG    1        0.026  -8.397   0.137  0.00  0.00    -0.300 OA
BRANCH  20  21
ATOM     21  C   LIG    1       -0.717  -9.142   1.104  0.00  0.00    +0.270 C 
BRANCH  21  22
ATOM     22  C   LIG    1       -0.808 -10.581   0.667  0.00  0.00    -0.080 A 
ATOM     23  C   LIG    1       -1.865 -10.999  -0.120  0.00  0.00    +0.060 A 
ATOM     24  C   LIG    1       -1.946 -12.318  -0.526  0.00  0.00    +0.050 A 
ATOM     25  C   LIG    1       -0.976 -13.223  -0.137  0.00  0.00    -0.020 A 
ATOM     26  C   LIG    1        0.080 -12.806   0.656  0.00  0.00    -0.040 A 
ATOM     27 CL   LIG    1        1.300 -13.940   1.146  0.00  0.00    -0.040 Cl
ATOM     28 CL   LIG    1       -1.082 -14.881  -0.640  0.00  0.00    -0.040 Cl
ATOM     29  C   LIG    1        0.163 -11.485   1.057  0.00  0.00    +0.080 A 
ENDBRANCH  21  22
ENDBRANCH  20  21
ENDBRANCH   8  20
TORSDOF 4
