REMARK  Name = ZINCkj000005iFNl.0
REMARK                            x       y       z     vdW  Elec       q    Type
REMARK                         _______ _______ _______ _____ _____    ______ ____
ROOT
ATOM      1  N   LIG    1        0.736   0.565   4.907  0.00  0.00    -0.650 N 
ATOM      2  H   LIG    1        0.721   0.025   5.713  0.00  0.00    +0.420 HD
ATOM      3  C   LIG    1        1.451   1.706   4.873  0.00  0.00    +0.500 C 
ATOM      4  O   LIG    1        1.391   2.430   3.901  0.00  0.00    -0.520 OA
ENDROOT
BRANCH   1  11
ATOM      5  C   LIG    1       -1.026  -0.762   3.909  0.00  0.00    +0.100 A 
ATOM      6  C   LIG    1       -1.737  -1.163   2.789  0.00  0.00    -0.040 A 
ATOM      7  C   LIG    1       -1.417  -0.648   1.546  0.00  0.00    +0.040 A 
ATOM      8  C   LIG    1       -0.383   0.260   1.415  0.00  0.00    -0.100 A 
ATOM      9  C   LIG    1        0.332   0.664   2.528  0.00  0.00    +0.040 A 
ATOM     10  C   LIG    1       -0.036   0.813   0.057  0.00  0.00    +0.100 C 
ATOM     11  C   LIG    1        0.013   0.156   3.778  0.00  0.00    +0.110 A 
BRANCH   5  13
ATOM     12  C   LIG    1       -2.420  -2.201   5.191  0.00  0.00    +0.260 C 
ATOM     13  O   LIG    1       -1.343  -1.264   5.132  0.00  0.00    -0.320 OA
ENDBRANCH   5  13
ENDBRANCH   1  11
BRANCH   3  14
ATOM     14  C   LIG    1        2.326   2.083   6.041  0.00  0.00    +0.180 C 
ATOM     15  C   LIG    1        1.978   3.509   6.518  0.00  0.00    +0.050 C 
ATOM     16  C   LIG    1        3.364   4.104   6.881  0.00  0.00    +0.050 C 
ATOM     17  C   LIG    1        4.271   3.463   5.802  0.00  0.00    +0.190 C 
ATOM     18  N   LIG    1        3.740   2.095   5.625  0.00  0.00    -0.490 NA
BRANCH  18  19
ATOM     19  C   LIG    1        3.884   1.650   4.233  0.00  0.00    +0.170 C 
BRANCH  19  20
ATOM     20  C   LIG    1        5.355   1.728   3.821  0.00  0.00    +0.260 C 
BRANCH  20  21
ATOM     21  N   LIG    1        5.498   1.284   2.428  0.00  0.00    -0.630 N 
ATOM     22  H   LIG    1        6.469   1.335   2.157  0.00  0.00    +0.440 HD
ATOM     23  H   LIG    1        4.949   1.879   1.827  0.00  0.00    +0.440 HD
ATOM     24  H   LIG    1        5.176   0.331   2.345  0.00  0.00    +0.440 HD
ENDBRANCH  20  21
ENDBRANCH  19  20
ENDBRANCH  18  19
ENDBRANCH   3  14
TORSDOF 6
