REMARK  Name = ZINCpe000000T3PJ.0
REMARK                            x       y       z     vdW  Elec       q    Type
REMARK                         _______ _______ _______ _____ _____    ______ ____
ROOT
ATOM      1  C   LIG    1        3.634   1.898  -0.085  0.00  0.00    +0.260 C 
ENDROOT
BRANCH   1   2
ATOM      2  N   LIG    1        2.292   1.549  -0.559  0.00  0.00    -0.730 N 
ATOM      3  H   LIG    1        2.110   0.652  -0.881  0.00  0.00    +0.410 HD
ATOM      4  C   LIG    1        1.312   2.473  -0.548  0.00  0.00    +0.710 C 
ATOM      5  N   LIG    1        0.078   2.152  -0.985  0.00  0.00    -0.740 N 
ATOM      6  H   LIG    1       -0.105   1.255  -1.307  0.00  0.00    +0.400 HD
ATOM      7  O   LIG    1        1.540   3.597  -0.145  0.00  0.00    -0.580 OA
BRANCH   5   8
ATOM      8  C   LIG    1       -0.987   3.159  -0.979  0.00  0.00    +0.340 C 
BRANCH   8   9
ATOM      9  C   LIG    1       -2.256   2.551  -1.518  0.00  0.00    -0.110 A 
ATOM     10  C   LIG    1       -2.531   2.611  -2.871  0.00  0.00    +0.020 A 
ATOM     11  C   LIG    1       -3.693   2.050  -3.366  0.00  0.00    +0.000 A 
ATOM     12  C   LIG    1       -4.585   1.436  -2.506  0.00  0.00    +0.010 A 
ATOM     13  C   LIG    1       -4.312   1.380  -1.152  0.00  0.00    +0.000 A 
ATOM     14  C   LIG    1       -3.148   1.938  -0.658  0.00  0.00    +0.020 A 
ENDBRANCH   8   9
ENDBRANCH   5   8
ENDBRANCH   1   2
BRANCH   1  15
ATOM     15  C   LIG    1        4.647   0.989  -0.731  0.00  0.00    +0.520 C 
ATOM     16  N   LIG    1        5.950   1.335  -0.745  0.00  0.00    -0.710 N 
ATOM     17  H   LIG    1        6.225   2.203  -0.409  0.00  0.00    +0.410 HD
ATOM     18  O   LIG    1        4.291  -0.053  -1.238  0.00  0.00    -0.520 OA
BRANCH  16  19
ATOM     19  C   LIG    1        6.950   0.401  -1.268  0.00  0.00    +0.270 C 
ATOM     20  C   LIG    1        8.194   1.172  -1.744  0.00  0.00    +0.070 C 
ATOM     21  C   LIG    1        9.343   0.169  -1.964  0.00  0.00    -0.300 C 
ATOM     22  S   LIG    1        8.999  -1.210  -0.812  0.00  0.00    +2.400 S 
ATOM     23  O   LIG    1        9.983  -1.222   0.214  0.00  0.00    -0.930 OA
ATOM     24  O   LIG    1        8.738  -2.392  -1.556  0.00  0.00    -0.930 OA
ATOM     25  C   LIG    1        7.424  -0.554  -0.142  0.00  0.00    -0.330 C 
ENDBRANCH  16  19
ENDBRANCH   1  15
BRANCH   1  27
ATOM     26  C   LIG    1        2.750   2.738   2.096  0.00  0.00    +0.040 C 
ATOM     27  C   LIG    1        3.696   1.734   1.435  0.00  0.00    -0.020 C 
ATOM     28  C   LIG    1        3.275   0.312   1.811  0.00  0.00    +0.020 C 
ENDBRANCH   1  27
TORSDOF 6
