REMARK  Name = ZINCrD000000CmSg.0
REMARK                            x       y       z     vdW  Elec       q    Type
REMARK                         _______ _______ _______ _____ _____    ______ ____
ROOT
ATOM      1  N   LIG    1       -2.381   0.052   0.575  0.00  0.00    -0.390 N 
ATOM      2  C   LIG    1       -3.622  -0.233  -0.171  0.00  0.00    +0.270 C 
ATOM      3  C   LIG    1       -3.273  -1.270  -1.260  0.00  0.00    +0.070 C 
ATOM      4  C   LIG    1       -1.743  -1.087  -1.440  0.00  0.00    +0.090 C 
ATOM      5  C   LIG    1       -1.293  -0.774   0.009  0.00  0.00    +0.230 C 
ATOM      6  H   LIG    1       -2.147   1.029   0.483  0.00  0.00    +0.420 HD
ENDROOT
BRANCH   5   7
ATOM      7  C   LIG    1        0.002  -0.004   0.002  0.00  0.00    -0.120 A 
ATOM      8  C   LIG    1       -0.017   1.378  -0.019  0.00  0.00    +0.000 A 
ATOM      9  C   LIG    1        1.170   2.087  -0.027  0.00  0.00    +0.060 A 
ATOM     10  C   LIG    1        2.378   1.418  -0.015  0.00  0.00    +0.050 A 
ATOM     11  C   LIG    1        2.404   0.031   0.006  0.00  0.00    +0.070 A 
ATOM     12  O   LIG    1        3.603  -0.615   0.011  0.00  0.00    -0.300 OA
ATOM     13  C   LIG    1        3.590  -1.989   0.412  0.00  0.00    +0.230 C 
ATOM     14  C   LIG    1        2.438  -2.692  -0.319  0.00  0.00    +0.240 C 
ATOM     15  O   LIG    1        1.215  -2.043   0.044  0.00  0.00    -0.310 OA
ATOM     16  C   LIG    1        1.212  -0.682   0.016  0.00  0.00    +0.080 A 
ENDBRANCH   5   7
BRANCH   1  17
ATOM     17  C   LIG    1       -2.567  -0.279   1.994  0.00  0.00    +0.280 C 
BRANCH  17  18
ATOM     18  C   LIG    1       -3.605   0.663   2.606  0.00  0.00    +0.220 C 
BRANCH  18  19
ATOM     19  O   LIG    1       -4.876   0.433   1.994  0.00  0.00    -0.330 OA
BRANCH  19  24
ATOM     20  C   LIG    1       -8.240   1.807   2.325  0.00  0.00    -0.090 A 
ATOM     21  C   LIG    1       -8.027   2.758   3.326  0.00  0.00    +0.020 A 
ATOM     22  C   LIG    1       -6.768   2.920   3.867  0.00  0.00    +0.020 A 
ATOM     23  C   LIG    1       -5.716   2.139   3.425  0.00  0.00    -0.090 A 
ATOM     24  C   LIG    1       -5.915   1.194   2.427  0.00  0.00    +0.080 A 
ATOM     25  C   LIG    1       -7.174   1.023   1.877  0.00  0.00    +0.030 A 
BRANCH  20  27
ATOM     26  O   LIG    1       -9.768   0.798   0.867  0.00  0.00    -0.680 OA
ATOM     27  C   LIG    1       -9.584   1.631   1.744  0.00  0.00    +0.520 C 
ATOM     28  O   LIG    1      -10.516   2.319   2.138  0.00  0.00    -0.670 OA
ENDBRANCH  20  27
ENDBRANCH  19  24
ENDBRANCH  18  19
ENDBRANCH  17  18
ENDBRANCH   1  17
TORSDOF 6
