REMARK  Name = ZINCrD000000CmSg.1
REMARK                            x       y       z     vdW  Elec       q    Type
REMARK                         _______ _______ _______ _____ _____    ______ ____
ROOT
ATOM      1  N   LIG    1        0.544   7.819   1.383  0.00  0.00    -0.380 N 
ATOM      2  C   LIG    1        1.391   7.628   2.580  0.00  0.00    +0.260 C 
ATOM      3  C   LIG    1        1.007   8.789   3.529  0.00  0.00    +0.080 C 
ATOM      4  C   LIG    1        0.785   9.951   2.525  0.00  0.00    +0.080 C 
ATOM      5  C   LIG    1        0.163   9.241   1.304  0.00  0.00    +0.230 C 
ATOM      6  H   LIG    1       -0.285   7.249   1.459  0.00  0.00    +0.440 HD
ENDROOT
BRANCH   5   7
ATOM      7  C   LIG    1        0.700   9.846   0.032  0.00  0.00    -0.140 A 
ATOM      8  C   LIG    1        1.939  10.458   0.027  0.00  0.00    +0.040 A 
ATOM      9  C   LIG    1        2.437  11.008  -1.140  0.00  0.00    +0.030 A 
ATOM     10  C   LIG    1        1.692  10.957  -2.303  0.00  0.00    +0.060 A 
ATOM     11  C   LIG    1        0.444  10.351  -2.303  0.00  0.00    +0.060 A 
ATOM     12  O   LIG    1       -0.279  10.313  -3.455  0.00  0.00    -0.300 OA
ATOM     13  C   LIG    1       -1.356   9.370  -3.508  0.00  0.00    +0.240 C 
ATOM     14  C   LIG    1       -2.154   9.479  -2.201  0.00  0.00    +0.250 C 
ATOM     15  O   LIG    1       -1.272   9.187  -1.112  0.00  0.00    -0.310 OA
ATOM     16  C   LIG    1       -0.053   9.792  -1.132  0.00  0.00    +0.070 A 
ENDBRANCH   5   7
BRANCH   1  17
ATOM     17  C   LIG    1        1.297   7.441   0.180  0.00  0.00    +0.280 C 
BRANCH  17  18
ATOM     18  C   LIG    1        1.589   5.940   0.212  0.00  0.00    +0.210 C 
BRANCH  18  19
ATOM     19  O   LIG    1        0.361   5.213   0.133  0.00  0.00    -0.330 OA
BRANCH  19  24
ATOM     20  C   LIG    1       -0.617   1.699   0.090  0.00  0.00    -0.090 A 
ATOM     21  C   LIG    1        0.635   1.087   0.186  0.00  0.00    +0.020 A 
ATOM     22  C   LIG    1        1.776   1.859   0.258  0.00  0.00    +0.020 A 
ATOM     23  C   LIG    1        1.684   3.239   0.240  0.00  0.00    -0.090 A 
ATOM     24  C   LIG    1        0.444   3.857   0.150  0.00  0.00    +0.090 A 
ATOM     25  C   LIG    1       -0.708   3.093   0.078  0.00  0.00    +0.030 A 
BRANCH  20  27
ATOM     26  O   LIG    1       -1.757  -0.344   0.021  0.00  0.00    -0.670 OA
ATOM     27  C   LIG    1       -1.839   0.876   0.006  0.00  0.00    +0.520 C 
ATOM     28  O   LIG    1       -2.934   1.415  -0.078  0.00  0.00    -0.680 OA
ENDBRANCH  20  27
ENDBRANCH  19  24
ENDBRANCH  18  19
ENDBRANCH  17  18
ENDBRANCH   1  17
TORSDOF 6
