REMARK  Name = ZINCpk00000j8DLE.0
REMARK                            x       y       z     vdW  Elec       q    Type
REMARK                         _______ _______ _______ _____ _____    ______ ____
ROOT
ATOM      1  C   LIG    1       -3.083   2.009  -2.030  0.00  0.00    +0.220 C 
ATOM      2  C   LIG    1       -3.004   2.799  -3.340  0.00  0.00    +0.040 C 
ATOM      3  C   LIG    1       -4.256   3.669  -3.483  0.00  0.00    +0.020 C 
ATOM      4  C   LIG    1       -5.497   2.775  -3.531  0.00  0.00    +0.010 C 
ATOM      5  C   LIG    1       -5.604   1.984  -2.224  0.00  0.00    +0.270 C 
ATOM      6  N   LIG    1       -4.345   1.258  -2.006  0.00  0.00    -0.600 N 
ATOM      7  C   LIG    1       -4.349  -0.072  -1.789  0.00  0.00    +0.560 C 
ATOM      8  O   LIG    1       -3.317  -0.642  -1.492  0.00  0.00    -0.490 OA
ENDROOT
BRANCH   7   9
ATOM      9  C   LIG    1       -5.608  -0.838  -1.912  0.00  0.00    -0.120 A 
ATOM     10  C   LIG    1       -6.365  -0.757  -3.082  0.00  0.00    +0.040 A 
ATOM     11  C   LIG    1       -7.537  -1.478  -3.192  0.00  0.00    +0.010 A 
ATOM     12  C   LIG    1       -7.966  -2.271  -2.143  0.00  0.00    +0.030 A 
ATOM     13  C   LIG    1       -7.222  -2.351  -0.979  0.00  0.00    +0.010 A 
ATOM     14  C   LIG    1       -6.047  -1.640  -0.858  0.00  0.00    +0.060 A 
ENDBRANCH   7   9
BRANCH   1  17
ATOM     15  N   LIG    1       -1.062   1.120  -0.914  0.00  0.00    -0.720 N 
ATOM     16  H   LIG    1       -1.190   1.788  -0.222  0.00  0.00    +0.400 HD
ATOM     17  C   LIG    1       -1.923   1.050  -1.949  0.00  0.00    +0.540 C 
ATOM     18  O   LIG    1       -1.764   0.215  -2.814  0.00  0.00    -0.510 OA
BRANCH  15  24
ATOM     19  C   LIG    1        2.532  -3.313   1.322  0.00  0.00    +0.090 C 
ATOM     20  C   LIG    1        1.181  -2.912   0.788  0.00  0.00    +0.520 C 
ATOM     21  N   LIG    1        0.940  -1.627   0.463  0.00  0.00    -0.620 N 
ATOM     22  C   LIG    1        1.899  -0.519   0.579  0.00  0.00    +0.240 C 
ATOM     23  C   LIG    1        1.192   0.755   0.069  0.00  0.00    +0.030 C 
ATOM     24  C   LIG    1        0.065   0.188  -0.834  0.00  0.00    +0.240 C 
ATOM     25  C   LIG    1       -0.330  -1.099  -0.068  0.00  0.00    +0.260 C 
ATOM     26  O   LIG    1        0.311  -3.746   0.651  0.00  0.00    -0.540 OA
ENDBRANCH  15  24
ENDBRANCH   1  17
TORSDOF 3
