REMARK  Name = ZINCvU00000007tI.0
REMARK                            x       y       z     vdW  Elec       q    Type
REMARK                         _______ _______ _______ _____ _____    ______ ____
ROOT
ATOM      1  O   LIG    1        3.636   4.653   2.344  0.00  0.00    -0.530 OA
ATOM      2  C   LIG    1        2.563   4.305   1.890  0.00  0.00    +0.580 C 
ATOM      3  C   LIG    1        1.404   4.111   2.781  0.00  0.00    -0.200 A 
ATOM      4  C   LIG    1        1.546   4.041   4.164  0.00  0.00    +0.110 A 
ATOM      5  C   LIG    1        0.428   3.868   4.954  0.00  0.00    -0.050 A 
ATOM      6  C   LIG    1       -0.829   3.764   4.381  0.00  0.00    +0.080 A 
ATOM      7  C   LIG    1       -0.984   3.829   3.009  0.00  0.00    -0.050 A 
ATOM      8  C   LIG    1        0.127   4.000   2.202  0.00  0.00    +0.250 A 
ATOM      9  N   LIG    1        0.027   4.067   0.817  0.00  0.00    -0.730 N 
ATOM     10  H   LIG    1       -0.772   4.416   0.394  0.00  0.00    +0.420 HD
ATOM     11  C   LIG    1        1.160   3.598   0.010  0.00  0.00    +0.550 C 
ATOM     12  N   LIG    1        2.419   4.093   0.566  0.00  0.00    -0.620 N 
ENDROOT
BRANCH  11  13
ATOM     13  C   LIG    1        1.177   2.091   0.002  0.00  0.00    -0.160 A 
ATOM     14  C   LIG    1        2.380   1.413  -0.013  0.00  0.00    +0.070 A 
ATOM     15  C   LIG    1        2.396   0.030  -0.021  0.00  0.00    -0.030 A 
ATOM     16  C   LIG    1        1.208  -0.677  -0.013  0.00  0.00    +0.060 A 
ATOM     17  C   LIG    1        0.002  -0.004   0.002  0.00  0.00    -0.080 A 
ATOM     18  C   LIG    1       -0.017   1.383   0.010  0.00  0.00    +0.160 A 
BRANCH  18  19
ATOM     19  O   LIG    1       -1.202   2.047   0.019  0.00  0.00    -0.300 OA
BRANCH  19  20
ATOM     20  C   LIG    1       -2.391   1.254   0.020  0.00  0.00    +0.240 C 
BRANCH  20  21
ATOM     21  C   LIG    1       -3.597   2.157   0.031  0.00  0.00    -0.100 A 
ATOM     22  C   LIG    1       -4.148   2.560   1.233  0.00  0.00    +0.020 A 
ATOM     23  C   LIG    1       -5.252   3.392   1.243  0.00  0.00    +0.010 A 
ATOM     24  C   LIG    1       -5.811   3.813   0.050  0.00  0.00    +0.010 A 
ATOM     25  C   LIG    1       -5.263   3.405  -1.152  0.00  0.00    +0.010 A 
ATOM     26  C   LIG    1       -4.156   2.578  -1.161  0.00  0.00    +0.020 A 
ENDBRANCH  20  21
ENDBRANCH  19  20
ENDBRANCH  18  19
ENDBRANCH  11  13
BRANCH  12  27
ATOM     27  C   LIG    1        3.545   4.363  -0.333  0.00  0.00    +0.420 C 
BRANCH  27  28
ATOM     28  C   LIG    1        3.478   5.792  -0.806  0.00  0.00    -0.050 A 
ATOM     29  C   LIG    1        4.048   6.849  -0.201  0.00  0.00    -0.030 A 
ATOM     30  C   LIG    1        3.734   7.986  -0.980  0.00  0.00    -0.070 A 
ATOM     31  C   LIG    1        2.990   7.556  -2.014  0.00  0.00    +0.170 A 
ATOM     32  O   LIG    1        2.843   6.226  -1.907  0.00  0.00    -0.180 OA
ENDBRANCH  27  28
ENDBRANCH  12  27
TORSDOF 6
