REMARK  Name = ZINCkj000005hsOz.1
REMARK                            x       y       z     vdW  Elec       q    Type
REMARK                         _______ _______ _______ _____ _____    ______ ____
ROOT
ATOM      1  N   LIG    1       -0.803  -4.800   1.114  0.00  0.00    -0.380 N 
ATOM      2  C   LIG    1       -1.521  -6.006   0.663  0.00  0.00    +0.260 C 
ATOM      3  C   LIG    1       -1.158  -6.226  -0.821  0.00  0.00    +0.080 C 
ATOM      4  C   LIG    1       -0.707  -4.815  -1.283  0.00  0.00    +0.090 C 
ATOM      5  C   LIG    1        0.001  -4.282  -0.013  0.00  0.00    +0.230 C 
ATOM      6  H   LIG    1       -1.468  -4.099   1.407  0.00  0.00    +0.430 HD
ENDROOT
BRANCH   5   7
ATOM      7  C   LIG    1        0.003  -2.775  -0.007  0.00  0.00    -0.140 A 
ATOM      8  C   LIG    1       -1.137  -2.085   0.359  0.00  0.00    +0.010 A 
ATOM      9  C   LIG    1       -1.140  -0.702   0.364  0.00  0.00    +0.050 A 
ATOM     10  C   LIG    1        0.002  -0.004   0.002  0.00  0.00    +0.080 A 
ATOM     11  O   LIG    1       -0.016   1.357   0.009  0.00  0.00    -0.300 OA
ATOM     12  C   LIG    1        1.254   2.018   0.001  0.00  0.00    +0.240 C 
ATOM     13  C   LIG    1        2.136   1.350  -1.063  0.00  0.00    +0.240 C 
ATOM     14  O   LIG    1        2.283  -0.033  -0.719  0.00  0.00    -0.300 OA
ATOM     15  C   LIG    1        1.150  -0.698  -0.364  0.00  0.00    +0.070 A 
ATOM     16  C   LIG    1        1.145  -2.085  -0.369  0.00  0.00    +0.070 A 
ENDBRANCH   5   7
BRANCH   1  17
ATOM     17  C   LIG    1        0.080  -5.141   2.237  0.00  0.00    +0.290 C 
BRANCH  17  21
ATOM     18  C   LIG    1       -0.961  -6.310   5.730  0.00  0.00    +0.310 C 
ATOM     19  N   LIG    1       -0.152  -5.911   4.576  0.00  0.00    -0.710 N 
ATOM     20  H   LIG    1        0.816  -5.905   4.641  0.00  0.00    +0.410 HD
ATOM     21  C   LIG    1       -0.752  -5.552   3.424  0.00  0.00    +0.500 C 
ATOM     22  O   LIG    1       -1.962  -5.559   3.343  0.00  0.00    -0.530 OA
ENDBRANCH  17  21
ENDBRANCH   1  17
TORSDOF 3
