REMARK  Name = ZINCkj000005hsOz.2
REMARK                            x       y       z     vdW  Elec       q    Type
REMARK                         _______ _______ _______ _____ _____    ______ ____
ROOT
ATOM      1  N   LIG    1        1.185  -0.155  -0.568  0.00  0.00    -0.370 N 
ATOM      2  C   LIG    1        0.254   0.547   0.341  0.00  0.00    +0.260 C 
ATOM      3  C   LIG    1        0.310   2.030  -0.103  0.00  0.00    +0.080 C 
ATOM      4  C   LIG    1        1.810   2.191  -0.467  0.00  0.00    +0.080 C 
ATOM      5  C   LIG    1        2.169   0.819  -1.075  0.00  0.00    +0.230 C 
ATOM      6  H   LIG    1        0.672  -0.552  -1.340  0.00  0.00    +0.430 HD
ENDROOT
BRANCH   5   7
ATOM      7  C   LIG    1        3.557   0.417  -0.647  0.00  0.00    -0.150 A 
ATOM      8  C   LIG    1        4.466  -0.033  -1.587  0.00  0.00    +0.060 A 
ATOM      9  C   LIG    1        5.739  -0.404  -1.198  0.00  0.00    +0.040 A 
ATOM     10  C   LIG    1        6.109  -0.325   0.137  0.00  0.00    +0.090 A 
ATOM     11  O   LIG    1        7.365  -0.698   0.505  0.00  0.00    -0.300 OA
ATOM     12  C   LIG    1        7.817  -0.255   1.789  0.00  0.00    +0.240 C 
ATOM     13  C   LIG    1        6.699  -0.513   2.808  0.00  0.00    +0.240 C 
ATOM     14  O   LIG    1        5.539   0.218   2.395  0.00  0.00    -0.300 OA
ATOM     15  C   LIG    1        5.196   0.129   1.081  0.00  0.00    +0.060 A 
ATOM     16  C   LIG    1        3.921   0.503   0.684  0.00  0.00    +0.030 A 
ENDBRANCH   5   7
BRANCH   1  17
ATOM     17  C   LIG    1        1.879  -1.222   0.165  0.00  0.00    +0.290 C 
BRANCH  17  21
ATOM     18  C   LIG    1        0.341  -4.414   1.614  0.00  0.00    +0.310 C 
ATOM     19  N   LIG    1        1.303  -3.376   1.237  0.00  0.00    -0.710 N 
ATOM     20  H   LIG    1        2.237  -3.469   1.480  0.00  0.00    +0.410 HD
ATOM     21  C   LIG    1        0.890  -2.291   0.552  0.00  0.00    +0.500 C 
ATOM     22  O   LIG    1       -0.279  -2.174   0.249  0.00  0.00    -0.530 OA
ENDBRANCH  17  21
ENDBRANCH   1  17
TORSDOF 3
