REMARK  Name = ZINCrD000000C2Sf.1
REMARK                            x       y       z     vdW  Elec       q    Type
REMARK                         _______ _______ _______ _____ _____    ______ ____
ROOT
ATOM      1  C   LIG    1       -1.223   1.752   0.012  0.00  0.00    +0.210 A 
ATOM      2  C   LIG    1       -0.021   1.083  -0.177  0.00  0.00    -0.010 A 
ATOM      3  C   LIG    1        1.166   1.790  -0.190  0.00  0.00    +0.140 A 
ATOM      4  C   LIG    1        1.159   3.160  -0.009  0.00  0.00    -0.690 A 
ATOM      5  C   LIG    1       -0.036   3.829   0.185  0.00  0.00    +0.190 A 
ATOM      6  C   LIG    1       -1.226   3.129   0.199  0.00  0.00    -0.040 A 
ENDROOT
BRANCH   1   9
ATOM      7  O   LIG    1       -1.477  -0.696   1.025  0.00  0.00    -0.480 OA
ATOM      8  C   LIG    1       -2.465  -0.215   0.505  0.00  0.00    +0.560 C 
ATOM      9  N   LIG    1       -2.427   1.041   0.019  0.00  0.00    -0.670 N 
ATOM     10  H   LIG    1       -3.235   1.452  -0.327  0.00  0.00    +0.410 HD
BRANCH   8  11
ATOM     11  C   LIG    1       -3.706  -1.008   0.406  0.00  0.00    -0.150 A 
ATOM     12  C   LIG    1       -4.845  -0.456  -0.186  0.00  0.00    +0.110 A 
ATOM     13  C   LIG    1       -6.000  -1.203  -0.280  0.00  0.00    -0.010 A 
ATOM     14  C   LIG    1       -6.037  -2.495   0.221  0.00  0.00    +0.150 A 
ATOM     15  C   LIG    1       -4.912  -3.047   0.814  0.00  0.00    +0.000 A 
ATOM     16  F   LIG    1       -7.174  -3.220   0.130  0.00  0.00    -0.120 F 
ATOM     17  C   LIG    1       -3.749  -2.312   0.909  0.00  0.00    +0.040 A 
ATOM     18 CL   LIG    1       -2.341  -3.003   1.653  0.00  0.00    -0.010 Cl
ENDBRANCH   8  11
ENDBRANCH   1   9
BRANCH   4  19
ATOM     19  S   LIG    1        2.675   4.058  -0.026  0.00  0.00    +2.700 S 
ATOM     20  O   LIG    1        3.695   3.128   0.313  0.00  0.00    -0.940 OA
ATOM     21  O   LIG    1        2.442   5.255   0.704  0.00  0.00    -0.930 OA
BRANCH  19  22
ATOM     22  N   LIG    1        2.958   4.513  -1.593  0.00  0.00    -1.020 N 
ATOM     23  H   LIG    1        3.724   4.157  -2.070  0.00  0.00    +0.440 HD
BRANCH  22  24
ATOM     24  C   LIG    1        2.102   5.400  -2.221  0.00  0.00    +0.560 A 
ATOM     25  N   LIG    1        0.914   5.641  -1.686  0.00  0.00    -0.560 NA
ATOM     26  C   LIG    1        0.074   6.487  -2.259  0.00  0.00    +0.370 A 
ATOM     27  C   LIG    1        0.445   7.117  -3.436  0.00  0.00    -0.110 A 
ATOM     28  C   LIG    1        1.693   6.838  -3.971  0.00  0.00    +0.370 A 
ATOM     29  N   LIG    1        2.487   5.984  -3.346  0.00  0.00    -0.540 NA
ENDBRANCH  22  24
ENDBRANCH  19  22
ENDBRANCH   4  19
TORSDOF 5
