REMARK  Name = ZINCpk00000KfLP2.0
REMARK                            x       y       z     vdW  Elec       q    Type
REMARK                         _______ _______ _______ _____ _____    ______ ____
ROOT
ATOM      1  C   LIG    1        0.141   1.294   2.391  0.00  0.00    +0.130 C 
ATOM      2  C   LIG    1        0.328  -0.228   2.584  0.00  0.00    +0.060 C 
ATOM      3  C   LIG    1        0.256  -0.393   4.123  0.00  0.00    +0.180 C 
ATOM      4  N   LIG    1       -0.784   0.589   4.522  0.00  0.00    -0.510 NA
ATOM      5  C   LIG    1       -0.562   1.779   3.673  0.00  0.00    +0.190 C 
ENDROOT
BRANCH   1   6
ATOM      6  N   LIG    1       -0.700   1.560   1.217  0.00  0.00    -0.530 NA
ATOM      7  C   LIG    1       -0.132   0.941   0.011  0.00  0.00    +0.190 C 
BRANCH   6   8
ATOM      8  C   LIG    1       -0.897   3.003   1.025  0.00  0.00    +0.300 C 
BRANCH   8  13
ATOM      9  C   LIG    1       -5.309   3.731  -1.325  0.00  0.00    +0.200 C 
ATOM     10  C   LIG    1       -3.843   3.543  -1.034  0.00  0.00    +0.170 A 
ATOM     11  N   LIG    1       -2.875   3.535  -1.909  0.00  0.00    -0.290 NA
ATOM     12  N   LIG    1       -1.751   3.355  -1.310  0.00  0.00    -0.290 NA
ATOM     13  C   LIG    1       -1.952   3.231  -0.027  0.00  0.00    +0.180 A 
ATOM     14  N   LIG    1       -3.285   3.350   0.186  0.00  0.00    -0.460 N 
ATOM     15  C   LIG    1       -3.982   3.283   1.473  0.00  0.00    +0.340 C 
ENDBRANCH   8  13
ENDBRANCH   6   8
ENDBRANCH   1   6
BRANCH   4  16
ATOM     16  C   LIG    1       -0.668   0.930   5.947  0.00  0.00    +0.340 C 
BRANCH  16  17
ATOM     17  C   LIG    1       -0.654  -0.335   6.766  0.00  0.00    +0.160 A 
ATOM     18  N   LIG    1        0.399  -1.020   7.109  0.00  0.00    -0.280 NA
ATOM     19  N   LIG    1        0.037  -2.039   7.806  0.00  0.00    -0.280 NA
ATOM     20  C   LIG    1       -1.259  -2.039   7.931  0.00  0.00    +0.180 A 
ATOM     21  O   LIG    1       -1.726  -0.959   7.282  0.00  0.00    -0.220 OA
BRANCH  20  22
ATOM     22  C   LIG    1       -2.084  -3.059   8.674  0.00  0.00    +0.090 C 
ATOM     23  C   LIG    1       -1.438  -3.537   9.985  0.00  0.00    +0.060 C 
ATOM     24  C   LIG    1       -1.933  -4.948   9.620  0.00  0.00    +0.030 C 
ATOM     25  C   LIG    1       -1.904  -4.494   8.151  0.00  0.00    +0.050 C 
ENDBRANCH  20  22
ENDBRANCH  16  17
ENDBRANCH   4  16
TORSDOF 6
