REMARK  Name = ZINCvU00000004iH.0
REMARK                            x       y       z     vdW  Elec       q    Type
REMARK                         _______ _______ _______ _____ _____    ______ ____
ROOT
ATOM      1  C   LIG    1        2.556  -0.358  -0.065  0.00  0.00    +0.580 C 
ATOM      2  N   LIG    1        3.751  -0.971  -0.176  0.00  0.00    -0.610 N 
ATOM      3  C   LIG    1        4.995  -0.188  -0.192  0.00  0.00    +0.260 C 
ATOM      4  C   LIG    1        5.934  -0.732   0.889  0.00  0.00    +0.020 C 
ATOM      5  C   LIG    1        6.134  -2.235   0.677  0.00  0.00    +0.060 C 
ATOM      6  C   LIG    1        4.788  -2.953   0.800  0.00  0.00    -0.010 C 
ATOM      7  C   LIG    1        3.836  -2.434  -0.277  0.00  0.00    +0.300 C 
ATOM      8  O   LIG    1        1.542  -1.020   0.051  0.00  0.00    -0.530 OA
ENDROOT
BRANCH   1  12
ATOM      9  C   LIG    1        2.342   3.924  -0.149  0.00  0.00    +0.180 A 
ATOM     10  C   LIG    1        2.967   3.217  -1.154  0.00  0.00    -0.100 A 
ATOM     11  C   LIG    1        3.039   1.835  -1.132  0.00  0.00    +0.100 A 
ATOM     12  C   LIG    1        2.477   1.111  -0.086  0.00  0.00    -0.170 A 
ATOM     13  C   LIG    1        1.808   1.835   0.994  0.00  0.00    +0.020 A 
ATOM     14  C   LIG    1        1.224   1.160   2.073  0.00  0.00    +0.020 A 
ATOM     15  C   LIG    1        0.605   1.872   3.057  0.00  0.00    +0.040 A 
ATOM     16  C   LIG    1        0.554   3.262   3.010  0.00  0.00    +0.000 A 
ATOM     17  C   LIG    1        1.112   3.949   1.974  0.00  0.00    +0.060 A 
ATOM     18  C   LIG    1        1.752   3.248   0.941  0.00  0.00    -0.080 A 
BRANCH   9  20
ATOM     19  C   LIG    1        2.909   5.901  -1.337  0.00  0.00    +0.250 C 
ATOM     20  O   LIG    1        2.293   5.277  -0.207  0.00  0.00    -0.310 OA
ENDBRANCH   9  20
ENDBRANCH   1  12
BRANCH   6  21
ATOM     21  C   LIG    1        4.991  -4.435   0.624  0.00  0.00    +0.520 C 
ATOM     22  N   LIG    1        3.937  -5.273   0.693  0.00  0.00    -0.670 N 
ATOM     23  H   LIG    1        3.040  -4.916   0.791  0.00  0.00    +0.410 HD
ATOM     24  O   LIG    1        6.102  -4.875   0.419  0.00  0.00    -0.510 OA
BRANCH  22  25
ATOM     25  C   LIG    1        4.136  -6.656   0.622  0.00  0.00    +0.160 A 
ATOM     26  C   LIG    1        5.144  -7.173  -0.181  0.00  0.00    +0.040 A 
ATOM     27  C   LIG    1        5.339  -8.539  -0.249  0.00  0.00    +0.060 A 
ATOM     28  C   LIG    1        4.531  -9.391   0.482  0.00  0.00    -0.100 A 
ATOM     29  C   LIG    1        3.526  -8.879   1.283  0.00  0.00    +0.070 A 
ATOM     30 BR   LIG    1        4.800 -11.261   0.386  0.00  0.00    -0.050 Br
ATOM     31  C   LIG    1        3.330  -7.514   1.359  0.00  0.00    -0.100 A 
ATOM     32  C   LIG    1        2.239  -6.956   2.236  0.00  0.00    +0.110 C 
ENDBRANCH  22  25
ENDBRANCH   6  21
TORSDOF 4
