REMARK  Name = ZINCvU0000000HDu.0
REMARK                            x       y       z     vdW  Elec       q    Type
REMARK                         _______ _______ _______ _____ _____    ______ ____
ROOT
ATOM      1  C   LIG    1        0.917   5.926   0.023  0.00  0.00    +0.530 C 
ATOM      2  N   LIG    1       -0.213   5.195  -0.040  0.00  0.00    -0.560 N 
ATOM      3  O   LIG    1        0.855   7.126   0.183  0.00  0.00    -0.490 OA
ENDROOT
BRANCH   2   4
ATOM      4  C   LIG    1       -0.141   3.804  -0.116  0.00  0.00    +0.330 A 
ATOM      5  C   LIG    1       -0.202   3.179  -1.355  0.00  0.00    -0.020 A 
ATOM      6  C   LIG    1       -0.129   1.798  -1.417  0.00  0.00    +0.080 A 
ATOM      7  C   LIG    1        0.002   1.088  -0.231  0.00  0.00    -0.030 A 
ATOM      8  C   LIG    1        0.050   1.775   0.966  0.00  0.00    +0.270 A 
ATOM      9  N   LIG    1       -0.016   3.092   0.993  0.00  0.00    -0.480 NA
ENDBRANCH   2   4
BRANCH   1  10
ATOM     10  C   LIG    1        2.259   5.251  -0.107  0.00  0.00    +0.160 C 
BRANCH  10  13
ATOM     11  C   LIG    1        4.400   8.167  -0.501  0.00  0.00    +0.030 A 
ATOM     12  N   LIG    1        3.417   7.360  -0.716  0.00  0.00    -0.420 NA
ATOM     13  C   LIG    1        3.353   6.278   0.035  0.00  0.00    +0.080 A 
ATOM     14  C   LIG    1        4.334   6.170   0.935  0.00  0.00    -0.060 A 
ATOM     15  S   LIG    1        5.388   7.570   0.760  0.00  0.00    +0.160 S 
BRANCH  11  16
ATOM     16  C   LIG    1        4.643   9.450  -1.254  0.00  0.00    +0.320 C 
BRANCH  16  17
ATOM     17  O   LIG    1        3.974  10.524  -0.591  0.00  0.00    -0.300 OA
BRANCH  17  22
ATOM     18  C   LIG    1        4.464  15.645  -2.886  0.00  0.00    +0.090 C 
ATOM     19  C   LIG    1        4.333  14.275  -2.272  0.00  0.00    -0.120 A 
ATOM     20  C   LIG    1        3.590  14.104  -1.118  0.00  0.00    +0.050 A 
ATOM     21  C   LIG    1        3.469  12.849  -0.553  0.00  0.00    -0.010 A 
ATOM     22  C   LIG    1        4.092  11.760  -1.145  0.00  0.00    +0.130 A 
ATOM     23  C   LIG    1        4.842  11.935  -2.299  0.00  0.00    -0.080 A 
ATOM     24  C   LIG    1        4.955  13.191  -2.863  0.00  0.00    +0.050 A 
ENDBRANCH  17  22
ENDBRANCH  16  17
ENDBRANCH  11  16
ENDBRANCH  10  13
ENDBRANCH   1  10
BRANCH   2  25
ATOM     25  C   LIG    1       -1.518   5.861  -0.028  0.00  0.00    +0.350 C 
BRANCH  25  26
ATOM     26  C   LIG    1       -1.993   6.010   1.395  0.00  0.00    -0.110 A 
ATOM     27  C   LIG    1       -2.759   5.017   1.976  0.00  0.00    +0.020 A 
ATOM     28  C   LIG    1       -3.190   5.152   3.282  0.00  0.00    +0.000 A 
ATOM     29  C   LIG    1       -2.864   6.284   4.004  0.00  0.00    +0.010 A 
ATOM     30  C   LIG    1       -2.102   7.280   3.422  0.00  0.00    -0.010 A 
ATOM     31  C   LIG    1       -1.666   7.143   2.117  0.00  0.00    +0.040 A 
ENDBRANCH  25  26
ENDBRANCH   2  25
TORSDOF 8
