REMARK  Name = ZINCnE000001Fph6.0
REMARK                            x       y       z     vdW  Elec       q    Type
REMARK                         _______ _______ _______ _____ _____    ______ ____
ROOT
ATOM      1  N   LIG    1       -0.596   1.723  -1.290  0.00  0.00    -0.510 NA
ATOM      2  C   LIG    1        0.338   1.357  -0.201  0.00  0.00    +0.210 C 
ATOM      3  C   LIG    1       -0.209   2.012   1.047  0.00  0.00    -0.070 A 
ATOM      4  C   LIG    1        0.368   2.291   2.269  0.00  0.00    -0.100 A 
ATOM      5  C   LIG    1       -0.370   2.909   3.263  0.00  0.00    +0.050 A 
ATOM      6  C   LIG    1       -1.688   3.250   3.035  0.00  0.00    -0.160 A 
ATOM      7  C   LIG    1       -2.274   2.972   1.807  0.00  0.00    +0.300 A 
ATOM      8  C   LIG    1       -1.532   2.351   0.812  0.00  0.00    -0.170 A 
ATOM      9  C   LIG    1       -1.888   1.929  -0.596  0.00  0.00    +0.230 C 
ENDROOT
BRANCH   1  10
ATOM     10  C   LIG    1       -0.698   0.645  -2.282  0.00  0.00    +0.150 C 
BRANCH  10  12
ATOM     11  C   LIG    1       -1.780  -0.055  -4.423  0.00  0.00    +0.000 C 
ATOM     12  C   LIG    1       -1.764   1.004  -3.318  0.00  0.00    +0.010 C 
ENDBRANCH  10  12
ENDBRANCH   1  10
BRANCH   7  13
ATOM     13  N   LIG    1       -3.608   3.315   1.573  0.00  0.00    -1.090 NA
BRANCH  13  14
ATOM     14  S   LIG    1       -4.492   4.056   2.762  0.00  0.00    +2.630 S 
ATOM     15  O   LIG    1       -3.912   5.338   2.954  0.00  0.00    -1.030 OA
ATOM     16  O   LIG    1       -4.636   3.104   3.807  0.00  0.00    -1.030 OA
BRANCH  14  17
ATOM     17  C   LIG    1       -6.107   4.332   2.114  0.00  0.00    -0.700 A 
ATOM     18  C   LIG    1       -6.433   5.146   1.094  0.00  0.00    +0.120 A 
ATOM     19  O   LIG    1       -7.761   5.078   0.905  0.00  0.00    -0.180 OA
ATOM     20  C   LIG    1       -8.298   4.233   1.800  0.00  0.00    -0.050 A 
ATOM     21  C   LIG    1       -9.761   3.889   1.919  0.00  0.00    +0.180 C 
ATOM     22  C   LIG    1       -5.471   5.989   0.296  0.00  0.00    +0.190 C 
ATOM     23  C   LIG    1       -7.310   3.747   2.571  0.00  0.00    +0.030 A 
ENDBRANCH  14  17
ENDBRANCH  13  14
ENDBRANCH   7  13
TORSDOF 5
