REMARK  Name = ZINCtV00001bB3oA.0
REMARK                            x       y       z     vdW  Elec       q    Type
REMARK                         _______ _______ _______ _____ _____    ______ ____
ROOT
ATOM      1  C   LIG    1        2.399  -0.692   6.110  0.00  0.00    +0.570 C 
ATOM      2  N   LIG    1        2.907  -1.344   7.174  0.00  0.00    -0.700 N 
ATOM      3  H   LIG    1        3.612  -1.999   7.050  0.00  0.00    +0.410 HD
ATOM      4  O   LIG    1        3.120  -0.397   5.175  0.00  0.00    -0.500 OA
ENDROOT
BRANCH   2   5
ATOM      5  C   LIG    1        2.419  -1.077   8.457  0.00  0.00    +0.150 A 
ATOM      6  C   LIG    1        2.376   0.229   8.927  0.00  0.00    -0.080 A 
ATOM      7  C   LIG    1        1.888   0.490  10.193  0.00  0.00    +0.030 A 
ATOM      8  C   LIG    1        1.452  -0.548  10.995  0.00  0.00    +0.000 A 
ATOM      9  C   LIG    1        1.498  -1.850  10.532  0.00  0.00    +0.030 A 
ATOM     10  C   LIG    1        1.980  -2.118   9.265  0.00  0.00    -0.090 A 
BRANCH   6  11
ATOM     11  C   LIG    1        2.857   1.361   8.056  0.00  0.00    +0.010 C 
ATOM     12  C   LIG    1        4.003   2.093   8.757  0.00  0.00    +0.030 C 
ATOM     13  C   LIG    1        1.705   2.337   7.806  0.00  0.00    +0.030 C 
ENDBRANCH   6  11
BRANCH  10  14
ATOM     14  C   LIG    1        2.031  -3.537   8.761  0.00  0.00    +0.010 C 
ATOM     15  C   LIG    1        0.618  -4.125   8.750  0.00  0.00    +0.040 C 
ATOM     16  C   LIG    1        2.923  -4.373   9.681  0.00  0.00    +0.030 C 
ENDBRANCH  10  14
ENDBRANCH   2   5
BRANCH   1  18
ATOM     17  C   LIG    1        0.321  -0.297   4.902  0.00  0.00    +0.120 C 
ATOM     18  C   LIG    1        0.980  -0.338   6.079  0.00  0.00    -0.080 C 
BRANCH  17  22
ATOM     19  C   LIG    1        2.215  -1.664   1.358  0.00  0.00    +0.120 A 
ATOM     20  C   LIG    1        1.432  -0.518   1.328  0.00  0.00    -0.040 A 
ATOM     21  C   LIG    1        0.817  -0.070   2.476  0.00  0.00    +0.040 A 
ATOM     22  C   LIG    1        0.976  -0.773   3.675  0.00  0.00    -0.070 A 
ATOM     23  C   LIG    1        1.761  -1.932   3.703  0.00  0.00    -0.010 A 
ATOM     24  C   LIG    1        2.374  -2.374   2.548  0.00  0.00    +0.100 A 
BRANCH  19  25
ATOM     25  O   LIG    1        2.824  -2.098   0.224  0.00  0.00    -0.300 OA
BRANCH  25  27
ATOM     26  C   LIG    1        3.377  -1.963  -2.125  0.00  0.00    +0.070 C 
ATOM     27  C   LIG    1        2.619  -1.324  -0.960  0.00  0.00    +0.170 C 
ENDBRANCH  25  27
ENDBRANCH  19  25
BRANCH  24  28
ATOM     28  O   LIG    1        3.138  -3.499   2.571  0.00  0.00    -0.300 OA
BRANCH  28  29
ATOM     29  C   LIG    1        3.263  -4.172   3.825  0.00  0.00    +0.180 C 
ATOM     30  C   LIG    1        4.152  -5.405   3.656  0.00  0.00    +0.070 C 
ENDBRANCH  28  29
ENDBRANCH  24  28
ENDBRANCH  17  22
ENDBRANCH   1  18
TORSDOF 9
