REMARK  Name = ZINCvU0000000F0v.0
REMARK                            x       y       z     vdW  Elec       q    Type
REMARK                         _______ _______ _______ _____ _____    ______ ____
ROOT
ATOM      1  C   LIG    1        3.101   3.014  -3.886  0.00  0.00    +0.260 C 
ENDROOT
BRANCH   1   3
ATOM      2  N   LIG    1        4.231   4.854  -5.092  0.00  0.00    -0.570 N 
ATOM      3  C   LIG    1        4.008   4.216  -3.926  0.00  0.00    +0.520 C 
ATOM      4  O   LIG    1        4.537   4.610  -2.908  0.00  0.00    -0.490 OA
BRANCH   2   5
ATOM      5  C   LIG    1        5.071   5.969  -5.129  0.00  0.00    +0.150 A 
ATOM      6  C   LIG    1        6.421   5.814  -5.357  0.00  0.00    +0.030 A 
ATOM      7  C   LIG    1        7.268   6.918  -5.396  0.00  0.00    +0.020 A 
ATOM      8  C   LIG    1        6.788   8.178  -5.210  0.00  0.00    +0.030 A 
ATOM      9  C   LIG    1        5.417   8.380  -4.974  0.00  0.00    -0.050 A 
ATOM     10  C   LIG    1        4.894   9.669  -4.779  0.00  0.00    +0.030 A 
ATOM     11  C   LIG    1        3.561   9.828  -4.552  0.00  0.00    +0.020 A 
ATOM     12  C   LIG    1        2.705   8.730  -4.511  0.00  0.00    +0.010 A 
ATOM     13  C   LIG    1        3.177   7.466  -4.696  0.00  0.00    +0.020 A 
ATOM     14  C   LIG    1        4.545   7.264  -4.938  0.00  0.00    -0.040 A 
ENDBRANCH   2   5
BRANCH   2  16
ATOM     15  C   LIG    1        2.239   5.074  -6.494  0.00  0.00    +0.030 C 
ATOM     16  C   LIG    1        3.591   4.379  -6.321  0.00  0.00    +0.280 C 
ENDBRANCH   2  16
ENDBRANCH   1   3
BRANCH   1  17
ATOM     17  O   LIG    1        3.024   2.510  -2.527  0.00  0.00    -0.330 OA
BRANCH  17  18
ATOM     18  C   LIG    1        2.250   1.433  -2.318  0.00  0.00    +0.480 C 
ATOM     19  O   LIG    1        1.657   0.928  -3.242  0.00  0.00    -0.490 OA
BRANCH  18  20
ATOM     20  C   LIG    1        2.122   0.854  -0.933  0.00  0.00    -0.010 C 
ATOM     21  C   LIG    1        1.475   1.886   0.013  0.00  0.00    +0.060 C 
ATOM     22  C   LIG    1       -0.028   1.513   0.011  0.00  0.00    +0.020 C 
ATOM     23  C   LIG    1        0.003  -0.035  -0.025  0.00  0.00    +0.020 C 
ATOM     24  C   LIG    1        1.186  -0.368  -0.957  0.00  0.00    +0.050 C 
BRANCH  20  25
ATOM     25  C   LIG    1        3.478   0.455  -0.412  0.00  0.00    -0.070 A 
ATOM     26  C   LIG    1        4.579   0.494  -1.248  0.00  0.00    +0.020 A 
ATOM     27  C   LIG    1        5.824   0.133  -0.769  0.00  0.00    +0.040 A 
ATOM     28  C   LIG    1        5.967  -0.278   0.544  0.00  0.00    -0.030 A 
ATOM     29  C   LIG    1        4.865  -0.322   1.379  0.00  0.00    +0.030 A 
ATOM     30 CL   LIG    1        7.530  -0.737   1.144  0.00  0.00    -0.070 Cl
ATOM     31  C   LIG    1        3.621   0.044   0.900  0.00  0.00    +0.050 A 
ENDBRANCH  20  25
ENDBRANCH  18  20
ENDBRANCH  17  18
ENDBRANCH   1  17
TORSDOF 7
