REMARK  Name = ZINCpk00000y6xLO.1
REMARK                            x       y       z     vdW  Elec       q    Type
REMARK                         _______ _______ _______ _____ _____    ______ ____
ROOT
ATOM      1  C   LIG    1       -0.481   1.275  -2.661  0.00  0.00    +0.550 C 
ATOM      2  N   LIG    1       -1.138   1.230  -1.485  0.00  0.00    -0.610 N 
ATOM      3  C   LIG    1       -0.689   0.520  -0.279  0.00  0.00    +0.250 C 
ATOM      4  C   LIG    1       -1.739   0.771   0.823  0.00  0.00    +0.030 C 
ATOM      5  C   LIG    1       -2.439   2.072   0.343  0.00  0.00    +0.210 C 
ATOM      6  C   LIG    1       -2.427   1.885  -1.195  0.00  0.00    +0.320 C 
ATOM      7  O   LIG    1       -0.994   1.808  -3.622  0.00  0.00    -0.530 OA
ENDROOT
BRANCH   5   8
ATOM      8  C   LIG    1       -3.850   2.152   0.866  0.00  0.00    -0.040 A 
ATOM      9  C   LIG    1       -4.228   2.401   2.141  0.00  0.00    +0.170 A 
ATOM     10  N   LIG    1       -5.581   2.381   2.144  0.00  0.00    -0.390 N 
ATOM     11  H   LIG    1       -6.150   2.529   2.916  0.00  0.00    +0.450 HD
ATOM     12  N   LIG    1       -5.984   2.127   0.948  0.00  0.00    -0.070 NA
ATOM     13  N   LIG    1       -4.976   1.985   0.162  0.00  0.00    -0.250 NA
ENDBRANCH   5   8
BRANCH   1  15
ATOM     14  C   LIG    1        1.875   1.445  -1.907  0.00  0.00    +0.060 C 
ATOM     15  C   LIG    1        0.891   0.664  -2.781  0.00  0.00    -0.070 C 
ATOM     16  C   LIG    1        0.843  -0.793  -2.318  0.00  0.00    +0.060 C 
BRANCH  15  17
ATOM     17  C   LIG    1        1.349   0.721  -4.240  0.00  0.00    +0.210 C 
BRANCH  17  18
ATOM     18  O   LIG    1        2.650   0.142  -4.354  0.00  0.00    -0.380 OA
BRANCH  18  19
ATOM     19  C   LIG    1        3.173   0.145  -5.684  0.00  0.00    +0.220 C 
BRANCH  19  20
ATOM     20  C   LIG    1        4.542  -0.486  -5.687  0.00  0.00    -0.090 A 
ATOM     21  C   LIG    1        5.665   0.298  -5.497  0.00  0.00    +0.020 A 
ATOM     22  C   LIG    1        6.920  -0.282  -5.495  0.00  0.00    +0.000 A 
ATOM     23  C   LIG    1        7.053  -1.643  -5.693  0.00  0.00    +0.010 A 
ATOM     24  C   LIG    1        5.930  -2.426  -5.888  0.00  0.00    +0.000 A 
ATOM     25  C   LIG    1        4.675  -1.847  -5.885  0.00  0.00    +0.020 A 
ENDBRANCH  19  20
ENDBRANCH  18  19
ENDBRANCH  17  18
ENDBRANCH  15  17
ENDBRANCH   1  15
BRANCH   5  26
ATOM     26  O   LIG    1       -1.688   3.227   0.724  0.00  0.00    -0.530 OA
ATOM     27  H   LIG    1       -1.667   3.385   1.678  0.00  0.00    +0.380 HD
ENDBRANCH   5  26
TORSDOF 7
