REMARK  Name = ZINCpk00000y6xLo.0
REMARK                            x       y       z     vdW  Elec       q    Type
REMARK                         _______ _______ _______ _____ _____    ______ ____
ROOT
ATOM      1  O   LIG    1       -3.365  -0.907   1.623  0.00  0.00    -0.570 OA
ATOM      2  C   LIG    1       -3.796  -1.276   0.548  0.00  0.00    +0.720 C 
ATOM      3  N   LIG    1       -4.308  -0.378  -0.318  0.00  0.00    -0.630 N 
ATOM      4  C   LIG    1       -5.031  -0.699  -1.561  0.00  0.00    +0.240 C 
ATOM      5  C   LIG    1       -5.911   0.545  -1.841  0.00  0.00    +0.040 C 
ATOM      6  C   LIG    1       -4.976   1.697  -1.385  0.00  0.00    +0.040 C 
ATOM      7  C   LIG    1       -4.236   1.084  -0.177  0.00  0.00    +0.260 C 
ATOM      8  N   LIG    1       -3.763  -2.583   0.221  0.00  0.00    -0.740 N 
ATOM      9  H   LIG    1       -4.107  -2.877  -0.637  0.00  0.00    +0.400 HD
ENDROOT
BRANCH   7  10
ATOM     10  C   LIG    1       -2.774   1.536  -0.179  0.00  0.00    -0.040 C 
ATOM     11  C   LIG    1       -2.007   0.790   0.916  0.00  0.00    +0.250 C 
ATOM     12  O   LIG    1       -0.656   1.254   0.950  0.00  0.00    -0.390 OA
ATOM     13  C   LIG    1       -0.524   2.646   1.247  0.00  0.00    +0.200 C 
ATOM     14  C   LIG    1       -1.232   3.466   0.166  0.00  0.00    -0.030 C 
ATOM     15  C   LIG    1       -2.702   3.041   0.093  0.00  0.00    +0.170 C 
BRANCH  15  16
ATOM     16  O   LIG    1       -3.346   3.334   1.335  0.00  0.00    -0.560 OA
ATOM     17  H   LIG    1       -3.419   4.279   1.527  0.00  0.00    +0.380 HD
ENDBRANCH  15  16
ENDBRANCH   7  10
BRANCH   8  18
ATOM     18  C   LIG    1       -3.207  -3.559   1.161  0.00  0.00    +0.280 C 
BRANCH  18  19
ATOM     19  C   LIG    1       -3.289  -4.959   0.550  0.00  0.00    +0.020 C 
BRANCH  19  20
ATOM     20  C   LIG    1       -2.708  -5.979   1.533  0.00  0.00    +0.270 C 
BRANCH  20  21
ATOM     21  N   LIG    1       -2.786  -7.320   0.948  0.00  0.00    -0.730 N 
ATOM     22  H   LIG    1       -3.166  -7.442   0.064  0.00  0.00    +0.400 HD
BRANCH  21  23
ATOM     23  C   LIG    1       -2.316  -8.417   1.660  0.00  0.00    +0.400 A 
ATOM     24  C   LIG    1       -1.767  -8.234   2.925  0.00  0.00    -0.110 A 
ATOM     25  C   LIG    1       -1.307  -9.336   3.624  0.00  0.00    +0.100 A 
ATOM     26  C   LIG    1       -1.403 -10.586   3.028  0.00  0.00    -0.100 A 
ATOM     27  C   LIG    1       -1.954 -10.694   1.767  0.00  0.00    +0.310 A 
ATOM     28  N   LIG    1       -2.389  -9.627   1.125  0.00  0.00    -0.550 NA
ENDBRANCH  21  23
ENDBRANCH  20  21
ENDBRANCH  19  20
ENDBRANCH  18  19
ENDBRANCH   8  18
TORSDOF 7
