REMARK  Name = ZINCrH000004oTaT.0
REMARK                            x       y       z     vdW  Elec       q    Type
REMARK                         _______ _______ _______ _____ _____    ______ ____
ROOT
ATOM      1  C   LIG    1        2.946   0.492   3.709  0.00  0.00    +0.040 C 
ENDROOT
BRANCH   1   2
ATOM      2  C   LIG    1        3.710  -0.010   4.907  0.00  0.00    +0.520 C 
ATOM      3  N   LIG    1        4.811  -0.768   4.734  0.00  0.00    -0.730 N 
ATOM      4  H   LIG    1        5.111  -0.991   3.839  0.00  0.00    +0.400 HD
ATOM      5  O   LIG    1        3.335   0.268   6.026  0.00  0.00    -0.530 OA
BRANCH   3   6
ATOM      6  C   LIG    1        5.554  -1.256   5.899  0.00  0.00    +0.340 C 
BRANCH   6   7
ATOM      7  C   LIG    1        6.733  -2.074   5.436  0.00  0.00    -0.110 A 
ATOM      8  C   LIG    1        6.721  -3.392   5.424  0.00  0.00    +0.000 A 
ATOM      9  S   LIG    1        8.238  -4.039   4.829  0.00  0.00    +0.100 S 
ATOM     10  C   LIG    1        8.913  -2.431   4.600  0.00  0.00    -0.140 A 
ATOM     11  C   LIG    1       10.167  -2.030   4.129  0.00  0.00    +0.050 A 
ATOM     12  C   LIG    1       10.474  -0.693   4.034  0.00  0.00    +0.030 A 
ATOM     13  C   LIG    1        9.541   0.265   4.405  0.00  0.00    +0.020 A 
ATOM     14  C   LIG    1        8.315  -0.103   4.867  0.00  0.00    +0.050 A 
ATOM     15  C   LIG    1        7.972  -1.468   4.975  0.00  0.00    -0.070 A 
ENDBRANCH   6   7
ENDBRANCH   3   6
ENDBRANCH   1   2
BRANCH   1  16
ATOM     16  C   LIG    1        1.749   1.321   4.179  0.00  0.00    +0.320 C 
BRANCH  16  26
ATOM     17  C   LIG    1       -0.013   1.086   0.008  0.00  0.00    +0.060 C 
ATOM     18  C   LIG    1       -0.729   1.579   1.267  0.00  0.00    +0.230 C 
ATOM     19  O   LIG    1       -0.749   3.009   1.273  0.00  0.00    -0.300 OA
ATOM     20  C   LIG    1        0.424   3.636   1.550  0.00  0.00    +0.080 A 
ATOM     21  C   LIG    1        0.729   4.854   0.967  0.00  0.00    +0.030 A 
ATOM     22  C   LIG    1        1.929   5.477   1.260  0.00  0.00    +0.030 A 
ATOM     23  C   LIG    1        2.825   4.888   2.133  0.00  0.00    +0.020 A 
ATOM     24  C   LIG    1        2.527   3.671   2.720  0.00  0.00    +0.000 A 
ATOM     25  C   LIG    1        1.328   3.043   2.431  0.00  0.00    +0.090 A 
ATOM     26  N   LIG    1        1.006   1.809   3.015  0.00  0.00    -0.550 N 
ATOM     27  C   LIG    1       -0.000   1.078   2.488  0.00  0.00    +0.490 C 
ATOM     28  O   LIG    1       -0.316   0.022   2.994  0.00  0.00    -0.500 OA
ENDBRANCH  16  26
ENDBRANCH   1  16
TORSDOF 5
