REMARK  Name = ZINCvU0000000HEH.0
REMARK                            x       y       z     vdW  Elec       q    Type
REMARK                         _______ _______ _______ _____ _____    ______ ____
ROOT
ATOM      1  C   LIG    1       -2.277  -2.844   0.322  0.00  0.00    +0.160 C 
ATOM      2  C   LIG    1       -1.122  -2.152   0.213  0.00  0.00    -0.110 C 
ENDROOT
BRANCH   1   8
ATOM      3  C   LIG    1       -3.447  -5.033   0.544  0.00  0.00    +0.160 A 
ATOM      4  C   LIG    1       -3.407  -6.415   0.636  0.00  0.00    -0.070 A 
ATOM      5  C   LIG    1       -2.195  -7.076   0.619  0.00  0.00    +0.070 A 
ATOM      6  C   LIG    1       -1.010  -6.367   0.507  0.00  0.00    -0.030 A 
ATOM      7  C   LIG    1       -1.028  -4.993   0.410  0.00  0.00    +0.080 A 
ATOM      8  C   LIG    1       -2.249  -4.309   0.425  0.00  0.00    -0.120 A 
BRANCH   3   9
ATOM      9  O   LIG    1       -4.637  -4.381   0.566  0.00  0.00    -0.310 OA
BRANCH   9  10
ATOM     10  C   LIG    1       -5.813  -5.184   0.690  0.00  0.00    +0.320 C 
BRANCH  10  14
ATOM     11  C   LIG    1      -10.682  -4.247   0.901  0.00  0.00    +0.180 C 
ATOM     12  C   LIG    1       -9.218  -3.904   0.793  0.00  0.00    +0.050 A 
ATOM     13  N   LIG    1       -8.256  -4.764   0.799  0.00  0.00    -0.470 NA
ATOM     14  C   LIG    1       -7.029  -4.294   0.695  0.00  0.00    +0.060 A 
ATOM     15  C   LIG    1       -6.952  -2.963   0.601  0.00  0.00    -0.050 A 
ATOM     16  S   LIG    1       -8.592  -2.320   0.644  0.00  0.00    +0.140 S 
ENDBRANCH  10  14
ENDBRANCH   9  10
ENDBRANCH   3   9
ENDBRANCH   1   8
BRANCH   2  17
ATOM     17  C   LIG    1       -1.150  -0.694   0.111  0.00  0.00    +0.550 C 
ATOM     18  N   LIG    1        0.002  -0.004   0.002  0.00  0.00    -0.660 N 
ATOM     19  H   LIG    1        0.845  -0.477  -0.077  0.00  0.00    +0.420 HD
ATOM     20  O   LIG    1       -2.215  -0.103   0.125  0.00  0.00    -0.530 OA
BRANCH  18  21
ATOM     21  C   LIG    1       -0.018   1.394   0.003  0.00  0.00    +0.040 A 
ATOM     22  C   LIG    1       -1.066   2.093  -0.592  0.00  0.00    +0.340 A 
ATOM     23  N   LIG    1       -1.054   3.414  -0.567  0.00  0.00    -0.490 NA
ATOM     24  C   LIG    1       -0.055   4.073   0.004  0.00  0.00    +0.340 A 
ATOM     25  N   LIG    1        0.962   3.441   0.575  0.00  0.00    -0.490 NA
ATOM     26  C   LIG    1        1.014   2.122   0.593  0.00  0.00    +0.300 A 
BRANCH  24  27
ATOM     27  C   LIG    1       -0.076   5.556   0.005  0.00  0.00    -0.050 A 
ATOM     28  C   LIG    1        0.960   6.270   0.605  0.00  0.00    +0.070 A 
ATOM     29  C   LIG    1        0.938   7.649   0.598  0.00  0.00    +0.000 A 
ATOM     30  C   LIG    1       -0.115   8.324   0.007  0.00  0.00    +0.030 A 
ATOM     31  C   LIG    1       -1.149   7.621  -0.585  0.00  0.00    +0.000 A 
ATOM     32  C   LIG    1       -1.135   6.241  -0.588  0.00  0.00    +0.070 A 
ENDBRANCH  24  27
ENDBRANCH  18  21
ENDBRANCH   2  17
TORSDOF 7
