REMARK  Name = ZINCpe00000VVGCm.0
REMARK                            x       y       z     vdW  Elec       q    Type
REMARK                         _______ _______ _______ _____ _____    ______ ____
ROOT
ATOM      1  N   LIG    1        0.002  -0.004   0.002  0.00  0.00    -0.910 N 
ATOM      2  C   LIG    1       -0.017   1.399   0.010  0.00  0.00    +0.140 A 
ATOM      3  C   LIG    1       -1.127   2.242   0.030  0.00  0.00    +0.020 A 
ATOM      4  C   LIG    1       -0.971   3.623   0.031  0.00  0.00    +0.040 A 
ATOM      5  C   LIG    1        0.254   4.221   0.023  0.00  0.00    +0.030 A 
ATOM      6  C   LIG    1        1.403   3.412   0.007  0.00  0.00    -0.030 A 
ATOM      7  C   LIG    1        2.709   3.930  -0.002  0.00  0.00    +0.090 A 
ATOM      8  C   LIG    1        3.774   3.078  -0.016  0.00  0.00    +0.000 A 
ATOM      9  C   LIG    1        3.596   1.689  -0.023  0.00  0.00    +0.190 A 
ATOM     10  C   LIG    1        2.352   1.172  -0.014  0.00  0.00    -0.640 A 
ATOM     11  C   LIG    1        1.235   2.012   0.001  0.00  0.00    -0.070 A 
ATOM     12  S   LIG    1        1.620  -0.439  -0.015  0.00  0.00    +2.670 S 
ATOM     13  O   LIG    1        1.892  -1.034  -1.277  0.00  0.00    -0.920 OA
ATOM     14  O   LIG    1        1.915  -1.047   1.235  0.00  0.00    -0.930 OA
ENDROOT
BRANCH   1  15
ATOM     15  C   LIG    1       -1.155  -0.903   0.007  0.00  0.00    +0.390 C 
BRANCH  15  21
ATOM     16  N   LIG    1       -4.196  -2.878  -3.149  0.00  0.00    -0.730 N 
ATOM     17  H   LIG    1       -4.648  -3.319  -2.413  0.00  0.00    +0.400 HD
ATOM     18  C   LIG    1       -3.135  -2.083  -2.909  0.00  0.00    +0.690 C 
ATOM     19  N   LIG    1       -2.701  -1.901  -1.645  0.00  0.00    -0.690 N 
ATOM     20  H   LIG    1       -3.153  -2.343  -0.909  0.00  0.00    +0.410 HD
ATOM     21  C   LIG    1       -1.639  -1.106  -1.405  0.00  0.00    +0.490 C 
ATOM     22  O   LIG    1       -1.075  -0.554  -2.325  0.00  0.00    -0.430 OA
ATOM     23  O   LIG    1       -2.568  -1.530  -3.831  0.00  0.00    -0.530 OA
BRANCH  16  24
ATOM     24  C   LIG    1       -4.667  -3.075  -4.522  0.00  0.00    +0.310 C 
BRANCH  24  25
ATOM     25  C   LIG    1       -5.875  -4.014  -4.516  0.00  0.00    +0.180 C 
BRANCH  25  27
ATOM     26  C   LIG    1       -8.146  -4.187  -3.768  0.00  0.00    +0.200 C 
ATOM     27  O   LIG    1       -6.961  -3.389  -3.830  0.00  0.00    -0.390 OA
ENDBRANCH  25  27
ENDBRANCH  24  25
ENDBRANCH  16  24
ENDBRANCH  15  21
ENDBRANCH   1  15
TORSDOF 5
