REMARK  Name = ZINCtV00001bB3lb.0
REMARK                            x       y       z     vdW  Elec       q    Type
REMARK                         _______ _______ _______ _____ _____    ______ ____
ROOT
ATOM      1  C   LIG    1       -2.408   0.362  -3.569  0.00  0.00    -0.130 A 
ATOM      2  C   LIG    1       -1.877   1.610  -3.838  0.00  0.00    +0.070 A 
ATOM      3  C   LIG    1       -1.903   2.110  -5.126  0.00  0.00    -0.060 A 
ATOM      4  C   LIG    1       -2.473   1.365  -6.148  0.00  0.00    +0.140 A 
ATOM      5  C   LIG    1       -3.010   0.115  -5.875  0.00  0.00    +0.000 A 
ATOM      6  C   LIG    1       -2.977  -0.384  -4.587  0.00  0.00    +0.010 A 
ATOM      7 CL   LIG    1       -3.650  -1.947  -4.244  0.00  0.00    -0.020 Cl
ENDROOT
BRANCH   1   8
ATOM      8  C   LIG    1       -2.373  -0.184  -2.165  0.00  0.00    +0.350 C 
BRANCH   8   9
ATOM      9  N   LIG    1       -1.167  -0.997  -1.988  0.00  0.00    -0.600 N 
ATOM     10  C   LIG    1       -1.236  -2.338  -2.108  0.00  0.00    +0.550 C 
ATOM     11  O   LIG    1       -2.281  -2.867  -2.433  0.00  0.00    -0.520 OA
BRANCH  10  12
ATOM     12  C   LIG    1       -0.045  -3.162  -1.846  0.00  0.00    -0.090 C 
ATOM     13  C   LIG    1       -0.103  -4.481  -1.998  0.00  0.00    +0.120 C 
ENDBRANCH  10  12
BRANCH   9  14
ATOM     14  C   LIG    1        0.112  -0.354  -1.679  0.00  0.00    +0.370 C 
BRANCH  14  16
ATOM     15  C   LIG    1        1.933  -1.123  -3.439  0.00  0.00    +0.050 C 
ATOM     16  C   LIG    1        1.125  -0.781  -2.658  0.00  0.00    -0.210 C 
ENDBRANCH  14  16
BRANCH  14  17
ATOM     17  C   LIG    1        0.560  -0.757  -0.273  0.00  0.00    +0.020 C 
BRANCH  17  18
ATOM     18  C   LIG    1       -0.424  -0.196   0.756  0.00  0.00    -0.030 C 
ATOM     19  C   LIG    1       -0.048  -0.702   2.150  0.00  0.00    +0.020 C 
ATOM     20  C   LIG    1       -0.367   1.333   0.736  0.00  0.00    +0.020 C 
ENDBRANCH  17  18
ENDBRANCH  14  17
ENDBRANCH   9  14
ENDBRANCH   8   9
ENDBRANCH   1   8
BRANCH   4  21
ATOM     21  O   LIG    1       -2.504   1.858  -7.414  0.00  0.00    -0.250 OA
BRANCH  21  22
ATOM     22  C   LIG    1       -1.867   3.034  -7.656  0.00  0.00    +0.080 A 
ATOM     23  C   LIG    1       -2.601   4.200  -7.818  0.00  0.00    +0.040 A 
ATOM     24  C   LIG    1       -1.952   5.396  -8.058  0.00  0.00    +0.020 A 
ATOM     25  C   LIG    1       -0.571   5.429  -8.151  0.00  0.00    +0.100 A 
ATOM     26  C   LIG    1        0.163   4.264  -7.995  0.00  0.00    -0.100 A 
ATOM     27  C   LIG    1        1.666   4.302  -8.095  0.00  0.00    +0.110 C 
ATOM     28  F   LIG    1        0.062   6.598  -8.392  0.00  0.00    -0.130 F 
ATOM     29  C   LIG    1       -0.483   3.068  -7.749  0.00  0.00    +0.030 A 
ENDBRANCH  21  22
ENDBRANCH   4  21
TORSDOF 9
