REMARK  Name = ZINCpk00000F9jxj.0
REMARK                            x       y       z     vdW  Elec       q    Type
REMARK                         _______ _______ _______ _____ _____    ______ ____
ROOT
ATOM      1  C   LIG    1        1.211  -0.679  -0.011  0.00  0.00    +0.150 A 
ATOM      2  C   LIG    1        0.002  -0.004   0.002  0.00  0.00    -0.080 A 
ATOM      3  C   LIG    1       -0.017   1.379   0.010  0.00  0.00    +0.050 A 
ATOM      4  C   LIG    1        1.168   2.086   0.002  0.00  0.00    -0.010 A 
ATOM      5  C   LIG    1        2.391   1.417  -0.014  0.00  0.00    +0.100 A 
ATOM      6  N   LIG    1        3.559   2.188  -0.029  0.00  0.00    -0.490 N 
ATOM      7  C   LIG    1        3.760   2.814  -1.343  0.00  0.00    +0.230 C 
ATOM      8  C   LIG    1        4.739   1.413   0.369  0.00  0.00    +0.190 C 
ATOM      9  C   LIG    1        4.755   0.111  -0.441  0.00  0.00    +0.180 C 
ATOM     10  N   LIG    1        3.609  -0.704  -0.025  0.00  0.00    -0.470 N 
ATOM     11  C   LIG    1        2.414   0.030  -0.018  0.00  0.00    +0.030 A 
ENDROOT
BRANCH   1  13
ATOM     12  C   LIG    1       -0.039  -2.703  -0.008  0.00  0.00    +0.230 C 
ATOM     13  O   LIG    1        1.226  -2.039  -0.016  0.00  0.00    -0.300 OA
ENDBRANCH   1  13
BRANCH  10  14
ATOM     14  C   LIG    1        3.852  -1.325   1.284  0.00  0.00    +0.310 C 
BRANCH  14  15
ATOM     15  C   LIG    1        5.000  -2.296   1.174  0.00  0.00    -0.000 A 
ATOM     16  C   LIG    1        6.302  -2.045   1.448  0.00  0.00    +0.140 A 
ATOM     17  N   LIG    1        6.967  -3.207   1.211  0.00  0.00    -0.200 N 
ATOM     18  N   LIG    1        6.112  -4.084   0.814  0.00  0.00    -0.090 NA
ATOM     19  N   LIG    1        4.933  -3.572   0.781  0.00  0.00    -0.240 NA
BRANCH  17  20
ATOM     20  C   LIG    1        8.351  -3.414   1.367  0.00  0.00    -0.040 A 
ATOM     21  C   LIG    1        9.033  -4.542   1.042  0.00  0.00    +0.290 A 
ATOM     22  N   LIG    1       10.334  -4.336   1.342  0.00  0.00    -0.360 N 
ATOM     23  N   LIG    1       10.456  -3.047   1.876  0.00  0.00    -0.270 NA
ATOM     24  C   LIG    1       11.425  -5.294   1.149  0.00  0.00    +0.390 C 
ATOM     25  C   LIG    1        9.270  -2.494   1.892  0.00  0.00    +0.270 A 
ENDBRANCH  17  20
ENDBRANCH  14  15
ENDBRANCH  10  14
TORSDOF 4
