REMARK  Name = ZINCpe00000gN3po.1
REMARK                            x       y       z     vdW  Elec       q    Type
REMARK                         _______ _______ _______ _____ _____    ______ ____
ROOT
ATOM      1  C   LIG    1       -2.079  -6.815  -0.734  0.00  0.00    +0.300 C 
ATOM      2  N   LIG    1       -3.110  -7.825  -0.534  0.00  0.00    -0.710 N 
ATOM      3  H   LIG    1       -3.144  -8.569  -1.155  0.00  0.00    +0.410 HD
ATOM      4  C   LIG    1       -4.009  -7.791   0.450  0.00  0.00    +0.520 C 
ATOM      5  C   LIG    1       -4.101  -6.676   1.451  0.00  0.00    +0.090 C 
ATOM      6  C   LIG    1       -2.801  -5.867   1.450  0.00  0.00    +0.040 C 
ATOM      7  O   LIG    1       -4.795  -8.711   0.542  0.00  0.00    -0.540 OA
ATOM      8  C   LIG    1       -2.445  -5.524  -0.002  0.00  0.00    +0.250 C 
ENDROOT
BRANCH   1  14
ATOM      9  C   LIG    1        0.544  -6.229  -2.279  0.00  0.00    +0.350 C 
ATOM     10  N   LIG    1       -0.796  -6.277  -2.868  0.00  0.00    -0.360 N 
ATOM     11  N   LIG    1       -1.111  -6.069  -4.217  0.00  0.00    -0.280 NA
ATOM     12  C   LIG    1       -2.405  -6.194  -4.359  0.00  0.00    +0.240 A 
ATOM     13  C   LIG    1       -2.955  -6.491  -3.107  0.00  0.00    -0.090 A 
ATOM     14  C   LIG    1       -1.945  -6.531  -2.208  0.00  0.00    +0.050 A 
ENDBRANCH   1  14
BRANCH   8  15
ATOM     15  N   LIG    1       -1.304  -4.606  -0.024  0.00  0.00    -0.720 N 
ATOM     16  H   LIG    1       -0.400  -4.956  -0.057  0.00  0.00    +0.400 HD
ATOM     17  C   LIG    1       -1.510  -3.274   0.002  0.00  0.00    +0.580 C 
ATOM     18  O   LIG    1       -2.643  -2.835   0.043  0.00  0.00    -0.520 OA
BRANCH  17  19
ATOM     19  C   LIG    1       -0.360  -2.349  -0.021  0.00  0.00    -0.160 A 
ATOM     20  C   LIG    1       -0.565  -1.002   0.004  0.00  0.00    +0.320 A 
ATOM     21  N   LIG    1        0.492  -0.141  -0.017  0.00  0.00    -0.380 N 
ATOM     22  C   LIG    1        0.572   1.216  -0.001  0.00  0.00    +0.380 A 
ATOM     23  N   LIG    1        1.829   1.574  -0.035  0.00  0.00    -0.450 NA
ATOM     24  C   LIG    1        2.609   0.492  -0.074  0.00  0.00    +0.180 A 
ATOM     25  C   LIG    1        1.788  -0.616  -0.064  0.00  0.00    -0.000 A 
ATOM     26  C   LIG    1        2.045  -2.004  -0.091  0.00  0.00    +0.090 A 
ATOM     27  C   LIG    1        1.006  -2.874  -0.071  0.00  0.00    +0.030 A 
ENDBRANCH  17  19
ENDBRANCH   8  15
TORSDOF 3
