REMARK  Name = ZINCrH000004oYyT.0
REMARK                            x       y       z     vdW  Elec       q    Type
REMARK                         _______ _______ _______ _____ _____    ______ ____
ROOT
ATOM      1  C   LIG    1       -0.014   1.211   0.009  0.00  0.00    +0.560 C 
ATOM      2  N   LIG    1        1.143   1.901   0.001  0.00  0.00    -0.720 N 
ATOM      3  H   LIG    1        1.130   2.871   0.007  0.00  0.00    +0.400 HD
ATOM      4  O   LIG    1        0.002  -0.004   0.002  0.00  0.00    -0.530 OA
ENDROOT
BRANCH   1   8
ATOM      5  C   LIG    1       -3.721   3.285   0.038  0.00  0.00    -0.050 A 
ATOM      6  C   LIG    1       -3.706   1.901   0.030  0.00  0.00    +0.030 A 
ATOM      7  C   LIG    1       -2.506   1.222   0.021  0.00  0.00    +0.080 A 
ATOM      8  C   LIG    1       -1.305   1.933   0.019  0.00  0.00    -0.130 A 
ATOM      9  C   LIG    1       -1.327   3.329   0.032  0.00  0.00    +0.050 A 
ATOM     10  C   LIG    1       -2.534   3.996   0.036  0.00  0.00    +0.020 A 
BRANCH   5  12
ATOM     11  C   LIG    1       -5.665   4.124  -1.343  0.00  0.00    +0.070 C 
ATOM     12  C   LIG    1       -5.037   4.021   0.048  0.00  0.00    +0.120 C 
ATOM     13  C   LIG    1       -4.979   5.360   0.792  0.00  0.00    +0.010 C 
ATOM     14  C   LIG    1       -6.372   4.902   1.243  0.00  0.00    +0.200 C 
ATOM     15  O   LIG    1       -5.946   3.547   1.050  0.00  0.00    -0.350 OA
ENDBRANCH   5  12
ENDBRANCH   1   8
BRANCH   2  16
ATOM     16  C   LIG    1        2.422   1.186  -0.015  0.00  0.00    +0.360 C 
BRANCH  16  17
ATOM     17  C   LIG    1        3.554   2.181  -0.020  0.00  0.00    +0.050 A 
ATOM     18  C   LIG    1        4.149   2.555   1.172  0.00  0.00    +0.260 A 
ATOM     19  N   LIG    1        5.145   3.422   1.172  0.00  0.00    -0.430 NA
ATOM     20  C   LIG    1        5.569   3.944   0.026  0.00  0.00    +0.130 A 
ATOM     21  C   LIG    1        4.963   3.568  -1.173  0.00  0.00    +0.240 A 
ATOM     22  N   LIG    1        3.972   2.697  -1.163  0.00  0.00    -0.410 NA
BRANCH  20  23
ATOM     23  C   LIG    1        6.684   4.923   0.021  0.00  0.00    -0.060 A 
ATOM     24  C   LIG    1        7.133   5.466  -1.181  0.00  0.00    +0.030 A 
ATOM     25  C   LIG    1        8.167   6.380  -1.179  0.00  0.00    +0.010 A 
ATOM     26  C   LIG    1        8.765   6.749   0.013  0.00  0.00    +0.030 A 
ATOM     27  C   LIG    1        8.326   6.209   1.209  0.00  0.00    +0.010 A 
ATOM     28  C   LIG    1        7.289   5.299   1.219  0.00  0.00    +0.070 A 
ENDBRANCH  20  23
ENDBRANCH  16  17
ENDBRANCH   2  16
TORSDOF 5
