REMARK  Name = ZINC9l0000002ohv.0
REMARK                            x       y       z     vdW  Elec       q    Type
REMARK                         _______ _______ _______ _____ _____    ______ ____
ROOT
ATOM      1  C   LIG    1       -0.750   3.109   1.275  0.00  0.00    -0.090 C 
ATOM      2  C   LIG    1       -1.490   3.616   0.036  0.00  0.00    +0.010 C 
ENDROOT
BRANCH   1   3
ATOM      3  C   LIG    1       -1.455   3.595   2.515  0.00  0.00    +0.500 C 
ATOM      4  O   LIG    1       -2.454   3.020   2.913  0.00  0.00    -0.700 OA
ATOM      5  O   LIG    1       -1.027   4.563   3.120  0.00  0.00    -0.710 OA
ENDBRANCH   1   3
BRANCH   1   6
ATOM      6  C   LIG    1       -0.729   1.579   1.267  0.00  0.00    +0.030 C 
ATOM      7  C   LIG    1       -0.013   1.086   0.008  0.00  0.00    +0.010 C 
BRANCH   6   9
ATOM      8  C   LIG    1       -0.618   0.314   3.352  0.00  0.00    -0.010 C 
ATOM      9  C   LIG    1        0.000   1.080   2.488  0.00  0.00    -0.030 C 
ENDBRANCH   6   9
ENDBRANCH   1   6
TORSDOF 3
