REMARK  Name = ZINC650000002ryz.0
REMARK                            x       y       z     vdW  Elec       q    Type
REMARK                         _______ _______ _______ _____ _____    ______ ____
ROOT
ATOM      1  C   LIG    1        0.041   0.972   2.456  0.00  0.00    +0.120 C 
ATOM      2  C   LIG    1       -0.699   1.479   1.216  0.00  0.00    +0.180 C 
ENDROOT
BRANCH   2   3
ATOM      3  N   LIG    1       -0.012   1.005   0.008  0.00  0.00    -0.630 N 
ATOM      4  H   LIG    1       -0.500   1.339  -0.810  0.00  0.00    +0.440 HD
ATOM      5  H   LIG    1        0.935   1.354   0.000  0.00  0.00    +0.440 HD
ATOM      6  H   LIG    1        0.002  -0.004   0.002  0.00  0.00    +0.460 HD
ENDBRANCH   2   3
BRANCH   2   7
ATOM      7  C   LIG    1       -0.720   3.008   1.225  0.00  0.00    +0.180 C 
ATOM      8  C   LIG    1       -1.460   3.515  -0.015  0.00  0.00    +0.120 C 
BRANCH   7   9
ATOM      9  N   LIG    1       -1.407   3.482   2.433  0.00  0.00    -0.630 N 
ATOM     10  H   LIG    1       -2.354   3.133   2.440  0.00  0.00    +0.440 HD
ATOM     11  H   LIG    1       -1.421   4.491   2.439  0.00  0.00    +0.460 HD
ATOM     12  H   LIG    1       -0.919   3.148   3.251  0.00  0.00    +0.440 HD
ENDBRANCH   7   9
ENDBRANCH   2   7
TORSDOF 3
