REMARK  Name = ZINC650000002ryz.2
REMARK                            x       y       z     vdW  Elec       q    Type
REMARK                         _______ _______ _______ _____ _____    ______ ____
ROOT
ATOM      1  C   LIG    1        0.011   1.072   2.506  0.00  0.00    +0.120 C 
ATOM      2  C   LIG    1       -0.705   1.566   3.765  0.00  0.00    +0.090 C 
ENDROOT
BRANCH   1   3
ATOM      3  N   LIG    1        0.031  -0.396   2.498  0.00  0.00    -0.630 N 
ATOM      4  H   LIG    1       -0.915  -0.746   2.505  0.00  0.00    +0.430 HD
ATOM      5  H   LIG    1        0.519  -0.731   3.316  0.00  0.00    +0.440 HD
ATOM      6  H   LIG    1        0.503  -0.722   1.668  0.00  0.00    +0.440 HD
ENDBRANCH   1   3
BRANCH   1   8
ATOM      7  C   LIG    1       -0.013   1.086   0.008  0.00  0.00    +0.050 C 
ATOM      8  C   LIG    1       -0.729   1.579   1.267  0.00  0.00    +0.180 C 
BRANCH   8   9
ATOM      9  N   LIG    1       -0.749   3.048   1.275  0.00  0.00    -0.820 NA
ATOM     10  H   LIG    1        0.188   3.422   1.268  0.00  0.00    +0.350 HD
ATOM     11  H   LIG    1       -1.272   3.398   2.063  0.00  0.00    +0.360 HD
ENDBRANCH   8   9
ENDBRANCH   1   8
TORSDOF 3
