REMARK  Name = ZINC650000002ryz.1
REMARK                            x       y       z     vdW  Elec       q    Type
REMARK                         _______ _______ _______ _____ _____    ______ ____
ROOT
ATOM      1  C   LIG    1        2.139   1.122  -1.262  0.00  0.00    +0.090 C 
ATOM      2  C   LIG    1        1.423   1.615  -0.003  0.00  0.00    +0.180 C 
ENDROOT
BRANCH   2   3
ATOM      3  N   LIG    1        2.133   1.129   1.187  0.00  0.00    -0.640 N 
ATOM      4  H   LIG    1        1.661   1.454   2.017  0.00  0.00    +0.440 HD
ATOM      5  H   LIG    1        3.080   1.478   1.180  0.00  0.00    +0.440 HD
ATOM      6  H   LIG    1        2.147   0.120   1.182  0.00  0.00    +0.430 HD
ENDBRANCH   2   3
BRANCH   2   7
ATOM      7  C   LIG    1       -0.013   1.086   0.008  0.00  0.00    +0.130 C 
ATOM      8  C   LIG    1       -0.729   1.579   1.267  0.00  0.00    +0.050 C 
BRANCH   7   9
ATOM      9  N   LIG    1       -0.723   1.572  -1.182  0.00  0.00    -0.840 NA
ATOM     10  H   LIG    1       -1.674   1.236  -1.198  0.00  0.00    +0.370 HD
ATOM     11  H   LIG    1       -0.234   1.314  -2.026  0.00  0.00    +0.350 HD
ENDBRANCH   7   9
ENDBRANCH   2   7
TORSDOF 3
