REMARK  Name = ZINCrH000004oDpj.0
REMARK                            x       y       z     vdW  Elec       q    Type
REMARK                         _______ _______ _______ _____ _____    ______ ____
ROOT
ATOM      1  C   LIG    1        0.876   2.806  -6.509  0.00  0.00    -0.040 A 
ATOM      2  C   LIG    1       -0.311   2.380  -7.075  0.00  0.00    +0.020 A 
ATOM      3  C   LIG    1       -1.017   3.220  -7.916  0.00  0.00    +0.120 A 
ATOM      4  C   LIG    1       -0.531   4.484  -8.198  0.00  0.00    -0.670 A 
ATOM      5  C   LIG    1        0.658   4.908  -7.635  0.00  0.00    +0.120 A 
ATOM      6  C   LIG    1        1.362   4.069  -6.791  0.00  0.00    +0.020 A 
ENDROOT
BRANCH   4   7
ATOM      7  S   LIG    1       -1.428   5.553  -9.273  0.00  0.00    +2.690 S 
ATOM      8  O   LIG    1       -1.031   6.877  -8.944  0.00  0.00    -0.950 OA
ATOM      9  O   LIG    1       -2.780   5.115  -9.237  0.00  0.00    -0.950 OA
BRANCH   7  10
ATOM     10  N   LIG    1       -0.885   5.270 -10.811  0.00  0.00    -1.000 NA
ATOM     11  C   LIG    1        0.241   6.037 -11.360  0.00  0.00    +0.290 C 
ATOM     12  C   LIG    1        1.301   5.051 -11.872  0.00  0.00    +0.010 C 
ATOM     13  C   LIG    1        0.653   4.086 -12.868  0.00  0.00    +0.020 C 
ATOM     14  C   LIG    1       -0.447   3.288 -12.165  0.00  0.00    +0.010 C 
ATOM     15  C   LIG    1       -1.524   4.251 -11.655  0.00  0.00    +0.290 C 
ENDBRANCH   7  10
ENDBRANCH   4   7
BRANCH   1  16
ATOM     16  C   LIG    1        1.643   1.892  -5.589  0.00  0.00    +0.260 C 
BRANCH  16  20
ATOM     17  C   LIG    1        0.169   2.002  -2.317  0.00  0.00    +0.180 A 
ATOM     18  N   LIG    1        1.097   2.908  -2.243  0.00  0.00    -0.380 NA
ATOM     19  O   LIG    1        1.697   2.982  -3.294  0.00  0.00    +0.080 OA
ATOM     20  C   LIG    1        1.187   2.110  -4.169  0.00  0.00    +0.180 A 
ATOM     21  N   LIG    1        0.213   1.481  -3.556  0.00  0.00    -0.470 NA
BRANCH  17  26
ATOM     22  C   LIG    1       -1.250   0.414   2.091  0.00  0.00    +0.030 C 
ATOM     23  C   LIG    1       -0.761   1.596   1.252  0.00  0.00    -0.020 C 
ATOM     24  C   LIG    1       -1.965   2.413   0.737  0.00  0.00    +0.020 C 
ATOM     25  C   LIG    1       -1.544   2.853  -0.688  0.00  0.00    +0.020 C 
ATOM     26  C   LIG    1       -0.786   1.611  -1.219  0.00  0.00    +0.110 C 
ATOM     27  C   LIG    1       -0.013   1.086   0.008  0.00  0.00    +0.030 C 
ENDBRANCH  17  26
ENDBRANCH  16  20
ENDBRANCH   1  16
TORSDOF 5
