REMARK  Name = ZINCqH0000006fa0.0
REMARK                            x       y       z     vdW  Elec       q    Type
REMARK                         _______ _______ _______ _____ _____    ______ ____
ROOT
ATOM      1  C   LIG    1       -1.667   1.247   7.001  0.00  0.00    +0.230 A 
ATOM      2  N   LIG    1       -0.771   0.344   6.690  0.00  0.00    -0.370 NA
ATOM      3  O   LIG    1       -0.539   0.372   5.500  0.00  0.00    +0.090 OA
ATOM      4  C   LIG    1       -1.285   1.322   4.910  0.00  0.00    +0.270 A 
ATOM      5  N   LIG    1       -2.005   1.890   5.865  0.00  0.00    -0.470 NA
ENDROOT
BRANCH   4   6
ATOM      6  C   LIG    1       -1.295   1.667   3.483  0.00  0.00    -0.180 A 
ATOM      7  C   LIG    1       -0.539   1.070   2.522  0.00  0.00    +0.110 A 
ATOM      8  C   LIG    1       -0.737   1.582   1.253  0.00  0.00    -0.160 A 
ATOM      9  C   LIG    1       -1.645   2.584   1.200  0.00  0.00    -0.200 A 
ATOM     10  C   LIG    1       -2.022   3.298  -0.085  0.00  0.00    +0.100 C 
ATOM     11  C   LIG    1       -0.954   2.974  -1.137  0.00  0.00    +0.230 C 
ATOM     12  O   LIG    1       -0.714   1.564  -1.143  0.00  0.00    -0.370 OA
ATOM     13  C   LIG    1       -0.013   1.086   0.008  0.00  0.00    +0.310 C 
ATOM     14  S   LIG    1       -2.285   2.918   2.744  0.00  0.00    +0.300 S 
ENDBRANCH   4   6
BRANCH   1  18
ATOM     15  C   LIG    1       -3.214   2.017  10.889  0.00  0.00    +0.120 A 
ATOM     16  C   LIG    1       -2.262   1.025  10.706  0.00  0.00    -0.040 A 
ATOM     17  C   LIG    1       -1.759   0.772   9.447  0.00  0.00    +0.090 A 
ATOM     18  C   LIG    1       -2.207   1.516   8.357  0.00  0.00    -0.040 A 
ATOM     19  C   LIG    1       -3.159   2.517   8.543  0.00  0.00    +0.090 A 
ATOM     20  C   LIG    1       -3.664   2.762   9.804  0.00  0.00    +0.070 A 
ATOM     21  F   LIG    1       -4.590   3.728   9.985  0.00  0.00    -0.120 F 
BRANCH  15  22
ATOM     22  O   LIG    1       -3.708   2.263  12.131  0.00  0.00    -0.290 OA
BRANCH  22  23
ATOM     23  C   LIG    1       -3.202   1.462  13.201  0.00  0.00    +0.220 C 
BRANCH  23  24
ATOM     24  C   LIG    1       -3.869   1.881  14.512  0.00  0.00    +0.200 C 
BRANCH  24  26
ATOM     25  C   LIG    1       -5.988   1.944  15.631  0.00  0.00    +0.200 C 
ATOM     26  O   LIG    1       -5.267   1.589  14.450  0.00  0.00    -0.390 OA
ENDBRANCH  24  26
ENDBRANCH  23  24
ENDBRANCH  22  23
ENDBRANCH  15  22
ENDBRANCH   1  18
TORSDOF 6
