REMARK  Name = ZINCqH0000006iam.0
REMARK                            x       y       z     vdW  Elec       q    Type
REMARK                         _______ _______ _______ _____ _____    ______ ____
ROOT
ATOM      1  C   LIG    1        1.030   3.512   0.009  0.00  0.00    +0.520 C 
ATOM      2  N   LIG    1        2.088   4.347   0.005  0.00  0.00    -0.670 N 
ATOM      3  H   LIG    1        2.988   3.991   0.070  0.00  0.00    +0.420 HD
ATOM      4  O   LIG    1       -0.097   3.960   0.014  0.00  0.00    -0.490 OA
ENDROOT
BRANCH   2   5
ATOM      5  C   LIG    1        1.887   5.731  -0.091  0.00  0.00    +0.130 A 
ATOM      6  C   LIG    1        2.795   6.517  -0.787  0.00  0.00    +0.040 A 
ATOM      7  C   LIG    1        2.594   7.880  -0.887  0.00  0.00    -0.030 A 
ATOM      8  C   LIG    1        1.491   8.464  -0.282  0.00  0.00    +0.090 A 
ATOM      9  C   LIG    1        0.586   7.680   0.419  0.00  0.00    +0.050 A 
ATOM     10  C   LIG    1        0.783   6.316   0.514  0.00  0.00    +0.070 A 
BRANCH   8  11
ATOM     11  O   LIG    1        1.296   9.807  -0.375  0.00  0.00    -0.310 OA
BRANCH  11  12
ATOM     12  C   LIG    1        2.267  10.553  -1.111  0.00  0.00    +0.600 C 
ATOM     13  F   LIG    1        3.525  10.396  -0.518  0.00  0.00    -0.160 F 
ATOM     14  F   LIG    1        1.916  11.908  -1.107  0.00  0.00    -0.130 F 
ATOM     15  F   LIG    1        2.312  10.088  -2.430  0.00  0.00    -0.160 F 
ENDBRANCH  11  12
ENDBRANCH   8  11
ENDBRANCH   2   5
BRANCH   1  16
ATOM     16  C   LIG    1        1.248   2.021   0.008  0.00  0.00    +0.240 C 
BRANCH  16  17
ATOM     17  O   LIG    1       -0.016   1.355   0.013  0.00  0.00    -0.290 OA
BRANCH  17  21
ATOM     18  C   LIG    1        0.041  -2.771   0.011  0.00  0.00    -0.120 A 
ATOM     19  C   LIG    1       -1.167  -2.097   0.016  0.00  0.00    +0.060 A 
ATOM     20  C   LIG    1       -1.188  -0.716   0.016  0.00  0.00    -0.010 A 
ATOM     21  C   LIG    1        0.003  -0.004   0.012  0.00  0.00    +0.130 A 
ATOM     22  C   LIG    1        1.213  -0.683   0.001  0.00  0.00    -0.080 A 
ATOM     23  C   LIG    1        1.229  -2.064   0.007  0.00  0.00    +0.060 A 
BRANCH  18  24
ATOM     24  C   LIG    1        0.061  -4.277   0.010  0.00  0.00    +0.080 C 
BRANCH  24  25
ATOM     25  C   LIG    1        0.062  -4.787  -1.433  0.00  0.00    +0.170 C 
BRANCH  25  27
ATOM     26  C   LIG    1        0.085  -6.796  -2.739  0.00  0.00    +0.200 C 
ATOM     27  O   LIG    1        0.082  -6.216  -1.433  0.00  0.00    -0.390 OA
ENDBRANCH  25  27
ENDBRANCH  24  25
ENDBRANCH  18  24
ENDBRANCH  17  21
ENDBRANCH  16  17
ENDBRANCH   1  16
TORSDOF 9
