REMARK  Name = ZINCrD00000l08h1.0
REMARK                            x       y       z     vdW  Elec       q    Type
REMARK                         _______ _______ _______ _____ _____    ______ ____
ROOT
ATOM      1  O   LIG    1        0.783   0.536  -2.424  0.00  0.00    -0.490 OA
ATOM      2  C   LIG    1       -0.211   1.220  -2.363  0.00  0.00    +0.460 C 
ENDROOT
BRANCH   2   3
ATOM      3  O   LIG    1       -0.715   1.567  -1.168  0.00  0.00    -0.350 OA
BRANCH   3   4
ATOM      4  C   LIG    1       -0.013   1.086   0.008  0.00  0.00    +0.290 C 
BRANCH   4   5
ATOM      5  C   LIG    1       -0.718   1.572   1.248  0.00  0.00    -0.120 A 
ATOM      6  C   LIG    1       -0.359   2.779   1.818  0.00  0.00    +0.090 A 
ATOM      7  C   LIG    1       -1.008   3.230   2.951  0.00  0.00    -0.050 A 
ATOM      8  C   LIG    1       -2.013   2.464   3.524  0.00  0.00    +0.120 A 
ATOM      9  C   LIG    1       -2.367   1.250   2.954  0.00  0.00    +0.010 A 
ATOM     10  C   LIG    1       -1.720   0.807   1.817  0.00  0.00    +0.090 A 
BRANCH   8  11
ATOM     11  O   LIG    1       -2.648   2.902   4.643  0.00  0.00    -0.310 OA
BRANCH  11  12
ATOM     12  C   LIG    1       -2.231   4.160   5.175  0.00  0.00    +0.600 C 
ATOM     13  F   LIG    1       -0.875   4.097   5.514  0.00  0.00    -0.160 F 
ATOM     14  F   LIG    1       -2.983   4.456   6.317  0.00  0.00    -0.130 F 
ATOM     15  F   LIG    1       -2.426   5.160   4.216  0.00  0.00    -0.160 F 
ENDBRANCH  11  12
ENDBRANCH   8  11
ENDBRANCH   4   5
ENDBRANCH   3   4
ENDBRANCH   2   3
BRANCH   2  16
ATOM     16  C   LIG    1       -0.887   1.682  -3.629  0.00  0.00    +0.360 C 
BRANCH  16  17
ATOM     17  N   LIG    1       -0.150   1.174  -4.789  0.00  0.00    -1.110 NA
ATOM     18  H   LIG    1        0.747   0.822  -4.677  0.00  0.00    +0.430 HD
BRANCH  17  19
ATOM     19  S   LIG    1       -0.848   1.202  -6.290  0.00  0.00    +2.700 S 
ATOM     20  O   LIG    1       -2.147   0.647  -6.138  0.00  0.00    -0.940 OA
ATOM     21  O   LIG    1        0.119   0.682  -7.192  0.00  0.00    -0.940 OA
BRANCH  19  22
ATOM     22  C   LIG    1       -1.078   2.893  -6.727  0.00  0.00    -0.680 A 
ATOM     23  C   LIG    1       -2.256   3.538  -6.399  0.00  0.00    +0.140 A 
ATOM     24  C   LIG    1       -2.435   4.867  -6.738  0.00  0.00    +0.020 A 
ATOM     25  C   LIG    1       -1.440   5.548  -7.414  0.00  0.00    +0.110 A 
ATOM     26  C   LIG    1       -0.263   4.901  -7.747  0.00  0.00    -0.110 A 
ATOM     27 BR   LIG    1        1.098   5.833  -8.671  0.00  0.00    -0.030 Br
ATOM     28  C   LIG    1       -0.083   3.574  -7.403  0.00  0.00    +0.160 A 
ENDBRANCH  19  22
ENDBRANCH  17  19
ENDBRANCH  16  17
ENDBRANCH   2  16
TORSDOF 9
