REMARK  Name = ZINCrH000004rZ9W.1
REMARK                            x       y       z     vdW  Elec       q    Type
REMARK                         _______ _______ _______ _____ _____    ______ ____
ROOT
ATOM      1  C   LIG    1       -1.831   4.660  -0.086  0.00  0.00    +0.590 C 
ATOM      2  N   LIG    1       -1.432   5.947  -0.107  0.00  0.00    -0.520 N 
ATOM      3  H   LIG    1       -0.486   6.162  -0.107  0.00  0.00    +0.430 HD
ATOM      4  O   LIG    1       -3.017   4.390  -0.087  0.00  0.00    -0.500 OA
ENDROOT
BRANCH   1  10
ATOM      5  C   LIG    1       -1.296  -0.770   0.010  0.00  0.00    +0.090 C 
ATOM      6  C   LIG    1        0.002  -0.004   0.002  0.00  0.00    -0.020 A 
ATOM      7  C   LIG    1       -0.017   1.411  -0.023  0.00  0.00    -0.090 A 
ATOM      8  C   LIG    1        1.203   2.098  -0.030  0.00  0.00    -0.110 A 
ATOM      9  S   LIG    1        0.904   3.832  -0.061  0.00  0.00    +0.160 S 
ATOM     10  C   LIG    1       -0.833   3.583  -0.064  0.00  0.00    -0.240 A 
ATOM     11  C   LIG    1        2.405   1.382  -0.013  0.00  0.00    +0.040 A 
ATOM     12  C   LIG    1        2.391   0.008   0.011  0.00  0.00    +0.070 A 
ATOM     13  C   LIG    1       -1.124   2.277  -0.048  0.00  0.00    +0.060 A 
ATOM     14 CL   LIG    1       -2.758   1.691  -0.053  0.00  0.00    +0.000 Cl
ATOM     15  C   LIG    1        1.183  -0.678   0.019  0.00  0.00    +0.020 A 
ENDBRANCH   1  10
BRANCH   2  16
ATOM     16  N   LIG    1       -2.384   6.975  -0.129  0.00  0.00    -0.510 N 
ATOM     17  H   LIG    1       -3.330   6.760  -0.129  0.00  0.00    +0.430 HD
ATOM     18  C   LIG    1       -1.986   8.262  -0.149  0.00  0.00    +0.570 C 
ATOM     19  O   LIG    1       -0.800   8.532  -0.148  0.00  0.00    -0.530 OA
BRANCH  18  20
ATOM     20  C   LIG    1       -2.989   9.345  -0.172  0.00  0.00    -0.130 A 
ATOM     21  C   LIG    1       -4.351   9.038  -0.178  0.00  0.00    +0.060 A 
ATOM     22  C   LIG    1       -5.285  10.051  -0.195  0.00  0.00    +0.030 A 
ATOM     23  C   LIG    1       -4.877  11.379  -0.217  0.00  0.00    +0.090 A 
ATOM     24  O   LIG    1       -5.816  12.362  -0.242  0.00  0.00    -0.300 OA
ATOM     25  C   LIG    1       -5.381  13.678   0.115  0.00  0.00    +0.230 C 
ATOM     26  C   LIG    1       -4.069  13.969  -0.627  0.00  0.00    +0.230 C 
ATOM     27  O   LIG    1       -3.104  12.989  -0.231  0.00  0.00    -0.300 OA
ATOM     28  C   LIG    1       -3.519  11.692  -0.215  0.00  0.00    +0.040 A 
ATOM     29  C   LIG    1       -2.578  10.680  -0.193  0.00  0.00    +0.110 A 
ENDBRANCH  18  20
ENDBRANCH   2  16
TORSDOF 3
