REMARK  Name = ZINCrg000000pcNe.0
REMARK                            x       y       z     vdW  Elec       q    Type
REMARK                         _______ _______ _______ _____ _____    ______ ____
ROOT
ATOM      1  C   LIG    1        2.396  -3.727   4.376  0.00  0.00    -0.060 A 
ATOM      2  C   LIG    1        3.483  -4.483   3.978  0.00  0.00    +0.020 A 
ATOM      3  C   LIG    1        4.510  -4.737   4.868  0.00  0.00    +0.120 A 
ATOM      4  C   LIG    1        4.445  -4.245   6.158  0.00  0.00    -0.670 A 
ATOM      5  C   LIG    1        3.356  -3.494   6.557  0.00  0.00    +0.120 A 
ATOM      6  C   LIG    1        2.331  -3.235   5.667  0.00  0.00    +0.020 A 
ENDROOT
BRANCH   4   7
ATOM      7  S   LIG    1        5.752  -4.575   7.293  0.00  0.00    +2.690 S 
ATOM      8  O   LIG    1        5.701  -3.548   8.273  0.00  0.00    -0.950 OA
ATOM      9  O   LIG    1        6.906  -4.846   6.510  0.00  0.00    -0.950 OA
BRANCH   7  10
ATOM     10  N   LIG    1        5.377  -5.986   8.075  0.00  0.00    -1.000 NA
ATOM     11  C   LIG    1        4.604  -5.967   9.324  0.00  0.00    +0.290 C 
ATOM     12  C   LIG    1        3.393  -6.899   9.164  0.00  0.00    +0.010 C 
ATOM     13  C   LIG    1        3.879  -8.289   8.747  0.00  0.00    +0.020 C 
ATOM     14  C   LIG    1        4.598  -8.197   7.399  0.00  0.00    +0.010 C 
ATOM     15  C   LIG    1        5.817  -7.280   7.537  0.00  0.00    +0.290 C 
ENDBRANCH   7  10
ENDBRANCH   4   7
BRANCH   1  16
ATOM     16  C   LIG    1        1.279  -3.444   3.405  0.00  0.00    +0.330 C 
BRANCH  16  18
ATOM     17  C   LIG    1        0.695  -1.747   1.757  0.00  0.00    +0.580 C 
ATOM     18  N   LIG    1        1.562  -2.201   2.684  0.00  0.00    -0.710 N 
ATOM     19  H   LIG    1        2.373  -1.704   2.873  0.00  0.00    +0.410 HD
ATOM     20  O   LIG    1       -0.323  -2.370   1.520  0.00  0.00    -0.520 OA
BRANCH  17  24
ATOM     21  C   LIG    1        3.745   1.844   0.613  0.00  0.00    +0.340 C 
ATOM     22  N   LIG    1        2.367   1.347   0.628  0.00  0.00    -0.460 N 
ATOM     23  N   LIG    1        2.065   0.155   1.295  0.00  0.00    -0.200 NA
ATOM     24  C   LIG    1        0.978  -0.502   1.035  0.00  0.00    +0.080 C 
ATOM     25  C   LIG    1        0.002  -0.004   0.002  0.00  0.00    +0.110 C 
ATOM     26  C   LIG    1       -0.019   1.526   0.010  0.00  0.00    +0.090 C 
ATOM     27  C   LIG    1        1.398   2.041  -0.000  0.00  0.00    +0.490 C 
ATOM     28  O   LIG    1        1.665   3.077  -0.572  0.00  0.00    -0.510 OA
ENDBRANCH  17  24
ENDBRANCH  16  18
ENDBRANCH   1  16
TORSDOF 5
