REMARK  Name = ZINCqH0000006iFq.0
REMARK                            x       y       z     vdW  Elec       q    Type
REMARK                         _______ _______ _______ _____ _____    ______ ____
ROOT
ATOM      1  S   LIG    1       -2.659   6.760   0.065  0.00  0.00    +0.080 S 
ENDROOT
BRANCH   1  10
ATOM      2  N   LIG    1       -0.362   5.192   0.033  0.00  0.00    -0.470 N 
ATOM      3  C   LIG    1       -0.024   3.848   0.023  0.00  0.00    +0.060 A 
ATOM      4  C   LIG    1        1.179   3.160   0.008  0.00  0.00    +0.010 A 
ATOM      5  C   LIG    1        1.182   1.780   0.000  0.00  0.00    +0.030 A 
ATOM      6  C   LIG    1       -0.013   1.076   0.008  0.00  0.00    +0.010 A 
ATOM      7  C   LIG    1       -1.218   1.743   0.017  0.00  0.00    +0.060 A 
ATOM      8  C   LIG    1       -1.237   3.140   0.031  0.00  0.00    +0.060 A 
ATOM      9  N   LIG    1       -2.237   4.059   0.045  0.00  0.00    -0.490 NA
ATOM     10  C   LIG    1       -1.726   5.266   0.047  0.00  0.00    +0.250 A 
BRANCH   2  11
ATOM     11  C   LIG    1        0.570   6.322   0.031  0.00  0.00    +0.320 C 
BRANCH  11  12
ATOM     12  C   LIG    1        0.881   6.724  -1.412  0.00  0.00    +0.170 C 
BRANCH  12  14
ATOM     13  C   LIG    1        2.147   8.282  -2.721  0.00  0.00    +0.210 C 
ATOM     14  O   LIG    1        1.789   7.827  -1.415  0.00  0.00    -0.390 OA
ENDBRANCH  12  14
ENDBRANCH  11  12
ENDBRANCH   2  11
ENDBRANCH   1  10
BRANCH   1  15
ATOM     15  C   LIG    1       -4.338   6.083   0.077  0.00  0.00    +0.110 C 
BRANCH  15  16
ATOM     16  C   LIG    1       -5.335   7.213   0.093  0.00  0.00    +0.530 C 
ATOM     17  N   LIG    1       -6.656   6.945   0.104  0.00  0.00    -0.720 N 
ATOM     18  H   LIG    1       -6.965   6.026   0.101  0.00  0.00    +0.400 HD
ATOM     19  O   LIG    1       -4.949   8.363   0.096  0.00  0.00    -0.520 OA
BRANCH  17  20
ATOM     20  C   LIG    1       -7.625   8.043   0.120  0.00  0.00    +0.240 C 
ATOM     21  C   LIG    1       -7.855   8.500   1.562  0.00  0.00    +0.010 C 
ATOM     22  C   LIG    1       -8.868   9.647   1.578  0.00  0.00    +0.010 C 
ATOM     23  C   LIG    1      -10.191   9.168   0.978  0.00  0.00    +0.010 C 
ATOM     24  C   LIG    1       -9.961   8.711  -0.464  0.00  0.00    -0.010 C 
ATOM     25  C   LIG    1      -11.285   8.232  -1.064  0.00  0.00    +0.020 C 
ATOM     26  C   LIG    1       -8.949   7.564  -0.480  0.00  0.00    -0.010 C 
ATOM     27  C   LIG    1       -9.489   6.395   0.345  0.00  0.00    +0.020 C 
ENDBRANCH  17  20
ENDBRANCH  15  16
ENDBRANCH   1  15
TORSDOF 7
