REMARK  Name = ZINCqH00000083Pl.0
REMARK                            x       y       z     vdW  Elec       q    Type
REMARK                         _______ _______ _______ _____ _____    ______ ____
ROOT
ATOM      1  C   LIG    1       -1.293  -0.775   0.010  0.00  0.00    -0.010 C 
ATOM      2  C   LIG    1       -2.086  -0.430   1.274  0.00  0.00    +0.050 C 
ATOM      3  C   LIG    1       -3.370  -1.261   1.306  0.00  0.00    +0.200 C 
ATOM      4  N   LIG    1       -3.031  -2.690   1.295  0.00  0.00    -0.470 N 
ATOM      5  C   LIG    1       -2.310  -3.055   0.069  0.00  0.00    +0.210 C 
ATOM      6  C   LIG    1       -0.994  -2.277  -0.001  0.00  0.00    +0.060 C 
ENDROOT
BRANCH   4   7
ATOM      7  C   LIG    1       -4.168  -3.473   1.456  0.00  0.00    +0.340 A 
ATOM      8  C   LIG    1       -4.985  -3.283   2.566  0.00  0.00    -0.040 A 
ATOM      9  C   LIG    1       -6.115  -4.066   2.712  0.00  0.00    +0.150 A 
ATOM     10  C   LIG    1       -6.387  -5.024   1.744  0.00  0.00    -0.270 A 
ATOM     11  C   LIG    1       -5.530  -5.163   0.671  0.00  0.00    +0.360 A 
ATOM     12  N   LIG    1       -4.461  -4.398   0.555  0.00  0.00    -0.520 NA
BRANCH  10  13
ATOM     13  C   LIG    1       -7.604  -5.905   1.865  0.00  0.00    +0.520 C 
ATOM     14  F   LIG    1       -8.755  -5.110   1.879  0.00  0.00    -0.180 F 
ATOM     15  F   LIG    1       -7.531  -6.641   3.053  0.00  0.00    -0.180 F 
ATOM     16  F   LIG    1       -7.655  -6.781   0.776  0.00  0.00    -0.180 F 
ENDBRANCH  10  13
ENDBRANCH   4   7
BRANCH   1  19
ATOM     17  N   LIG    1       -0.016   1.344   0.009  0.00  0.00    -0.720 N 
ATOM     18  H   LIG    1       -0.863   1.817   0.016  0.00  0.00    +0.400 HD
ATOM     19  C   LIG    1        0.002  -0.004   0.002  0.00  0.00    +0.520 C 
ATOM     20  O   LIG    1        1.060  -0.596  -0.011  0.00  0.00    -0.530 OA
BRANCH  17  24
ATOM     21  C   LIG    1        2.204   4.312   0.097  0.00  0.00    +0.040 C 
ATOM     22  C   LIG    1        2.377   3.696   1.501  0.00  0.00    +0.030 C 
ATOM     23  C   LIG    1        1.766   2.285   1.440  0.00  0.00    +0.010 C 
ATOM     24  C   LIG    1        1.242   2.093   0.001  0.00  0.00    +0.250 C 
ATOM     25  C   LIG    1        1.011   3.535  -0.514  0.00  0.00    +0.050 C 
BRANCH  21  27
ATOM     26  C   LIG    1        3.333   6.785   0.916  0.00  0.00    +0.140 C 
ATOM     27  S   LIG    1        1.812   6.079   0.224  0.00  0.00    -0.250 S 
ENDBRANCH  21  27
ENDBRANCH  17  24
ENDBRANCH   1  19
TORSDOF 5
