REMARK  Name = ZINCqH0000036cTZ.0
REMARK                            x       y       z     vdW  Elec       q    Type
REMARK                         _______ _______ _______ _____ _____    ______ ____
ROOT
ATOM      1  N   LIG    1       -0.011   0.966   0.007  0.00  0.00    -0.630 N 
ATOM      2  H   LIG    1        0.002  -0.004   0.002  0.00  0.00    +0.430 HD
ATOM      3  C   LIG    1        1.147   1.655   0.000  0.00  0.00    +0.510 C 
ATOM      4  O   LIG    1        1.130   2.868   0.007  0.00  0.00    -0.460 OA
ENDROOT
BRANCH   1  10
ATOM      5  C   LIG    1       -5.300   4.136   0.051  0.00  0.00    +0.140 A 
ATOM      6  C   LIG    1       -4.321   5.125   0.052  0.00  0.00    -0.040 A 
ATOM      7  C   LIG    1       -2.991   4.790   0.043  0.00  0.00    +0.120 A 
ATOM      8  C   LIG    1       -2.593   3.436   0.033  0.00  0.00    +0.070 A 
ATOM      9  N   LIG    1       -1.346   2.923   0.030  0.00  0.00    -0.460 NA
ATOM     10  C   LIG    1       -1.221   1.642   0.017  0.00  0.00    +0.320 A 
ATOM     11  S   LIG    1       -2.801   0.872   0.020  0.00  0.00    +0.070 S 
ATOM     12  C   LIG    1       -3.585   2.450   0.032  0.00  0.00    -0.140 A 
ATOM     13  C   LIG    1       -4.932   2.804   0.041  0.00  0.00    +0.030 A 
BRANCH   5  15
ATOM     14  C   LIG    1       -6.921   5.875   0.069  0.00  0.00    +0.240 C 
ATOM     15  O   LIG    1       -6.615   4.480   0.059  0.00  0.00    -0.310 OA
ENDBRANCH   5  15
ENDBRANCH   1  10
BRANCH   3  16
ATOM     16  C   LIG    1        2.462   0.920  -0.017  0.00  0.00    +0.070 C 
BRANCH  16  17
ATOM     17  C   LIG    1        3.611   1.930  -0.022  0.00  0.00    +0.290 C 
BRANCH  17  18
ATOM     18  N   LIG    1        4.890   1.215  -0.038  0.00  0.00    -0.730 N 
ATOM     19  H   LIG    1        4.903   0.245  -0.043  0.00  0.00    +0.400 HD
ATOM     20  C   LIG    1        6.048   1.904  -0.045  0.00  0.00    +0.550 C 
ATOM     21  O   LIG    1        6.031   3.120  -0.039  0.00  0.00    -0.500 OA
BRANCH  20  22
ATOM     22  C   LIG    1        7.337   1.183  -0.062  0.00  0.00    -0.130 A 
ATOM     23  C   LIG    1        7.360  -0.213  -0.069  0.00  0.00    +0.050 A 
ATOM     24  C   LIG    1        8.567  -0.880  -0.084  0.00  0.00    +0.020 A 
ATOM     25  C   LIG    1        9.755  -0.170  -0.091  0.00  0.00    +0.060 A 
ATOM     26  C   LIG    1        9.741   1.214  -0.084  0.00  0.00    +0.020 A 
ATOM     27  C   LIG    1        8.540   1.895  -0.075  0.00  0.00    +0.010 A 
ATOM     28 CL   LIG    1        8.523   3.631  -0.073  0.00  0.00    -0.030 Cl
ENDBRANCH  20  22
ENDBRANCH  17  18
ENDBRANCH  16  17
ENDBRANCH   3  16
TORSDOF 6
