REMARK  Name = ZINCpk00000eaz1b.0
REMARK                            x       y       z     vdW  Elec       q    Type
REMARK                         _______ _______ _______ _____ _____    ______ ____
ROOT
ATOM      1  N   LIG    1       -0.801  -0.969  -0.520  0.00  0.00    -0.540 N 
ATOM      2  C   LIG    1       -0.439  -2.194  -0.097  0.00  0.00    +0.690 A 
ATOM      3  N   LIG    1        0.847  -2.424  -0.421  0.00  0.00    -0.460 N 
ATOM      4  C   LIG    1        1.341  -1.300  -1.083  0.00  0.00    +0.080 A 
ATOM      5  C   LIG    1        2.574  -0.984  -1.631  0.00  0.00    +0.070 A 
ATOM      6  C   LIG    1        2.762   0.244  -2.237  0.00  0.00    +0.020 A 
ATOM      7  C   LIG    1        1.725   1.158  -2.300  0.00  0.00    +0.040 A 
ATOM      8  C   LIG    1        0.492   0.851  -1.756  0.00  0.00    +0.020 A 
ATOM      9  O   LIG    1       -1.164  -2.975   0.490  0.00  0.00    -0.490 OA
ATOM     10  C   LIG    1        0.294  -0.377  -1.145  0.00  0.00    +0.110 A 
ENDROOT
BRANCH   3  11
ATOM     11  C   LIG    1        1.562  -3.585  -0.143  0.00  0.00    +0.550 A 
ATOM     12  N   LIG    1        2.826  -3.673  -0.528  0.00  0.00    -0.540 NA
ATOM     13  C   LIG    1        3.536  -4.760  -0.275  0.00  0.00    +0.360 A 
ATOM     14  C   LIG    1        2.938  -5.818   0.392  0.00  0.00    -0.090 A 
ATOM     15  C   LIG    1        1.612  -5.694   0.776  0.00  0.00    +0.360 A 
ATOM     16  N   LIG    1        0.961  -4.577   0.496  0.00  0.00    -0.510 NA
ENDBRANCH   3  11
BRANCH   1  17
ATOM     17  C   LIG    1       -2.123  -0.360  -0.352  0.00  0.00    +0.370 C 
BRANCH  17  18
ATOM     18  C   LIG    1       -2.999  -0.701  -1.559  0.00  0.00    -0.150 C 
ATOM     19  C   LIG    1       -2.831  -2.087  -2.185  0.00  0.00    +0.050 C 
ATOM     20  C   LIG    1       -2.307  -0.848  -2.915  0.00  0.00    +0.050 C 
BRANCH  18  21
ATOM     21  C   LIG    1       -4.405  -0.098  -1.545  0.00  0.00    -0.290 C 
BRANCH  21  23
ATOM     22  C   LIG    1       -6.998  -0.091  -0.442  0.00  0.00    -0.270 C 
ATOM     23  S   LIG    1       -5.353  -0.804  -0.169  0.00  0.00    +2.410 S 
ATOM     24  O   LIG    1       -4.833  -0.290   1.050  0.00  0.00    -0.930 OA
ATOM     25  O   LIG    1       -5.434  -2.211  -0.350  0.00  0.00    -0.920 OA
ENDBRANCH  21  23
ENDBRANCH  18  21
ENDBRANCH  17  18
ENDBRANCH   1  17
TORSDOF 5
