REMARK  Name = ZINCpk00000y6w3w.0
REMARK                            x       y       z     vdW  Elec       q    Type
REMARK                         _______ _______ _______ _____ _____    ______ ____
ROOT
ATOM      1  C   LIG    1        2.482   1.056  -0.080  0.00  0.00    +0.570 C 
ATOM      2  N   LIG    1        2.503  -0.285   0.046  0.00  0.00    -0.600 N 
ATOM      3  C   LIG    1        1.247  -1.040   0.055  0.00  0.00    +0.290 C 
ATOM      4  O   LIG    1        3.524   1.675  -0.170  0.00  0.00    -0.510 OA
ENDROOT
BRANCH   1   9
ATOM      5  C   LIG    1       -0.253   3.529   0.644  0.00  0.00    +0.070 A 
ATOM      6  C   LIG    1       -1.220   3.047  -0.227  0.00  0.00    +0.200 A 
ATOM      7  N   LIG    1       -0.985   1.998  -0.991  0.00  0.00    -0.450 NA
ATOM      8  C   LIG    1        0.164   1.356  -0.958  0.00  0.00    +0.260 A 
ATOM      9  C   LIG    1        1.190   1.776  -0.110  0.00  0.00    -0.150 A 
ATOM     10  C   LIG    1        0.978   2.889   0.711  0.00  0.00    -0.020 A 
ATOM     11  C   LIG    1        2.056   3.380   1.642  0.00  0.00    +0.130 C 
BRANCH   5  13
ATOM     12  C   LIG    1       -1.796   5.217   1.294  0.00  0.00    +0.250 C 
ATOM     13  O   LIG    1       -0.506   4.615   1.421  0.00  0.00    -0.300 OA
ENDBRANCH   5  13
ENDBRANCH   1   9
BRANCH   2  14
ATOM     14  C   LIG    1        3.781  -0.989   0.174  0.00  0.00    +0.310 C 
BRANCH  14  15
ATOM     15  C   LIG    1        4.157  -1.100   1.653  0.00  0.00    +0.160 C 
ATOM     16  O   LIG    1        3.225  -1.960   2.330  0.00  0.00    -0.360 OA
ATOM     17  C   LIG    1        3.966  -2.663   3.350  0.00  0.00    +0.220 C 
ATOM     18  C   LIG    1        5.310  -2.999   2.655  0.00  0.00    +0.020 C 
ATOM     19  C   LIG    1        5.555  -1.733   1.792  0.00  0.00    +0.100 C 
BRANCH  19  20
ATOM     20  C   LIG    1        6.099  -2.113   0.439  0.00  0.00    +0.180 A 
ATOM     21  N   LIG    1        6.894  -1.393  -0.305  0.00  0.00    -0.280 NA
ATOM     22  N   LIG    1        7.159  -2.025  -1.393  0.00  0.00    -0.290 NA
ATOM     23  C   LIG    1        6.545  -3.177  -1.392  0.00  0.00    +0.180 A 
ATOM     24  C   LIG    1        6.596  -4.216  -2.483  0.00  0.00    +0.200 C 
ATOM     25  N   LIG    1        5.860  -3.268  -0.227  0.00  0.00    -0.580 N 
ATOM     26  H   LIG    1        5.308  -4.009   0.069  0.00  0.00    +0.430 HD
ENDBRANCH  19  20
ENDBRANCH  14  15
ENDBRANCH   2  14
TORSDOF 5
