REMARK  Name = ZINCrg00000Bs3sC.0
REMARK                            x       y       z     vdW  Elec       q    Type
REMARK                         _______ _______ _______ _____ _____    ______ ____
ROOT
ATOM      1  C   LIG    1        0.304  -0.048  -0.129  0.00  0.00    +0.230 C 
ATOM      2  C   LIG    1        0.104   1.278   0.634  0.00  0.00    +0.090 C 
ATOM      3  C   LIG    1        1.489   1.966   0.505  0.00  0.00    +0.190 C 
ATOM      4  C   LIG    1        1.921   1.529  -0.918  0.00  0.00    +0.210 C 
ATOM      5  N   LIG    1        1.431   0.145  -1.052  0.00  0.00    -0.600 N 
ATOM      6  C   LIG    1        1.934  -0.788  -1.884  0.00  0.00    +0.610 C 
ATOM      7  O   LIG    1        1.440  -1.899  -1.921  0.00  0.00    -0.510 OA
ENDROOT
BRANCH   6   8
ATOM      8  C   LIG    1        3.081  -0.464  -2.747  0.00  0.00    +0.060 A 
ATOM      9  C   LIG    1        3.791  -1.347  -3.534  0.00  0.00    -0.020 A 
ATOM     10  C   LIG    1        4.791  -0.625  -4.185  0.00  0.00    +0.260 A 
ATOM     11  N   LIG    1        4.706   0.632  -3.823  0.00  0.00    -0.270 NA
ATOM     12  F   LIG    1        5.698  -1.136  -5.046  0.00  0.00    -0.080 F 
ATOM     13  N   LIG    1        3.640   0.771  -2.925  0.00  0.00    -0.440 N 
ATOM     14  H   LIG    1        3.352   1.595  -2.503  0.00  0.00    +0.450 HD
ENDBRANCH   6   8
BRANCH   3  15
ATOM     15  O   LIG    1        2.400   1.474   1.490  0.00  0.00    -0.550 OA
ATOM     16  H   LIG    1        3.279   1.875   1.448  0.00  0.00    +0.390 HD
ENDBRANCH   3  15
BRANCH   1  17
ATOM     17  C   LIG    1       -0.962  -0.391  -0.917  0.00  0.00    +0.280 C 
BRANCH  17  20
ATOM     18  O   LIG    1       -2.727  -1.535  -2.604  0.00  0.00    -0.530 OA
ATOM     19  C   LIG    1       -1.818  -2.254  -2.233  0.00  0.00    +0.580 C 
ATOM     20  N   LIG    1       -0.883  -1.776  -1.388  0.00  0.00    -0.720 N 
ATOM     21  H   LIG    1       -0.159  -2.348  -1.092  0.00  0.00    +0.410 HD
BRANCH  19  22
ATOM     22  C   LIG    1       -1.740  -3.644  -2.707  0.00  0.00    +0.020 A 
ATOM     23  C   LIG    1       -2.622  -4.239  -3.551  0.00  0.00    +0.040 A 
ATOM     24  C   LIG    1       -2.188  -5.571  -3.759  0.00  0.00    -0.120 A 
ATOM     25  C   LIG    1       -2.686  -6.638  -4.518  0.00  0.00    +0.070 A 
ATOM     26  C   LIG    1       -2.034  -7.837  -4.513  0.00  0.00    -0.030 A 
ATOM     27  C   LIG    1       -0.880  -8.012  -3.760  0.00  0.00    +0.040 A 
ATOM     28  C   LIG    1       -0.371  -6.978  -3.005  0.00  0.00    -0.010 A 
ATOM     29  C   LIG    1       -1.017  -5.746  -2.994  0.00  0.00    +0.110 A 
ATOM     30  N   LIG    1       -0.760  -4.554  -2.359  0.00  0.00    -0.570 N 
ATOM     31  H   LIG    1       -0.014  -4.381  -1.763  0.00  0.00    +0.420 HD
ENDBRANCH  19  22
ENDBRANCH  17  20
ENDBRANCH   1  17
TORSDOF 5
