REMARK  Name = ZINCrH000004k3Lk.0
REMARK                            x       y       z     vdW  Elec       q    Type
REMARK                         _______ _______ _______ _____ _____    ______ ____
ROOT
ATOM      1  N   LIG    1        0.002   2.700  -4.638  0.00  0.00    -0.670 N 
ATOM      2  H   LIG    1        0.972   2.680  -4.632  0.00  0.00    +0.410 HD
ATOM      3  C   LIG    1       -0.659   3.050  -5.759  0.00  0.00    +0.520 C 
ATOM      4  O   LIG    1       -1.866   3.167  -5.740  0.00  0.00    -0.490 OA
ENDROOT
BRANCH   1  12
ATOM      5  C   LIG    1       -3.900   0.361  -0.098  0.00  0.00    +0.310 C 
ATOM      6  N   LIG    1       -2.836   1.366  -0.034  0.00  0.00    -0.560 N 
ATOM      7  C   LIG    1       -2.549   1.963   1.138  0.00  0.00    +0.520 C 
ATOM      8  C   LIG    1       -1.473   3.011   1.225  0.00  0.00    +0.070 C 
ATOM      9  C   LIG    1       -0.331   2.666   0.269  0.00  0.00    +0.100 C 
ATOM     10  C   LIG    1       -0.894   2.337  -1.090  0.00  0.00    -0.100 A 
ATOM     11  C   LIG    1       -0.190   2.668  -2.229  0.00  0.00    +0.040 A 
ATOM     12  C   LIG    1       -0.712   2.364  -3.480  0.00  0.00    +0.130 A 
ATOM     13  C   LIG    1       -1.942   1.727  -3.583  0.00  0.00    +0.050 A 
ATOM     14  C   LIG    1       -2.646   1.396  -2.442  0.00  0.00    +0.010 A 
ATOM     15  O   LIG    1       -3.166   1.652   2.135  0.00  0.00    -0.520 OA
ATOM     16  C   LIG    1       -2.124   1.700  -1.192  0.00  0.00    +0.150 A 
ENDBRANCH   1  12
BRANCH   3  17
ATOM     17  C   LIG    1        0.102   3.295  -7.036  0.00  0.00    +0.240 C 
BRANCH  17  18
ATOM     18  O   LIG    1       -0.812   3.650  -8.075  0.00  0.00    -0.290 OA
BRANCH  18  19
ATOM     19  C   LIG    1       -0.285   3.906  -9.301  0.00  0.00    +0.130 A 
ATOM     20  C   LIG    1       -1.112   4.245 -10.333  0.00  0.00    -0.010 A 
ATOM     21  C   LIG    1       -0.567   4.515 -11.600  0.00  0.00    -0.010 A 
ATOM     22  C   LIG    1       -1.387   4.872 -12.684  0.00  0.00    +0.020 A 
ATOM     23  C   LIG    1       -0.825   5.120 -13.899  0.00  0.00    +0.030 A 
ATOM     24  C   LIG    1        0.553   5.027 -14.085  0.00  0.00    -0.010 A 
ATOM     25  C   LIG    1        1.377   4.686 -13.057  0.00  0.00    +0.030 A 
ATOM     26  C   LIG    1        0.834   4.421 -11.789  0.00  0.00    -0.080 A 
ATOM     27  C   LIG    1        1.656   4.064 -10.705  0.00  0.00    +0.070 A 
ATOM     28  C   LIG    1        1.098   3.814  -9.490  0.00  0.00    -0.060 A 
ENDBRANCH  18  19
ENDBRANCH  17  18
ENDBRANCH   3  17
TORSDOF 4
