REMARK  Name = ZINCvU00000009jp.0
REMARK                            x       y       z     vdW  Elec       q    Type
REMARK                         _______ _______ _______ _____ _____    ______ ____
ROOT
ATOM      1  C   LIG    1       -2.528   1.386   0.020  0.00  0.00    +0.150 C 
ATOM      2  C   LIG    1       -1.099   1.866   0.017  0.00  0.00    +0.020 A 
ATOM      3  C   LIG    1       -0.013   1.076   0.008  0.00  0.00    +0.020 A 
ATOM      4  C   LIG    1        1.152   1.972   0.002  0.00  0.00    -0.260 A 
ATOM      5  C   LIG    1        0.641   3.257   0.013  0.00  0.00    +0.130 A 
ATOM      6  C   LIG    1        1.449   4.529   0.011  0.00  0.00    +0.150 C 
ATOM      7  N   LIG    1       -0.703   3.174   0.025  0.00  0.00    -0.390 N 
ENDROOT
BRANCH   7   8
ATOM      8  C   LIG    1       -1.573   4.274   0.039  0.00  0.00    +0.100 A 
ATOM      9  C   LIG    1       -1.599   5.124   1.136  0.00  0.00    +0.090 A 
ATOM     10  C   LIG    1       -2.451   6.211   1.148  0.00  0.00    -0.020 A 
ATOM     11  C   LIG    1       -3.289   6.447   0.069  0.00  0.00    +0.130 A 
ATOM     12  C   LIG    1       -3.268   5.594  -1.026  0.00  0.00    -0.040 A 
ATOM     13 CL   LIG    1       -4.319   5.889  -2.377  0.00  0.00    -0.030 Cl
ATOM     14  C   LIG    1       -2.412   4.510  -1.041  0.00  0.00    +0.080 A 
BRANCH  11  15
ATOM     15  O   LIG    1       -4.132   7.514   0.084  0.00  0.00    -0.310 OA
BRANCH  15  16
ATOM     16  C   LIG    1       -4.101   8.350   1.242  0.00  0.00    +0.600 C 
ATOM     17  F   LIG    1       -2.817   8.882   1.399  0.00  0.00    -0.190 F 
ATOM     18  F   LIG    1       -4.433   7.593   2.372  0.00  0.00    -0.190 F 
ENDBRANCH  15  16
ENDBRANCH  11  15
ENDBRANCH   7   8
BRANCH   4  19
ATOM     19  C   LIG    1        2.563   1.584  -0.014  0.00  0.00    +0.450 C 
ATOM     20  O   LIG    1        3.427   2.436  -0.018  0.00  0.00    -0.460 OA
BRANCH  19  21
ATOM     21  C   LIG    1        2.944   0.125  -0.025  0.00  0.00    +0.110 C 
BRANCH  21  22
ATOM     22  S   LIG    1        4.751  -0.028  -0.043  0.00  0.00    +0.050 S 
BRANCH  22  23
ATOM     23  C   LIG    1        5.001  -1.772  -0.054  0.00  0.00    +0.110 A 
ATOM     24  N   LIG    1        4.064  -2.693  -0.050  0.00  0.00    -0.250 NA
ATOM     25  N   LIG    1        4.591  -3.867  -0.061  0.00  0.00    -0.280 NA
ATOM     26  C   LIG    1        5.907  -3.763  -0.072  0.00  0.00    +0.200 A 
ATOM     27  C   LIG    1        6.954  -4.706  -0.087  0.00  0.00    +0.080 A 
ATOM     28  C   LIG    1        8.241  -4.269  -0.097  0.00  0.00    +0.060 A 
ATOM     29  C   LIG    1        8.512  -2.887  -0.093  0.00  0.00    +0.030 A 
ATOM     30  C   LIG    1        7.503  -1.994  -0.079  0.00  0.00    +0.240 A 
ATOM     31  N   LIG    1        6.203  -2.416  -0.074  0.00  0.00    -0.380 N 
ENDBRANCH  22  23
ENDBRANCH  21  22
ENDBRANCH  19  21
ENDBRANCH   4  19
TORSDOF 7
