REMARK  Name = ZINCrH000004mwIw.0
REMARK                            x       y       z     vdW  Elec       q    Type
REMARK                         _______ _______ _______ _____ _____    ______ ____
ROOT
ATOM      1  C   LIG    1        3.591   6.061  -0.250  0.00  0.00    +0.000 C 
ATOM      2  C   LIG    1        4.519   5.727   0.921  0.00  0.00    +0.060 C 
ATOM      3  C   LIG    1        5.791   6.572   0.813  0.00  0.00    +0.190 C 
ATOM      4  N   LIG    1        5.438   7.997   0.837  0.00  0.00    -0.500 N 
ATOM      5  C   LIG    1        4.585   8.351  -0.305  0.00  0.00    +0.190 C 
ATOM      6  C   LIG    1        3.277   7.560  -0.231  0.00  0.00    +0.070 C 
ENDROOT
BRANCH   4   7
ATOM      7  C   LIG    1        6.582   8.796   0.873  0.00  0.00    +0.160 A 
ATOM      8  C   LIG    1        7.520   8.716  -0.149  0.00  0.00    -0.010 A 
ATOM      9  C   LIG    1        8.648   9.512  -0.113  0.00  0.00    +0.080 A 
ATOM     10  C   LIG    1        8.851  10.380   0.945  0.00  0.00    +0.030 A 
ATOM     11  C   LIG    1        7.922  10.457   1.967  0.00  0.00    +0.110 A 
ATOM     12  C   LIG    1        6.789   9.668   1.934  0.00  0.00    -0.030 A 
BRANCH  12  13
ATOM     13  N   LIG    1        5.796   9.753   3.028  0.00  0.00    +0.030 N 
ATOM     14  O   LIG    1        4.752   9.130   2.953  0.00  0.00    -0.100 OA
ATOM     15  O   LIG    1        6.022  10.445   4.005  0.00  0.00    -0.200 OA
ENDBRANCH  12  13
ENDBRANCH   4   7
BRANCH   1  18
ATOM     16  N   LIG    1        2.344   3.930  -0.109  0.00  0.00    -0.660 N 
ATOM     17  H   LIG    1        3.195   3.465  -0.121  0.00  0.00    +0.410 HD
ATOM     18  C   LIG    1        2.311   5.277  -0.117  0.00  0.00    +0.520 C 
ATOM     19  O   LIG    1        1.251   5.858  -0.016  0.00  0.00    -0.520 OA
BRANCH  16  26
ATOM     20  C   LIG    1        1.063   1.975  -0.745  0.00  0.00    +0.090 A 
ATOM     21  C   LIG    1       -0.121   1.258  -0.718  0.00  0.00    -0.060 A 
ATOM     22  C   LIG    1       -1.218   1.760  -0.043  0.00  0.00    +0.030 A 
ATOM     23  C   LIG    1       -1.133   2.972   0.617  0.00  0.00    -0.100 A 
ATOM     24  C   LIG    1        0.045   3.694   0.595  0.00  0.00    +0.060 A 
ATOM     25  C   LIG    1       -2.331   3.510   1.357  0.00  0.00    +0.100 C 
ATOM     26  C   LIG    1        1.148   3.200  -0.085  0.00  0.00    +0.120 A 
BRANCH  20  28
ATOM     27  C   LIG    1        1.982   0.225  -2.067  0.00  0.00    +0.250 C 
ATOM     28  O   LIG    1        2.142   1.486  -1.414  0.00  0.00    -0.320 OA
ENDBRANCH  20  28
ENDBRANCH  16  26
ENDBRANCH   1  18
TORSDOF 5
