REMARK  Name = ZINCpk00000xImfI.1
REMARK                            x       y       z     vdW  Elec       q    Type
REMARK                         _______ _______ _______ _____ _____    ______ ____
ROOT
ATOM      1  N   LIG    1        1.873  -4.645   1.060  0.00  0.00    -0.370 N 
ATOM      2  C   LIG    1        2.501  -4.110  -0.156  0.00  0.00    +0.270 C 
ATOM      3  C   LIG    1        2.523  -2.582  -0.089  0.00  0.00    +0.220 C 
ATOM      4  N   LIG    1        1.147  -2.080   0.033  0.00  0.00    -0.490 N 
ATOM      5  C   LIG    1        0.497  -2.626   1.232  0.00  0.00    +0.230 C 
ATOM      6  C   LIG    1        0.492  -4.154   1.155  0.00  0.00    +0.290 C 
ATOM      7  H   LIG    1        2.394  -4.341   1.869  0.00  0.00    +0.420 HD
ENDROOT
BRANCH   1  13
ATOM      8  N   LIG    1        0.923  -7.962   2.341  0.00  0.00    -0.540 N 
ATOM      9  C   LIG    1        1.186  -8.863   1.208  0.00  0.00    +0.280 C 
ATOM     10  C   LIG    1        2.695  -9.090   1.101  0.00  0.00    +0.020 C 
ATOM     11  C   LIG    1        3.349  -8.001   0.270  0.00  0.00    +0.040 C 
ATOM     12  C   LIG    1        3.307  -6.628   0.911  0.00  0.00    +0.050 C 
ATOM     13  C   LIG    1        1.869  -6.112   1.004  0.00  0.00    +0.170 C 
ATOM     14  C   LIG    1        1.235  -6.668   2.262  0.00  0.00    +0.500 C 
ATOM     15  O   LIG    1        1.010  -5.933   3.200  0.00  0.00    -0.550 OA
BRANCH   8  16
ATOM     16  C   LIG    1        0.316  -8.491   3.565  0.00  0.00    +0.220 C 
BRANCH  16  18
ATOM     17  O   LIG    1       -1.699  -7.925   2.463  0.00  0.00    -0.690 OA
ATOM     18  C   LIG    1       -1.185  -8.393   3.464  0.00  0.00    +0.490 C 
ATOM     19  O   LIG    1       -1.884  -8.781   4.384  0.00  0.00    -0.680 OA
ENDBRANCH  16  18
ENDBRANCH   8  16
ENDBRANCH   1  13
BRANCH   4  20
ATOM     20  C   LIG    1        1.123  -0.683   0.042  0.00  0.00    +0.130 A 
ATOM     21  C   LIG    1       -0.087  -0.009   0.150  0.00  0.00    +0.000 A 
ATOM     22  C   LIG    1       -0.109   1.372   0.160  0.00  0.00    +0.080 A 
ATOM     23  C   LIG    1        1.071   2.085   0.062  0.00  0.00    -0.030 A 
ATOM     24  C   LIG    1        2.280   1.417  -0.047  0.00  0.00    +0.130 A 
ATOM     25  F   LIG    1        3.432   2.116  -0.143  0.00  0.00    -0.130 F 
ATOM     26  C   LIG    1        2.308   0.034  -0.057  0.00  0.00    -0.070 A 
ENDBRANCH   4  20
TORSDOF 4
