REMARK  Name = ZINCnE000004vSnO.0
REMARK                            x       y       z     vdW  Elec       q    Type
REMARK                         _______ _______ _______ _____ _____    ______ ____
ROOT
ATOM      1  C   LIG    1       -3.944   2.552   2.792  0.00  0.00    +0.600 C 
ATOM      2  N   LIG    1       -4.294   2.978   4.021  0.00  0.00    -0.730 N 
ATOM      3  H   LIG    1       -3.619   3.079   4.710  0.00  0.00    +0.400 HD
ATOM      4  O   LIG    1       -4.791   2.426   1.928  0.00  0.00    -0.540 OA
ENDROOT
BRANCH   2   5
ATOM      5  C   LIG    1       -5.695   3.291   4.317  0.00  0.00    +0.300 C 
ATOM      6  C   LIG    1       -5.952   3.212   5.837  0.00  0.00    +0.050 C 
ATOM      7  C   LIG    1       -6.992   4.332   6.056  0.00  0.00    +0.100 C 
ATOM      8  C   LIG    1       -6.751   5.321   4.936  0.00  0.00    -0.070 A 
ATOM      9  C   LIG    1       -7.153   6.639   4.802  0.00  0.00    +0.030 A 
ATOM     10  C   LIG    1       -6.811   7.360   3.672  0.00  0.00    +0.070 A 
ATOM     11  C   LIG    1       -6.064   6.761   2.671  0.00  0.00    +0.070 A 
ATOM     12  C   LIG    1       -5.662   5.444   2.805  0.00  0.00    +0.060 A 
ATOM     13  F   LIG    1       -5.728   7.461   1.565  0.00  0.00    -0.130 F 
ATOM     14  F   LIG    1       -7.205   8.646   3.545  0.00  0.00    -0.130 F 
ATOM     15  C   LIG    1       -6.005   4.723   3.936  0.00  0.00    -0.090 A 
ENDBRANCH   2   5
BRANCH   1  20
ATOM     16  C   LIG    1       -0.013   1.086   0.008  0.00  0.00    +0.120 C 
ATOM     17  C   LIG    1       -0.718   1.572   1.248  0.00  0.00    -0.110 A 
ATOM     18  C   LIG    1       -0.060   1.820   2.422  0.00  0.00    -0.170 A 
ATOM     19  S   LIG    1       -1.206   2.369   3.637  0.00  0.00    +0.160 S 
ATOM     20  C   LIG    1       -2.536   2.237   2.494  0.00  0.00    -0.300 A 
ATOM     21  C   LIG    1       -2.065   1.805   1.287  0.00  0.00    +0.100 A 
BRANCH  18  22
ATOM     22  C   LIG    1        1.382   1.655   2.634  0.00  0.00    +0.540 C 
ATOM     23  O   LIG    1        1.873   1.905   3.727  0.00  0.00    -0.680 OA
ATOM     24  O   LIG    1        2.095   1.266   1.718  0.00  0.00    -0.660 OA
ENDBRANCH  18  22
ENDBRANCH   1  20
TORSDOF 3
