REMARK  Name = ZINCqH0000031sI5.0
REMARK                            x       y       z     vdW  Elec       q    Type
REMARK                         _______ _______ _______ _____ _____    ______ ____
ROOT
ATOM      1  N   LIG    1       -6.120   4.516  -4.218  0.00  0.00    -0.470 N 
ATOM      2  C   LIG    1       -5.792   4.183  -2.815  0.00  0.00    +0.220 C 
ATOM      3  C   LIG    1       -4.284   4.516  -2.733  0.00  0.00    +0.050 C 
ATOM      4  C   LIG    1       -3.827   4.362  -4.170  0.00  0.00    -0.130 A 
ATOM      5  C   LIG    1       -2.570   4.234  -4.721  0.00  0.00    +0.040 A 
ATOM      6  C   LIG    1       -2.423   4.101  -6.090  0.00  0.00    -0.020 A 
ATOM      7  C   LIG    1       -3.540   4.096  -6.905  0.00  0.00    +0.040 A 
ATOM      8  C   LIG    1       -4.800   4.227  -6.359  0.00  0.00    -0.020 A 
ATOM      9  C   LIG    1       -4.956   4.365  -4.981  0.00  0.00    +0.100 A 
ENDROOT
BRANCH   1  10
ATOM     10  C   LIG    1       -7.197   3.655  -4.725  0.00  0.00    +0.230 C 
BRANCH  10  14
ATOM     11  C   LIG    1      -10.935   4.933  -3.089  0.00  0.00    +0.010 A 
ATOM     12  C   LIG    1      -10.424   5.548  -4.232  0.00  0.00    +0.030 A 
ATOM     13  C   LIG    1       -9.217   5.131  -4.755  0.00  0.00    +0.040 A 
ATOM     14  C   LIG    1       -8.514   4.105  -4.149  0.00  0.00    -0.070 A 
ATOM     15  C   LIG    1       -9.019   3.487  -3.018  0.00  0.00    +0.020 A 
ATOM     16  C   LIG    1      -10.222   3.899  -2.482  0.00  0.00    +0.040 A 
BRANCH  11  18
ATOM     17  C   LIG    1      -13.213   5.713  -2.091  0.00  0.00    +0.060 C 
ATOM     18  C   LIG    1      -12.187   5.361  -2.541  0.00  0.00    -0.150 C 
ENDBRANCH  11  18
ENDBRANCH  10  14
ENDBRANCH   1  10
BRANCH   3  19
ATOM     19  C   LIG    1       -3.559   3.522  -1.824  0.00  0.00    +0.020 C 
BRANCH  19  20
ATOM     20  C   LIG    1       -4.060   3.685  -0.387  0.00  0.00    +0.280 C 
BRANCH  20  21
ATOM     21  N   LIG    1       -3.449   2.660   0.462  0.00  0.00    -0.620 N 
ATOM     22  C   LIG    1       -2.180   2.827   1.180  0.00  0.00    +0.250 C 
ATOM     23  C   LIG    1       -2.161   1.713   2.250  0.00  0.00    +0.040 C 
ATOM     24  C   LIG    1       -3.089   0.650   1.616  0.00  0.00    +0.040 C 
ATOM     25  C   LIG    1       -3.979   1.444   0.684  0.00  0.00    +0.520 C 
ATOM     26  O   LIG    1       -5.020   1.043   0.208  0.00  0.00    -0.530 OA
ENDBRANCH  20  21
ENDBRANCH  19  20
ENDBRANCH   3  19
TORSDOF 6
