REMARK  Name = ZINCvU00000007Ni.0
REMARK                            x       y       z     vdW  Elec       q    Type
REMARK                         _______ _______ _______ _____ _____    ______ ____
ROOT
ATOM      1  C   LIG    1       -7.588   2.926   0.585  0.00  0.00    +0.270 A 
ATOM      2  N   LIG    1       -8.646   2.315   1.019  0.00  0.00    -0.500 NA
ATOM      3  C   LIG    1       -9.795   2.973   0.943  0.00  0.00    +0.130 A 
ATOM      4  C   LIG    1       -9.720   4.205   0.409  0.00  0.00    -0.110 A 
ATOM      5  S   LIG    1       -8.038   4.521  -0.012  0.00  0.00    +0.210 S 
ENDROOT
BRANCH   3   6
ATOM      6  C   LIG    1      -11.076   2.387   1.409  0.00  0.00    -0.020 A 
ATOM      7  C   LIG    1      -12.257   3.120   1.308  0.00  0.00    +0.030 A 
ATOM      8  C   LIG    1      -13.447   2.568   1.738  0.00  0.00    +0.010 A 
ATOM      9  C   LIG    1      -13.466   1.295   2.280  0.00  0.00    -0.090 A 
ATOM     10  C   LIG    1      -12.296   0.566   2.388  0.00  0.00    +0.020 A 
ATOM     11  C   LIG    1      -11.101   1.105   1.955  0.00  0.00    +0.050 A 
BRANCH   9  12
ATOM     12  C   LIG    1      -14.768   0.701   2.753  0.00  0.00    +0.280 C 
ATOM     13  C   LIG    1      -15.549   0.162   1.553  0.00  0.00    +0.040 C 
BRANCH  12  14
ATOM     14  N   LIG    1      -15.559   1.732   3.428  0.00  0.00    -0.730 N 
ATOM     15  H   LIG    1      -15.421   2.668   3.213  0.00  0.00    +0.400 HD
ATOM     16  C   LIG    1      -16.479   1.382   4.349  0.00  0.00    +0.510 C 
ATOM     17  O   LIG    1      -16.651   0.212   4.618  0.00  0.00    -0.540 OA
ATOM     18  C   LIG    1      -17.292   2.443   5.043  0.00  0.00    +0.090 C 
ENDBRANCH  12  14
ENDBRANCH   9  12
ENDBRANCH   3   6
BRANCH   1  20
ATOM     19  C   LIG    1       -5.277   3.132   0.102  0.00  0.00    +0.510 C 
ATOM     20  N   LIG    1       -6.301   2.402   0.586  0.00  0.00    -0.620 N 
ATOM     21  H   LIG    1       -6.141   1.512   0.934  0.00  0.00    +0.430 HD
ATOM     22  O   LIG    1       -5.478   4.246  -0.334  0.00  0.00    -0.470 OA
BRANCH  19  23
ATOM     23  C   LIG    1       -3.881   2.564   0.103  0.00  0.00    +0.010 C 
ATOM     24  C   LIG    1       -3.676   1.714  -1.152  0.00  0.00    +0.120 C 
BRANCH  23  25
ATOM     25  S   LIG    1       -2.676   3.920   0.118  0.00  0.00    -0.030 S 
BRANCH  25  29
ATOM     26  C   LIG    1       -3.204   5.706   4.249  0.00  0.00    +0.130 A 
ATOM     27  C   LIG    1       -3.885   4.548   3.902  0.00  0.00    +0.000 A 
ATOM     28  C   LIG    1       -3.721   4.000   2.646  0.00  0.00    +0.030 A 
ATOM     29  C   LIG    1       -2.881   4.615   1.725  0.00  0.00    -0.130 A 
ATOM     30  C   LIG    1       -2.200   5.774   2.073  0.00  0.00    +0.080 A 
ATOM     31  C   LIG    1       -2.362   6.317   3.332  0.00  0.00    -0.050 A 
BRANCH  26  33
ATOM     32  C   LIG    1       -2.631   7.434   5.779  0.00  0.00    +0.250 C 
ATOM     33  O   LIG    1       -3.362   6.241   5.489  0.00  0.00    -0.320 OA
ENDBRANCH  26  33
ENDBRANCH  25  29
ENDBRANCH  23  25
ENDBRANCH  19  23
ENDBRANCH   1  20
TORSDOF 8
