REMARK  Name = ZINCpk00000xI2fM.0
REMARK                            x       y       z     vdW  Elec       q    Type
REMARK                         _______ _______ _______ _____ _____    ______ ____
ROOT
ATOM      1  N   LIG    1        6.076  -0.467  -0.062  0.00  0.00    -0.520 N 
ATOM      2  H   LIG    1        6.599  -0.470  -0.879  0.00  0.00    +0.430 HD
ATOM      3  C   LIG    1        6.570  -1.033   1.057  0.00  0.00    +0.570 C 
ATOM      4  O   LIG    1        5.914  -1.028   2.081  0.00  0.00    -0.490 OA
ENDROOT
BRANCH   1  16
ATOM      5  C   LIG    1        5.963   2.301  -0.044  0.00  0.00    +0.180 C 
ATOM      6  C   LIG    1        4.698   1.481  -0.036  0.00  0.00    +0.400 A 
ATOM      7  N   LIG    1        3.559   2.106  -0.021  0.00  0.00    -0.500 NA
ATOM      8  C   LIG    1        2.380   1.435  -0.013  0.00  0.00    +0.150 A 
ATOM      9  C   LIG    1        1.156   2.106   0.002  0.00  0.00    +0.030 A 
ATOM     10  C   LIG    1       -0.017   1.384   0.010  0.00  0.00    +0.070 A 
ATOM     11  C   LIG    1        0.002  -0.004   0.002  0.00  0.00    +0.010 A 
ATOM     12  C   LIG    1        1.198  -0.689  -0.013  0.00  0.00    +0.100 A 
ATOM     13  C   LIG    1        2.396   0.022  -0.021  0.00  0.00    -0.190 A 
ATOM     14  C   LIG    1        3.701  -0.653  -0.038  0.00  0.00    +0.560 A 
ATOM     15  O   LIG    1        3.785  -1.868  -0.045  0.00  0.00    -0.490 OA
ATOM     16  N   LIG    1        4.807   0.127  -0.045  0.00  0.00    -0.340 N 
ENDBRANCH   1  16
BRANCH   3  17
ATOM     17  C   LIG    1        7.909  -1.659   1.040  0.00  0.00    -0.070 A 
ATOM     18  C   LIG    1        8.662  -1.671  -0.136  0.00  0.00    +0.030 A 
ATOM     19  C   LIG    1        9.913  -2.253  -0.144  0.00  0.00    +0.120 A 
ATOM     20  C   LIG    1       10.417  -2.833   1.007  0.00  0.00    -0.640 A 
ATOM     21  C   LIG    1        9.673  -2.829   2.173  0.00  0.00    +0.130 A 
ATOM     22  C   LIG    1        8.423  -2.246   2.197  0.00  0.00    +0.080 A 
BRANCH  20  23
ATOM     23  S   LIG    1       12.013  -3.579   0.986  0.00  0.00    +2.500 S 
ATOM     24  O   LIG    1       12.456  -3.496   2.333  0.00  0.00    -0.930 OA
ATOM     25  O   LIG    1       12.703  -2.902  -0.056  0.00  0.00    -0.930 OA
ATOM     26  C   LIG    1       11.699  -5.305   0.524  0.00  0.00    -0.250 C 
ENDBRANCH  20  23
ENDBRANCH   3  17
TORSDOF 3
