REMARK  Name = ZINCrH000004t04j.0
REMARK                            x       y       z     vdW  Elec       q    Type
REMARK                         _______ _______ _______ _____ _____    ______ ____
ROOT
ATOM      1  C   LIG    1       -8.232  -3.028  -4.412  0.00  0.00    +0.600 C 
ATOM      2  N   LIG    1       -7.691  -2.863  -3.188  0.00  0.00    -0.610 N 
ATOM      3  C   LIG    1       -7.084  -3.996  -2.473  0.00  0.00    +0.300 C 
ATOM      4  C   LIG    1       -7.682  -4.058  -1.064  0.00  0.00    +0.170 C 
ATOM      5  N   LIG    1       -7.522  -2.753  -0.409  0.00  0.00    -0.530 NA
ATOM      6  C   LIG    1       -8.265  -1.705  -1.122  0.00  0.00    +0.170 C 
ATOM      7  C   LIG    1       -7.692  -1.546  -2.534  0.00  0.00    +0.280 C 
ATOM      8  O   LIG    1       -8.165  -4.108  -4.966  0.00  0.00    -0.540 OA
ENDROOT
BRANCH   1  12
ATOM      9  C   LIG    1      -11.486  -0.322  -7.069  0.00  0.00    +0.360 C 
ATOM     10  N   LIG    1      -10.338  -0.715  -6.246  0.00  0.00    -0.360 N 
ATOM     11  C   LIG    1      -10.066  -1.959  -5.823  0.00  0.00    +0.310 A 
ATOM     12  C   LIG    1       -8.906  -1.898  -5.078  0.00  0.00    -0.290 A 
ATOM     13  C   LIG    1       -8.481  -0.550  -5.079  0.00  0.00    +0.270 A 
ATOM     14  N   LIG    1       -9.338   0.143  -5.775  0.00  0.00    -0.290 NA
ENDBRANCH   1  12
BRANCH   5  15
ATOM     15  C   LIG    1       -7.926  -2.818   1.002  0.00  0.00    +0.270 C 
BRANCH  15  16
ATOM     16  C   LIG    1       -7.522  -1.545   1.699  0.00  0.00    -0.170 A 
ATOM     17  C   LIG    1       -8.281  -0.449   1.799  0.00  0.00    +0.010 A 
ATOM     18  C   LIG    1       -7.705   0.600   2.485  0.00  0.00    +0.020 A 
ATOM     19  C   LIG    1       -6.463   0.356   2.948  0.00  0.00    -0.150 A 
ATOM     20  S   LIG    1       -5.979  -1.274   2.498  0.00  0.00    +0.160 S 
BRANCH  19  21
ATOM     21  C   LIG    1       -5.633   1.313   3.710  0.00  0.00    -0.000 A 
ATOM     22  C   LIG    1       -6.124   2.585   4.008  0.00  0.00    +0.030 A 
ATOM     23  C   LIG    1       -5.343   3.475   4.716  0.00  0.00    +0.040 A 
ATOM     24  C   LIG    1       -4.077   3.109   5.134  0.00  0.00    +0.030 A 
ATOM     25  C   LIG    1       -3.584   1.847   4.846  0.00  0.00    -0.030 A 
ATOM     26 CL   LIG    1       -1.993   1.397   5.375  0.00  0.00    -0.060 Cl
ATOM     27  C   LIG    1       -4.356   0.947   4.139  0.00  0.00    +0.020 A 
ENDBRANCH  19  21
ENDBRANCH  15  16
ENDBRANCH   5  15
TORSDOF 4
