REMARK  Name = ZINCqH0000008w72.0
REMARK                            x       y       z     vdW  Elec       q    Type
REMARK                         _______ _______ _______ _____ _____    ______ ____
ROOT
ATOM      1  S   LIG    1        6.358   0.989  -0.204  0.00  0.00    +0.080 S 
ENDROOT
BRANCH   1   2
ATOM      2  C   LIG    1        4.604   0.869  -0.089  0.00  0.00    +0.150 A 
ATOM      3  N   LIG    1        3.905  -0.236   0.043  0.00  0.00    -0.290 NA
ATOM      4  N   LIG    1        2.651   0.039   0.096  0.00  0.00    -0.250 NA
ATOM      5  C   LIG    1        2.472   1.336   0.000  0.00  0.00    +0.220 A 
ATOM      6  N   LIG    1        3.717   1.907  -0.127  0.00  0.00    -0.460 N 
ATOM      7  C   LIG    1        4.027   3.332  -0.270  0.00  0.00    +0.360 C 
BRANCH   5   8
ATOM      8  C   LIG    1        1.176   2.048   0.019  0.00  0.00    -0.060 A 
ATOM      9  C   LIG    1        0.999   3.158   0.846  0.00  0.00    +0.060 A 
ATOM     10  C   LIG    1       -0.213   3.818   0.858  0.00  0.00    +0.010 A 
ATOM     11  C   LIG    1       -1.251   3.383   0.055  0.00  0.00    +0.070 A 
ATOM     12  C   LIG    1       -1.082   2.287  -0.772  0.00  0.00    +0.000 A 
ATOM     13  C   LIG    1        0.124   1.612  -0.791  0.00  0.00    +0.140 A 
ATOM     14  F   LIG    1        0.287   0.539  -1.595  0.00  0.00    -0.120 F 
ENDBRANCH   5   8
ENDBRANCH   1   2
BRANCH   1  16
ATOM     15  C   LIG    1        6.414  -1.295   1.294  0.00  0.00    +0.080 C 
ATOM     16  C   LIG    1        6.801  -0.762  -0.087  0.00  0.00    +0.020 C 
BRANCH  16  17
ATOM     17  C   LIG    1        8.286  -0.920  -0.287  0.00  0.00    +0.530 C 
ATOM     18  N   LIG    1        8.785  -2.087  -0.740  0.00  0.00    -0.650 N 
ATOM     19  H   LIG    1        8.184  -2.798  -1.012  0.00  0.00    +0.420 HD
ATOM     20  O   LIG    1        9.032   0.004  -0.042  0.00  0.00    -0.450 OA
BRANCH  18  21
ATOM     21  C   LIG    1       10.165  -2.272  -0.818  0.00  0.00    +0.360 A 
ATOM     22  C   LIG    1       10.673  -3.432  -1.391  0.00  0.00    -0.040 A 
ATOM     23  C   LIG    1       12.044  -3.603  -1.462  0.00  0.00    +0.110 A 
ATOM     24  C   LIG    1       12.864  -2.603  -0.955  0.00  0.00    -0.120 A 
ATOM     25  C   LIG    1       12.290  -1.475  -0.399  0.00  0.00    +0.320 A 
ATOM     26 CL   LIG    1       14.591  -2.768  -1.019  0.00  0.00    -0.050 Cl
ATOM     27  N   LIG    1       10.979  -1.339  -0.350  0.00  0.00    -0.460 NA
ENDBRANCH  18  21
ENDBRANCH  16  17
ENDBRANCH   1  16
TORSDOF 5
