REMARK  Name = ZINCqH0000008lSw.0
REMARK                            x       y       z     vdW  Elec       q    Type
REMARK                         _______ _______ _______ _____ _____    ______ ____
ROOT
ATOM      1  N   LIG    1       -0.864  -5.036  -0.018  0.00  0.00    -0.720 N 
ATOM      2  H   LIG    1       -1.766  -4.679  -0.008  0.00  0.00    +0.400 HD
ATOM      3  C   LIG    1        0.192  -4.198  -0.024  0.00  0.00    +0.510 C 
ATOM      4  O   LIG    1        1.320  -4.644  -0.037  0.00  0.00    -0.490 OA
ENDROOT
BRANCH   1   6
ATOM      5  C   LIG    1       -0.464  -6.963  -1.470  0.00  0.00    +0.040 C 
ATOM      6  C   LIG    1       -0.650  -6.485  -0.029  0.00  0.00    +0.290 C 
BRANCH   6   7
ATOM      7  C   LIG    1       -1.844  -7.174   0.579  0.00  0.00    -0.100 A 
ATOM      8  C   LIG    1       -3.121  -6.721   0.302  0.00  0.00    +0.000 A 
ATOM      9  C   LIG    1       -4.209  -7.356   0.865  0.00  0.00    +0.000 A 
ATOM     10  C   LIG    1       -4.033  -8.445   1.707  0.00  0.00    -0.070 A 
ATOM     11  C   LIG    1       -5.264  -9.081   2.298  0.00  0.00    +0.080 C 
ATOM     12  C   LIG    1       -4.947 -10.479   2.826  0.00  0.00    +0.020 C 
ATOM     13  C   LIG    1       -3.719 -10.383   3.740  0.00  0.00    +0.020 C 
ATOM     14  C   LIG    1       -2.497 -10.081   2.874  0.00  0.00    +0.080 C 
ATOM     15  C   LIG    1       -2.762  -8.899   1.979  0.00  0.00    -0.070 A 
ATOM     16  C   LIG    1       -1.668  -8.262   1.409  0.00  0.00    +0.010 A 
ENDBRANCH   6   7
ENDBRANCH   1   6
BRANCH   3  17
ATOM     17  C   LIG    1       -0.029  -2.707  -0.013  0.00  0.00    +0.230 C 
BRANCH  17  18
ATOM     18  O   LIG    1        1.234  -2.039  -0.021  0.00  0.00    -0.260 OA
BRANCH  18  19
ATOM     19  C   LIG    1        1.213  -0.680  -0.013  0.00  0.00    +0.190 A 
ATOM     20  C   LIG    1        0.002  -0.004   0.002  0.00  0.00    -0.070 A 
ATOM     21  C   LIG    1       -0.017   1.377   0.010  0.00  0.00    +0.120 A 
ATOM     22  C   LIG    1        1.170   2.086   0.002  0.00  0.00    +0.000 A 
ATOM     23  C   LIG    1        2.379   1.415  -0.013  0.00  0.00    +0.140 A 
ATOM     24  C   LIG    1        2.403   0.034  -0.021  0.00  0.00    -0.080 A 
BRANCH  24  25
ATOM     25  N   LIG    1        3.697  -0.685  -0.037  0.00  0.00    +0.030 N 
ATOM     26  O   LIG    1        3.718  -1.902  -0.043  0.00  0.00    -0.120 OA
ATOM     27  O   LIG    1        4.742  -0.058  -0.043  0.00  0.00    -0.180 OA
ENDBRANCH  24  25
ENDBRANCH  18  19
ENDBRANCH  17  18
ENDBRANCH   3  17
TORSDOF 6
