REMARK  Name = ZINCtV00000L6kor.0
REMARK                            x       y       z     vdW  Elec       q    Type
REMARK                         _______ _______ _______ _____ _____    ______ ____
ROOT
ATOM      1  C   LIG    1        1.126   3.649   0.163  0.00  0.00    +0.100 C 
ATOM      2  C   LIG    1        1.146   2.152  -0.009  0.00  0.00    -0.110 A 
ATOM      3  C   LIG    1        2.349   1.492  -0.141  0.00  0.00    +0.100 A 
ATOM      4  C   LIG    1        2.365   0.108  -0.300  0.00  0.00    -0.090 A 
ATOM      5  C   LIG    1        1.162  -0.611  -0.327  0.00  0.00    +0.160 A 
ATOM      6  N   LIG    1        1.454  -1.955  -0.494  0.00  0.00    -0.490 N 
ATOM      7  C   LIG    1        2.818  -2.145  -0.579  0.00  0.00    +0.320 A 
ATOM      8  N   LIG    1        3.549  -3.233  -0.737  0.00  0.00    -0.460 NA
ATOM      9  C   LIG    1        4.881  -3.140  -0.788  0.00  0.00    +0.130 A 
ATOM     10  C   LIG    1        5.678  -4.287  -0.955  0.00  0.00    +0.040 A 
ATOM     11  C   LIG    1        7.033  -4.167  -1.004  0.00  0.00    +0.060 A 
ATOM     12  C   LIG    1        7.648  -2.921  -0.890  0.00  0.00    +0.030 A 
ATOM     13  C   LIG    1        6.912  -1.789  -0.727  0.00  0.00    +0.070 A 
ATOM     14  C   LIG    1        5.508  -1.872  -0.672  0.00  0.00    +0.060 A 
ATOM     15  N   LIG    1        4.763  -0.775  -0.513  0.00  0.00    -0.390 NA
ATOM     16  C   LIG    1       -0.042   0.073  -0.192  0.00  0.00    -0.100 A 
ATOM     17  C   LIG    1       -1.345  -0.684  -0.217  0.00  0.00    +0.100 C 
ATOM     18  C   LIG    1        3.449  -0.880  -0.463  0.00  0.00    +0.110 A 
ATOM     19  C   LIG    1       -0.044   1.443  -0.035  0.00  0.00    +0.070 A 
ENDROOT
BRANCH   6  20
ATOM     20  C   LIG    1        0.456  -3.025  -0.569  0.00  0.00    +0.330 C 
BRANCH  20  21
ATOM     21  C   LIG    1        0.171  -3.557   0.837  0.00  0.00    +0.180 C 
BRANCH  21  22
ATOM     22  O   LIG    1       -0.803  -4.599   0.764  0.00  0.00    -0.310 OA
BRANCH  22  23
ATOM     23  C   LIG    1       -1.170  -5.184   1.935  0.00  0.00    +0.140 A 
ATOM     24  C   LIG    1       -0.600  -4.766   3.129  0.00  0.00    -0.070 A 
ATOM     25  C   LIG    1       -0.978  -5.358   4.318  0.00  0.00    +0.070 A 
ATOM     26  C   LIG    1       -1.917  -6.374   4.318  0.00  0.00    -0.070 A 
ATOM     27  C   LIG    1       -2.483  -6.796   3.128  0.00  0.00    +0.070 A 
ATOM     28 CL   LIG    1       -2.386  -7.121   5.814  0.00  0.00    -0.070 Cl
ATOM     29  C   LIG    1       -2.111  -6.203   1.937  0.00  0.00    +0.000 A 
ENDBRANCH  22  23
ENDBRANCH  21  22
ENDBRANCH  20  21
ENDBRANCH   6  20
TORSDOF 4
