REMARK  Name = ZINCqH0000032MCH.0
REMARK                            x       y       z     vdW  Elec       q    Type
REMARK                         _______ _______ _______ _____ _____    ______ ____
ROOT
ATOM      1  N   LIG    1        0.014   1.410  -0.162  0.00  0.00    -0.720 N 
ATOM      2  H   LIG    1       -0.086   0.466  -0.361  0.00  0.00    +0.400 HD
ATOM      3  C   LIG    1       -1.074   2.203  -0.097  0.00  0.00    +0.500 C 
ATOM      4  O   LIG    1       -0.944   3.398   0.062  0.00  0.00    -0.520 OA
ENDROOT
BRANCH   1   5
ATOM      5  C   LIG    1        1.347   1.974   0.063  0.00  0.00    +0.340 C 
BRANCH   5   6
ATOM      6  C   LIG    1        2.391   1.013  -0.443  0.00  0.00    -0.190 A 
ATOM      7  C   LIG    1        3.546   1.361  -1.012  0.00  0.00    +0.020 A 
ATOM      8  C   LIG    1        4.349   0.302  -1.398  0.00  0.00    +0.010 A 
ATOM      9  C   LIG    1        3.847  -0.907  -1.142  0.00  0.00    -0.040 A 
ATOM     10  S   LIG    1        2.277  -0.741  -0.365  0.00  0.00    +0.110 S 
ENDBRANCH   5   6
BRANCH   5  11
ATOM     11  C   LIG    1        1.554   2.212   1.560  0.00  0.00    +0.000 C 
BRANCH  11  13
ATOM     12  C   LIG    1        0.210   0.213   2.222  0.00  0.00    +0.010 C 
ATOM     13  C   LIG    1        1.591   0.868   2.290  0.00  0.00    +0.010 C 
ENDBRANCH  11  13
BRANCH  11  14
ATOM     14  C   LIG    1        2.877   2.949   1.780  0.00  0.00    +0.020 C 
ATOM     15  C   LIG    1        2.786   4.353   1.180  0.00  0.00    +0.020 C 
ENDBRANCH  11  14
ENDBRANCH   5  11
ENDBRANCH   1   5
BRANCH   3  16
ATOM     16  C   LIG    1       -2.451   1.605  -0.221  0.00  0.00    +0.330 C 
BRANCH  16  17
ATOM     17  N   LIG    1       -3.456   2.666  -0.118  0.00  0.00    -0.530 N 
ATOM     18  C   LIG    1       -3.961   2.999   1.098  0.00  0.00    +0.580 A 
ATOM     19  N   LIG    1       -4.849   3.931   1.272  0.00  0.00    -0.520 NA
ATOM     20  C   LIG    1       -5.349   4.640   0.229  0.00  0.00    +0.150 A 
ATOM     21  C   LIG    1       -6.307   5.638   0.414  0.00  0.00    +0.030 A 
ATOM     22  C   LIG    1       -6.788   6.332  -0.673  0.00  0.00    +0.070 A 
ATOM     23  C   LIG    1       -6.331   6.053  -1.954  0.00  0.00    -0.010 A 
ATOM     24  C   LIG    1       -5.385   5.073  -2.163  0.00  0.00    +0.100 A 
ATOM     25  C   LIG    1       -4.886   4.359  -1.076  0.00  0.00    -0.190 A 
ATOM     26  C   LIG    1       -3.876   3.302  -1.237  0.00  0.00    +0.550 A 
ATOM     27  O   LIG    1       -3.435   3.010  -2.333  0.00  0.00    -0.510 OA
ENDBRANCH  16  17
ENDBRANCH   3  16
TORSDOF 7
