REMARK  Name = ZINCqH0000008P21.0
REMARK                            x       y       z     vdW  Elec       q    Type
REMARK                         _______ _______ _______ _____ _____    ______ ____
ROOT
ATOM      1  C   LIG    1        1.631   5.235  -1.427  0.00  0.00    +0.320 C 
ENDROOT
BRANCH   1  11
ATOM      2  C   LIG    1        4.786   8.134   0.055  0.00  0.00    +0.060 C 
ATOM      3  C   LIG    1        4.538   7.733  -1.401  0.00  0.00    +0.230 C 
ATOM      4  O   LIG    1        3.797   8.764  -2.059  0.00  0.00    -0.300 OA
ATOM      5  C   LIG    1        2.479   8.869  -1.738  0.00  0.00    +0.080 A 
ATOM      6  C   LIG    1        1.852  10.102  -1.731  0.00  0.00    +0.030 A 
ATOM      7  C   LIG    1        0.511  10.191  -1.402  0.00  0.00    +0.030 A 
ATOM      8  C   LIG    1       -0.205   9.052  -1.081  0.00  0.00    +0.020 A 
ATOM      9  C   LIG    1        0.416   7.816  -1.087  0.00  0.00    +0.000 A 
ATOM     10  C   LIG    1        1.758   7.721  -1.420  0.00  0.00    +0.090 A 
ATOM     11  N   LIG    1        2.406   6.478  -1.427  0.00  0.00    -0.550 N 
ATOM     12  C   LIG    1        3.757   6.444  -1.439  0.00  0.00    +0.490 C 
ATOM     13  O   LIG    1        4.339   5.380  -1.481  0.00  0.00    -0.500 OA
ENDBRANCH   1  11
BRANCH   1  14
ATOM     14  C   LIG    1        1.374   4.794   0.015  0.00  0.00    +0.180 C 
BRANCH  14  15
ATOM     15  C   LIG    1        0.577   3.515   0.015  0.00  0.00    +0.190 A 
ATOM     16  N   LIG    1        1.059   2.297   0.004  0.00  0.00    -0.460 NA
ATOM     17  C   LIG    1       -0.018   1.480   0.010  0.00  0.00    +0.210 A 
ATOM     18  N   LIG    1       -1.081   2.242   0.019  0.00  0.00    -0.370 NA
ATOM     19  O   LIG    1       -0.756   3.410   0.028  0.00  0.00    +0.090 OA
BRANCH  17  20
ATOM     20  C   LIG    1        0.002  -0.004   0.002  0.00  0.00    -0.010 A 
ATOM     21  C   LIG    1        1.216  -0.686  -0.019  0.00  0.00    +0.070 A 
ATOM     22  C   LIG    1        1.230  -2.067  -0.021  0.00  0.00    +0.030 A 
ATOM     23  C   LIG    1        0.041  -2.773  -0.014  0.00  0.00    +0.050 A 
ATOM     24  C   LIG    1       -1.169  -2.100   0.002  0.00  0.00    -0.040 A 
ATOM     25 CL   LIG    1       -2.657  -2.994   0.011  0.00  0.00    -0.060 Cl
ATOM     26  C   LIG    1       -1.194  -0.719   0.010  0.00  0.00    +0.060 A 
ENDBRANCH  17  20
ENDBRANCH  14  15
ENDBRANCH   1  14
TORSDOF 4
