REMARK  Name = ZINCpe000000XL0l.0
REMARK                            x       y       z     vdW  Elec       q    Type
REMARK                         _______ _______ _______ _____ _____    ______ ____
ROOT
ATOM      1  N   LIG    1        0.059  -2.282   2.888  0.00  0.00    -0.680 N 
ATOM      2  H   LIG    1        0.133  -1.658   3.626  0.00  0.00    +0.410 HD
ATOM      3  C   LIG    1        0.038  -1.826   1.620  0.00  0.00    +0.710 C 
ATOM      4  N   LIG    1        0.005  -0.500   1.381  0.00  0.00    -0.740 N 
ATOM      5  H   LIG    1       -0.003   0.126   2.122  0.00  0.00    +0.400 HD
ATOM      6  O   LIG    1        0.049  -2.611   0.691  0.00  0.00    -0.560 OA
ENDROOT
BRANCH   1  13
ATOM      7  C   LIG    1        1.159  -3.273   5.316  0.00  0.00    +0.110 C 
ATOM      8  C   LIG    1        0.499  -4.183   4.312  0.00  0.00    -0.110 A 
ATOM      9  C   LIG    1        0.411  -5.538   4.562  0.00  0.00    +0.080 A 
ATOM     10  C   LIG    1       -0.188  -6.376   3.641  0.00  0.00    +0.000 A 
ATOM     11  C   LIG    1       -0.710  -5.857   2.464  0.00  0.00    +0.140 A 
ATOM     12  C   LIG    1       -0.628  -4.495   2.212  0.00  0.00    +0.060 A 
ATOM     13  C   LIG    1       -0.025  -3.656   3.138  0.00  0.00    +0.190 A 
BRANCH  11  14
ATOM     14  N   LIG    1       -1.318  -6.708   1.530  0.00  0.00    -0.330 N 
ATOM     15  C   LIG    1       -1.473  -8.047   1.620  0.00  0.00    +0.470 A 
ATOM     16  N   LIG    1       -2.094  -8.440   0.538  0.00  0.00    -0.330 NA
ATOM     17  N   LIG    1       -2.333  -7.441  -0.234  0.00  0.00    -0.040 NA
ATOM     18  N   LIG    1       -1.893  -6.352   0.297  0.00  0.00    -0.070 NA
ENDBRANCH  11  14
ENDBRANCH   1  13
BRANCH   4  19
ATOM     19  C   LIG    1       -0.018  -0.004   0.003  0.00  0.00    +0.430 C 
BRANCH  19  20
ATOM     20  C   LIG    1       -0.053   1.503   0.011  0.00  0.00    +0.170 A 
ATOM     21  N   LIG    1        0.980   2.301   0.007  0.00  0.00    -0.260 NA
ATOM     22  N   LIG    1        0.582   3.523   0.018  0.00  0.00    -0.280 NA
ATOM     23  C   LIG    1       -0.725   3.560   0.033  0.00  0.00    +0.170 A 
ATOM     24  C   LIG    1       -1.903   4.510   0.055  0.00  0.00    +0.180 C 
ATOM     25  C   LIG    1       -3.096   3.626   0.484  0.00  0.00    +0.070 C 
ATOM     26  C   LIG    1       -2.630   2.225   0.034  0.00  0.00    +0.300 C 
ATOM     27  N   LIG    1       -1.163   2.281   0.020  0.00  0.00    -0.490 N 
ENDBRANCH  19  20
ENDBRANCH   4  19
TORSDOF 4
