REMARK  Name = ZINCqH0000037Eqc.1
REMARK                            x       y       z     vdW  Elec       q    Type
REMARK                         _______ _______ _______ _____ _____    ______ ____
ROOT
ATOM      1  C   LIG    1        4.787   2.452  -0.029  0.00  0.00    +0.350 C 
ENDROOT
BRANCH   1   4
ATOM      2  C   LIG    1        3.062   5.037   0.000  0.00  0.00    +0.120 C 
ATOM      3  C   LIG    1        2.548   3.620  -0.003  0.00  0.00    -0.160 A 
ATOM      4  C   LIG    1        3.281   2.499  -0.015  0.00  0.00    +0.030 A 
ATOM      5  O   LIG    1        2.478   1.420  -0.013  0.00  0.00    -0.190 OA
ATOM      6  C   LIG    1        1.180   1.787   0.000  0.00  0.00    +0.060 A 
ATOM      7  C   LIG    1       -0.013   1.076   0.008  0.00  0.00    +0.020 A 
ATOM      8  C   LIG    1       -1.216   1.749   0.017  0.00  0.00    +0.050 A 
ATOM      9  C   LIG    1       -1.250   3.136   0.029  0.00  0.00    -0.010 A 
ATOM     10  C   LIG    1       -0.079   3.860   0.022  0.00  0.00    +0.060 A 
ATOM     11  C   LIG    1        1.144   3.192   0.008  0.00  0.00    -0.130 A 
ENDBRANCH   1   4
BRANCH   1  12
ATOM     12  N   LIG    1        5.236   1.466  -1.015  0.00  0.00    -0.720 N 
ATOM     13  H   LIG    1        4.654   0.731  -1.265  0.00  0.00    +0.410 HD
ATOM     14  C   LIG    1        6.457   1.580  -1.575  0.00  0.00    +0.600 C 
ATOM     15  O   LIG    1        7.186   2.502  -1.262  0.00  0.00    -0.550 OA
BRANCH  14  16
ATOM     16  C   LIG    1        6.908   0.588  -2.566  0.00  0.00    -0.230 A 
ATOM     17  C   LIG    1        8.104   0.566  -3.216  0.00  0.00    +0.070 A 
ATOM     18  C   LIG    1        9.245   1.544  -3.075  0.00  0.00    +0.330 C 
ATOM     19  N   LIG    1       10.448   0.932  -3.666  0.00  0.00    -0.680 NA
ATOM     20  H   LIG    1       10.818   0.209  -3.067  0.00  0.00    +0.350 HD
ATOM     21  C   LIG    1       10.166   0.408  -5.010  0.00  0.00    +0.230 C 
ATOM     22  C   LIG    1        9.273  -0.834  -4.903  0.00  0.00    +0.250 C 
ATOM     23  N   LIG    1        8.127  -0.507  -4.042  0.00  0.00    -0.450 N 
ATOM     24  C   LIG    1        6.956  -1.196  -3.943  0.00  0.00    +0.160 A 
ATOM     25  C   LIG    1        6.162  -0.581  -3.048  0.00  0.00    -0.020 A 
ENDBRANCH  14  16
ENDBRANCH   1  12
BRANCH   1  26
ATOM     26  C   LIG    1        5.299   2.057   1.357  0.00  0.00    -0.020 C 
ATOM     27  C   LIG    1        4.750   0.678   1.729  0.00  0.00    +0.030 C 
ATOM     28  C   LIG    1        4.830   3.087   2.387  0.00  0.00    +0.030 C 
ENDBRANCH   1  26
TORSDOF 4
