REMARK  Name = ZINCqH0000001PmR.0
REMARK                            x       y       z     vdW  Elec       q    Type
REMARK                         _______ _______ _______ _____ _____    ______ ____
ROOT
ATOM      1  N   LIG    1       -2.417   3.852   0.044  0.00  0.00    -0.680 N 
ATOM      2  H   LIG    1       -2.422   4.819   0.120  0.00  0.00    +0.420 HD
ATOM      3  C   LIG    1       -3.579   3.176  -0.050  0.00  0.00    +0.520 C 
ATOM      4  O   LIG    1       -3.578   1.964  -0.057  0.00  0.00    -0.510 OA
ENDROOT
BRANCH   1  11
ATOM      5  C   LIG    1        2.025   2.839  -1.722  0.00  0.00    +0.150 A 
ATOM      6  N   LIG    1        2.883   1.954  -1.282  0.00  0.00    -0.240 NA
ATOM      7  N   LIG    1        2.400   1.333  -0.264  0.00  0.00    -0.280 NA
ATOM      8  C   LIG    1        1.190   1.798   0.004  0.00  0.00    +0.190 A 
ATOM      9  C   LIG    1        0.230   1.487   0.986  0.00  0.00    +0.100 A 
ATOM     10  C   LIG    1       -0.953   2.155   0.997  0.00  0.00    +0.070 A 
ATOM     11  C   LIG    1       -1.199   3.156   0.034  0.00  0.00    +0.140 A 
ATOM     12  C   LIG    1       -0.265   3.444  -0.905  0.00  0.00    +0.220 A 
ATOM     13  N   LIG    1        0.924   2.773  -0.925  0.00  0.00    -0.380 N 
BRANCH   5  15
ATOM     14  C   LIG    1        3.439   4.654  -2.647  0.00  0.00    +0.060 C 
ATOM     15  C   LIG    1        2.221   3.763  -2.896  0.00  0.00    +0.080 C 
ATOM     16  C   LIG    1        2.445   2.935  -4.164  0.00  0.00    +0.060 C 
ENDBRANCH   5  15
ENDBRANCH   1  11
BRANCH   3  17
ATOM     17  C   LIG    1       -4.881   3.929  -0.148  0.00  0.00    +0.080 C 
BRANCH  17  18
ATOM     18  C   LIG    1       -6.039   2.933  -0.244  0.00  0.00    +0.210 C 
BRANCH  18  19
ATOM     19  C   LIG    1       -7.342   3.686  -0.342  0.00  0.00    +0.180 A 
ATOM     20  N   LIG    1       -7.915   4.069  -1.447  0.00  0.00    -0.470 NA
ATOM     21  C   LIG    1       -9.057   4.709  -1.141  0.00  0.00    +0.140 A 
ATOM     22  C   LIG    1       -9.177   4.710   0.197  0.00  0.00    -0.030 A 
ATOM     23  O   LIG    1       -8.104   4.064   0.693  0.00  0.00    -0.190 OA
BRANCH  22  24
ATOM     24  C   LIG    1      -10.304   5.316   0.994  0.00  0.00    +0.020 C 
ATOM     25  C   LIG    1      -10.383   6.816   0.707  0.00  0.00    +0.050 C 
ATOM     26  C   LIG    1      -10.049   5.095   2.487  0.00  0.00    +0.040 C 
ATOM     27  C   LIG    1      -11.624   4.650   0.598  0.00  0.00    +0.050 C 
ENDBRANCH  22  24
ENDBRANCH  18  19
ENDBRANCH  17  18
ENDBRANCH   3  17
TORSDOF 6
