REMARK  Name = ZINCpe000000Ykfi.0
REMARK                            x       y       z     vdW  Elec       q    Type
REMARK                         _______ _______ _______ _____ _____    ______ ____
ROOT
ATOM      1  N   LIG    1        3.298   7.904  -0.057  0.00  0.00    -0.720 N 
ATOM      2  H   LIG    1        3.855   7.422   0.574  0.00  0.00    +0.400 HD
ATOM      3  C   LIG    1        2.034   7.496  -0.290  0.00  0.00    +0.520 C 
ATOM      4  O   LIG    1        1.338   8.099  -1.079  0.00  0.00    -0.510 OA
ENDROOT
BRANCH   3   5
ATOM      5  C   LIG    1        1.487   6.291   0.431  0.00  0.00    +0.180 C 
ATOM      6  C   LIG    1        2.249   5.011   0.015  0.00  0.00    +0.110 C 
ATOM      7  C   LIG    1        1.142   3.975   0.010  0.00  0.00    -0.170 A 
ATOM      8  C   LIG    1        1.165   2.598   0.005  0.00  0.00    +0.100 A 
ATOM      9  C   LIG    1       -0.024   1.887   0.012  0.00  0.00    -0.120 A 
ATOM     10  C   LIG    1       -1.229   2.565   0.022  0.00  0.00    +0.090 A 
ATOM     11  C   LIG    1       -1.253   3.944   0.031  0.00  0.00    +0.010 A 
ATOM     12 BR   LIG    1        0.002  -0.004   0.002  0.00  0.00    -0.040 Br
ATOM     13  C   LIG    1       -0.063   4.666   0.018  0.00  0.00    +0.120 A 
ATOM     14  O   LIG    1        0.141   6.013   0.007  0.00  0.00    -0.270 OA
ENDBRANCH   3   5
BRANCH   1  15
ATOM     15  C   LIG    1        3.830   9.076  -0.757  0.00  0.00    +0.290 C 
BRANCH  15  16
ATOM     16  C   LIG    1        5.274   9.321  -0.316  0.00  0.00    +0.020 C 
BRANCH  16  17
ATOM     17  C   LIG    1        5.830  10.545  -1.047  0.00  0.00    +0.320 C 
BRANCH  17  23
ATOM     18  C   LIG    1        8.969  12.680   1.990  0.00  0.00    +0.340 C 
ATOM     19  N   LIG    1        8.726  11.808   0.838  0.00  0.00    -0.540 N 
ATOM     20  C   LIG    1        9.784  11.237   0.185  0.00  0.00    +0.350 A 
ATOM     21  C   LIG    1        9.560  10.433  -0.877  0.00  0.00    -0.130 A 
ATOM     22  C   LIG    1        8.228  10.198  -1.294  0.00  0.00    +0.540 A 
ATOM     23  N   LIG    1        7.213  10.780  -0.624  0.00  0.00    -0.550 N 
ATOM     24  O   LIG    1        8.001   9.478  -2.249  0.00  0.00    -0.510 OA
ATOM     25  C   LIG    1        7.465  11.581   0.428  0.00  0.00    +0.690 A 
ATOM     26  O   LIG    1        6.539  12.103   1.019  0.00  0.00    -0.530 OA
ENDBRANCH  17  23
ENDBRANCH  16  17
ENDBRANCH  15  16
ENDBRANCH   1  15
TORSDOF 5
