REMARK  Name = ZINCpk00001AZiKC.0
REMARK                            x       y       z     vdW  Elec       q    Type
REMARK                         _______ _______ _______ _____ _____    ______ ____
ROOT
ATOM      1  C   LIG    1       -0.082   2.189  -2.186  0.00  0.00    +0.570 C 
ATOM      2  N   LIG    1       -0.560   2.545  -0.978  0.00  0.00    -0.610 N 
ATOM      3  C   LIG    1       -1.738   3.419  -0.854  0.00  0.00    +0.260 C 
ATOM      4  C   LIG    1       -1.391   4.574   0.092  0.00  0.00    +0.220 C 
ATOM      5  O   LIG    1       -0.881   4.042   1.319  0.00  0.00    -0.350 OA
ATOM      6  C   LIG    1        0.302   3.270   1.177  0.00  0.00    +0.090 C 
ATOM      7  C   LIG    1        0.821   2.806   2.555  0.00  0.00    +0.080 C 
ATOM      8  C   LIG    1        1.635   4.025   3.045  0.00  0.00    +0.260 C 
ATOM      9  N   LIG    1        1.993   4.816   1.858  0.00  0.00    -0.610 N 
ATOM     10  C   LIG    1        2.689   5.971   1.865  0.00  0.00    +0.560 C 
ATOM     11  O   LIG    1        2.930   6.542   0.818  0.00  0.00    -0.540 OA
ATOM     12  C   LIG    1        1.465   4.138   0.658  0.00  0.00    +0.250 C 
ATOM     13  C   LIG    1        0.080   2.072   0.263  0.00  0.00    +0.300 C 
ATOM     14  O   LIG    1        0.950   1.550  -2.268  0.00  0.00    -0.510 OA
ENDROOT
BRANCH   1  19
ATOM     15  C   LIG    1       -0.816   3.473  -5.653  0.00  0.00    -0.020 A 
ATOM     16  C   LIG    1       -2.198   3.294  -5.711  0.00  0.00    +0.100 A 
ATOM     17  C   LIG    1       -2.877   2.762  -4.632  0.00  0.00    +0.020 A 
ATOM     18  C   LIG    1       -2.194   2.398  -3.489  0.00  0.00    +0.090 A 
ATOM     19  C   LIG    1       -0.810   2.575  -3.412  0.00  0.00    -0.170 A 
ATOM     20  C   LIG    1       -0.117   3.112  -4.499  0.00  0.00    +0.170 A 
ATOM     21  F   LIG    1        1.221   3.281  -4.434  0.00  0.00    -0.110 F 
BRANCH  15  23
ATOM     22  C   LIG    1        0.460   4.476  -7.692  0.00  0.00    +0.090 C 
ATOM     23  C   LIG    1       -0.115   4.024  -6.773  0.00  0.00    -0.170 C 
ENDBRANCH  15  23
ENDBRANCH   1  19
BRANCH  10  24
ATOM     24  C   LIG    1        3.158   6.539   3.138  0.00  0.00    -0.080 C 
ATOM     25  C   LIG    1        3.845   7.678   3.145  0.00  0.00    +0.140 C 
ENDBRANCH  10  24
TORSDOF 3
