REMARK  Name = ZINCnE000001DZ2i.0
REMARK                            x       y       z     vdW  Elec       q    Type
REMARK                         _______ _______ _______ _____ _____    ______ ____
ROOT
ATOM      1  C   LIG    1       -7.592   0.657   0.800  0.00  0.00    -0.010 C 
ATOM      2  C   LIG    1       -7.573   0.628  -0.730  0.00  0.00    +0.020 C 
ATOM      3  C   LIG    1       -6.125   0.510  -1.222  0.00  0.00    +0.100 C 
ATOM      4  C   LIG    1       -5.297   1.561  -0.523  0.00  0.00    +0.120 A 
ATOM      5  C   LIG    1       -5.691   2.218   0.593  0.00  0.00    -0.450 A 
ATOM      6  C   LIG    1       -4.669   3.116   0.959  0.00  0.00    +0.490 A 
ATOM      7  N   LIG    1       -3.676   2.993   0.052  0.00  0.00    -0.400 N 
ATOM      8  O   LIG    1       -4.680   3.868   1.917  0.00  0.00    -0.630 OA
ATOM      9  N   LIG    1       -4.064   2.016  -0.876  0.00  0.00    -0.400 NA
ATOM     10  C   LIG    1       -7.008   1.987   1.293  0.00  0.00    +0.080 C 
ENDROOT
BRANCH   7  11
ATOM     11  C   LIG    1       -2.481   3.703   0.044  0.00  0.00    +0.300 A 
ATOM     12  C   LIG    1       -2.473   5.087   0.051  0.00  0.00    -0.060 A 
ATOM     13  C   LIG    1       -1.264   5.771   0.043  0.00  0.00    +0.320 A 
ATOM     14  N   LIG    1       -0.114   5.139   0.030  0.00  0.00    -0.500 NA
ATOM     15  C   LIG    1       -0.047   3.804   0.022  0.00  0.00    +0.090 A 
ATOM     16  C   LIG    1        1.194   3.138   0.007  0.00  0.00    +0.080 A 
ATOM     17  C   LIG    1        1.194   1.772   0.000  0.00  0.00    -0.020 A 
ATOM     18  C   LIG    1       -0.013   1.076   0.008  0.00  0.00    +0.260 A 
ATOM     19  N   LIG    1       -1.166   1.700   0.017  0.00  0.00    -0.420 NA
ATOM     20  C   LIG    1       -1.233   3.032   0.029  0.00  0.00    +0.060 A 
ENDBRANCH   7  11
BRANCH   1  22
ATOM     21  C   LIG    1       -9.615  -0.808   0.804  0.00  0.00    +0.010 C 
ATOM     22  C   LIG    1       -9.033   0.518   1.296  0.00  0.00    -0.020 C 
ATOM     23  C   LIG    1       -9.051   0.548   2.825  0.00  0.00    +0.000 C 
ENDBRANCH   1  22
TORSDOF 2
