REMARK  Name = ZINCpk00000eaFEE.0
REMARK                            x       y       z     vdW  Elec       q    Type
REMARK                         _______ _______ _______ _____ _____    ______ ____
ROOT
ATOM      1  C   LIG    1       -1.411   6.080   1.353  0.00  0.00    +0.080 C 
ATOM      2  C   LIG    1       -2.159   5.784   0.051  0.00  0.00    +0.020 C 
ENDROOT
BRANCH   2   3
ATOM      3  C   LIG    1       -3.357   6.691  -0.057  0.00  0.00    +0.540 C 
ATOM      4  N   LIG    1       -3.220   7.930  -0.569  0.00  0.00    -0.690 N 
ATOM      5  H   LIG    1       -2.350   8.238  -0.867  0.00  0.00    +0.410 HD
ATOM      6  C   LIG    1       -4.292   8.741  -0.666  0.00  0.00    +0.700 C 
ATOM      7  N   LIG    1       -4.155   9.980  -1.177  0.00  0.00    -0.730 N 
ATOM      8  H   LIG    1       -3.285  10.289  -1.475  0.00  0.00    +0.400 HD
ATOM      9  O   LIG    1       -5.382   8.355  -0.292  0.00  0.00    -0.520 OA
ATOM     10  O   LIG    1       -4.444   6.305   0.316  0.00  0.00    -0.450 OA
BRANCH   7  11
ATOM     11  C   LIG    1       -5.321  10.862  -1.283  0.00  0.00    +0.180 C 
ATOM     12  C   LIG    1       -6.376  10.208  -2.177  0.00  0.00    +0.030 C 
ATOM     13  C   LIG    1       -4.895  12.200  -1.891  0.00  0.00    +0.040 C 
ATOM     14  C   LIG    1       -5.908  11.100   0.110  0.00  0.00    +0.030 C 
ENDBRANCH   7  11
ENDBRANCH   2   3
BRANCH   2  15
ATOM     15  S   LIG    1       -2.706   4.054   0.048  0.00  0.00    +0.030 S 
BRANCH  15  16
ATOM     16  C   LIG    1       -1.190   3.158   0.030  0.00  0.00    +0.150 A 
ATOM     17  C   LIG    1       -1.211   1.767   0.017  0.00  0.00    -0.020 A 
ATOM     18  C   LIG    1       -0.013   1.076   0.008  0.00  0.00    +0.210 A 
ATOM     19  C   LIG    1        1.171   1.802   0.001  0.00  0.00    -0.750 A 
ATOM     20  C   LIG    1        1.119   3.182   0.009  0.00  0.00    +0.400 A 
ATOM     21  N   LIG    1       -0.039   3.815   0.023  0.00  0.00    -0.500 NA
BRANCH  19  22
ATOM     22  S   LIG    1        2.725   0.971  -0.019  0.00  0.00    +2.700 S 
ATOM     23  O   LIG    1        2.494  -0.324   0.520  0.00  0.00    -0.950 OA
ATOM     24  O   LIG    1        3.673   1.880   0.521  0.00  0.00    -0.950 OA
BRANCH  22  25
ATOM     25  N   LIG    1        3.141   0.749  -1.607  0.00  0.00    -1.000 NA
ATOM     26  C   LIG    1        2.727  -0.468  -2.309  0.00  0.00    +0.310 C 
ATOM     27  C   LIG    1        3.924   1.769  -2.308  0.00  0.00    +0.300 C 
ENDBRANCH  22  25
ENDBRANCH  19  22
ENDBRANCH  15  16
ENDBRANCH   2  15
TORSDOF 6
