REMARK  Name = ZINCvU0000000DK8.0
REMARK                            x       y       z     vdW  Elec       q    Type
REMARK                         _______ _______ _______ _____ _____    ______ ____
ROOT
ATOM      1  O   LIG    1        7.091   0.423  -2.563  0.00  0.00    -0.510 OA
ATOM      2  C   LIG    1        6.590  -0.683  -2.655  0.00  0.00    +0.550 A 
ATOM      3  C   LIG    1        6.511  -1.380  -3.947  0.00  0.00    -0.200 A 
ATOM      4  C   LIG    1        7.002  -0.810  -5.120  0.00  0.00    +0.100 A 
ATOM      5  C   LIG    1        6.903  -1.505  -6.306  0.00  0.00    +0.000 A 
ATOM      6  C   LIG    1        6.320  -2.764  -6.340  0.00  0.00    +0.070 A 
ATOM      7  C   LIG    1        5.828  -3.346  -5.194  0.00  0.00    +0.030 A 
ATOM      8  C   LIG    1        5.917  -2.662  -3.978  0.00  0.00    +0.160 A 
ATOM      9  N   LIG    1        5.447  -3.197  -2.833  0.00  0.00    -0.500 NA
ATOM     10  C   LIG    1        5.533  -2.562  -1.692  0.00  0.00    +0.450 A 
ATOM     11  N   LIG    1        6.086  -1.317  -1.571  0.00  0.00    -0.530 N 
ENDROOT
BRANCH  10  12
ATOM     12  C   LIG    1        5.001  -3.218  -0.480  0.00  0.00    -0.050 A 
ATOM     13  C   LIG    1        5.805  -3.354   0.653  0.00  0.00    +0.050 A 
ATOM     14  C   LIG    1        5.301  -3.962   1.784  0.00  0.00    +0.030 A 
ATOM     15  C   LIG    1        4.004  -4.447   1.793  0.00  0.00    -0.010 A 
ATOM     16  C   LIG    1        3.203  -4.320   0.670  0.00  0.00    +0.030 A 
ATOM     17 CL   LIG    1        3.379  -5.218   3.218  0.00  0.00    -0.060 Cl
ATOM     18  C   LIG    1        3.694  -3.709  -0.464  0.00  0.00    +0.090 A 
ENDBRANCH  10  12
BRANCH  11  19
ATOM     19  C   LIG    1        6.138  -0.669  -0.258  0.00  0.00    +0.320 C 
BRANCH  19  20
ATOM     20  C   LIG    1        4.983   0.326  -0.134  0.00  0.00    +0.210 C 
BRANCH  20  21
ATOM     21  O   LIG    1        3.740  -0.376  -0.197  0.00  0.00    -0.310 OA
BRANCH  21  22
ATOM     22  C   LIG    1        2.607   0.372  -0.184  0.00  0.00    +0.150 A 
ATOM     23  C   LIG    1        2.680   1.727  -0.022  0.00  0.00    -0.090 A 
ATOM     24  C   LIG    1        1.528   2.509  -0.007  0.00  0.00    +0.060 A 
ATOM     25  C   LIG    1        0.296   1.947  -0.152  0.00  0.00    -0.010 A 
ATOM     26  C   LIG    1        0.178   0.557  -0.320  0.00  0.00    -0.020 A 
ATOM     27  C   LIG    1       -1.077  -0.056  -0.473  0.00  0.00    +0.010 A 
ATOM     28  C   LIG    1       -1.152  -1.405  -0.635  0.00  0.00    +0.030 A 
ATOM     29  C   LIG    1       -0.002  -2.191  -0.651  0.00  0.00    -0.010 A 
ATOM     30  C   LIG    1        1.231  -1.631  -0.506  0.00  0.00    +0.030 A 
ATOM     31  C   LIG    1        1.348  -0.243  -0.337  0.00  0.00    -0.070 A 
ENDBRANCH  21  22
ENDBRANCH  20  21
ENDBRANCH  19  20
ENDBRANCH  11  19
TORSDOF 5
