REMARK  Name = ZINCqH0000032klC.0
REMARK                            x       y       z     vdW  Elec       q    Type
REMARK                         _______ _______ _______ _____ _____    ______ ____
ROOT
ATOM      1  C   LIG    1        6.172  -1.214   0.597  0.00  0.00    +0.570 C 
ATOM      2  N   LIG    1        6.725  -1.037  -0.620  0.00  0.00    -0.610 N 
ATOM      3  C   LIG    1        5.914  -0.561  -1.748  0.00  0.00    +0.280 C 
ATOM      4  C   LIG    1        6.069  -1.532  -2.917  0.00  0.00    +0.000 C 
ATOM      5  C   LIG    1        7.554  -1.706  -3.240  0.00  0.00    +0.230 C 
ATOM      6  C   LIG    1        8.277  -2.291  -2.024  0.00  0.00    +0.020 C 
ATOM      7  C   LIG    1        8.148  -1.323  -0.844  0.00  0.00    +0.290 C 
ATOM      8  O   LIG    1        6.867  -1.547   1.538  0.00  0.00    -0.530 OA
ENDROOT
BRANCH   1  12
ATOM      9  C   LIG    1        2.044  -0.685   1.177  0.00  0.00    +0.350 A 
ATOM     10  C   LIG    1        2.752   0.322   0.528  0.00  0.00    -0.040 A 
ATOM     11  C   LIG    1        4.110   0.173   0.332  0.00  0.00    +0.140 A 
ATOM     12  C   LIG    1        4.723  -1.003   0.787  0.00  0.00    -0.230 A 
ATOM     13  C   LIG    1        3.944  -1.970   1.424  0.00  0.00    +0.370 A 
ATOM     14  N   LIG    1        2.653  -1.784   1.595  0.00  0.00    -0.540 NA
BRANCH   9  15
ATOM     15  O   LIG    1        0.712  -0.542   1.378  0.00  0.00    -0.300 OA
BRANCH  15  17
ATOM     16  C   LIG    1       -0.463  -2.621   1.009  0.00  0.00    +0.020 C 
ATOM     17  C   LIG    1        0.037  -1.611   2.044  0.00  0.00    +0.170 C 
ATOM     18  C   LIG    1       -1.152  -1.054   2.829  0.00  0.00    +0.060 C 
ENDBRANCH  15  17
ENDBRANCH   9  15
ENDBRANCH   1  12
BRANCH   5  19
ATOM     19  N   LIG    1        7.704  -2.613  -4.380  0.00  0.00    -0.740 N 
ATOM     20  H   LIG    1        7.864  -3.558  -4.230  0.00  0.00    +0.400 HD
BRANCH  19  21
ATOM     21  C   LIG    1        7.614  -2.118  -5.684  0.00  0.00    +0.210 A 
ATOM     22  C   LIG    1        7.379  -0.766  -5.900  0.00  0.00    -0.040 A 
ATOM     23  C   LIG    1        7.296  -0.278  -7.189  0.00  0.00    +0.030 A 
ATOM     24  C   LIG    1        7.438  -1.136  -8.266  0.00  0.00    +0.040 A 
ATOM     25  C   LIG    1        7.667  -2.485  -8.054  0.00  0.00    +0.030 A 
ATOM     26  F   LIG    1        7.351  -0.657  -9.527  0.00  0.00    -0.150 F 
ATOM     27  C   LIG    1        7.756  -2.977  -6.766  0.00  0.00    -0.040 A 
ENDBRANCH  19  21
ENDBRANCH   5  19
TORSDOF 5
