REMARK  Name = ZINCrH000004u7Xd.0
REMARK                            x       y       z     vdW  Elec       q    Type
REMARK                         _______ _______ _______ _____ _____    ______ ____
ROOT
ATOM      1  C   LIG    1        5.747   3.213  -0.033  0.00  0.00    +0.510 C 
ATOM      2  N   LIG    1        7.088   3.071  -0.046  0.00  0.00    -0.610 N 
ATOM      3  C   LIG    1        7.698   1.735  -0.057  0.00  0.00    +0.270 C 
ATOM      4  C   LIG    1        8.675   1.649  -1.234  0.00  0.00    +0.010 C 
ATOM      5  C   LIG    1        9.681   2.799  -1.142  0.00  0.00    +0.020 C 
ATOM      6  C   LIG    1        8.939   4.135  -1.226  0.00  0.00    -0.020 C 
ATOM      7  C   LIG    1        7.965   4.249  -0.054  0.00  0.00    +0.280 C 
ATOM      8  O   LIG    1        5.255   4.322  -0.024  0.00  0.00    -0.530 OA
ENDROOT
BRANCH   1   9
ATOM      9  C   LIG    1        4.860   1.995  -0.031  0.00  0.00    +0.300 C 
BRANCH   9  12
ATOM     10  O   LIG    1        2.760   0.303  -0.020  0.00  0.00    -0.520 OA
ATOM     11  C   LIG    1        2.477   1.487  -0.012  0.00  0.00    +0.610 C 
ATOM     12  N   LIG    1        3.456   2.413  -0.017  0.00  0.00    -0.710 N 
ATOM     13  H   LIG    1        3.231   3.357  -0.011  0.00  0.00    +0.420 HD
BRANCH  11  14
ATOM     14  C   LIG    1        1.072   1.906   0.002  0.00  0.00    -0.090 A 
ATOM     15  C   LIG    1       -0.013   1.076   0.008  0.00  0.00    +0.050 A 
ATOM     16  C   LIG    1       -1.150   1.898   0.017  0.00  0.00    -0.070 A 
ATOM     17  C   LIG    1       -0.716   3.178   0.025  0.00  0.00    +0.210 A 
ATOM     18  O   LIG    1        0.624   3.178   0.012  0.00  0.00    -0.160 OA
ENDBRANCH  11  14
ENDBRANCH   9  12
ENDBRANCH   1   9
BRANCH   6  19
ATOM     19  C   LIG    1        9.948   5.284  -1.167  0.00  0.00    +0.100 C 
BRANCH  19  20
ATOM     20  C   LIG    1        9.231   6.593  -1.373  0.00  0.00    -0.090 A 
ATOM     21  C   LIG    1        9.142   7.176  -2.553  0.00  0.00    -0.020 A 
ATOM     22  S   LIG    1        8.245   8.679  -2.458  0.00  0.00    +0.080 S 
ATOM     23  C   LIG    1        7.995   8.499  -0.726  0.00  0.00    -0.140 A 
ATOM     24  C   LIG    1        7.330   9.323   0.187  0.00  0.00    +0.050 A 
ATOM     25  C   LIG    1        7.263   8.971   1.514  0.00  0.00    +0.030 A 
ATOM     26  C   LIG    1        7.854   7.795   1.955  0.00  0.00    +0.010 A 
ATOM     27  C   LIG    1        8.505   6.978   1.083  0.00  0.00    +0.040 A 
ATOM     28  C   LIG    1        8.591   7.314  -0.285  0.00  0.00    -0.070 A 
ENDBRANCH  19  20
ENDBRANCH   6  19
TORSDOF 5
