REMARK  Name = ZINCrH000004slx2.0
REMARK                            x       y       z     vdW  Elec       q    Type
REMARK                         _______ _______ _______ _____ _____    ______ ____
ROOT
ATOM      1  C   LIG    1        2.185   1.722  -1.089  0.00  0.00    +0.510 C 
ATOM      2  N   LIG    1        2.569   0.432  -1.162  0.00  0.00    -0.670 N 
ATOM      3  H   LIG    1        2.300  -0.194  -0.472  0.00  0.00    +0.410 HD
ATOM      4  O   LIG    1        2.601   2.525  -1.897  0.00  0.00    -0.500 OA
ENDROOT
BRANCH   2   5
ATOM      5  C   LIG    1        3.358  -0.005  -2.234  0.00  0.00    +0.140 A 
ATOM      6  C   LIG    1        3.183  -1.281  -2.751  0.00  0.00    +0.040 A 
ATOM      7  C   LIG    1        3.956  -1.710  -3.812  0.00  0.00    -0.010 A 
ATOM      8  C   LIG    1        4.917  -0.869  -4.354  0.00  0.00    +0.100 A 
ATOM      9  C   LIG    1        5.097   0.406  -3.835  0.00  0.00    -0.030 A 
ATOM     10 CL   LIG    1        6.300   1.458  -4.514  0.00  0.00    -0.040 Cl
ATOM     11  C   LIG    1        4.320   0.837  -2.777  0.00  0.00    +0.080 A 
BRANCH   8  12
ATOM     12  O   LIG    1        5.682  -1.294  -5.395  0.00  0.00    -0.310 OA
BRANCH  12  13
ATOM     13  C   LIG    1        5.442  -2.617  -5.879  0.00  0.00    +0.600 C 
ATOM     14  F   LIG    1        4.119  -2.719  -6.320  0.00  0.00    -0.200 F 
ATOM     15  F   LIG    1        5.664  -3.537  -4.849  0.00  0.00    -0.200 F 
ENDBRANCH  12  13
ENDBRANCH   8  12
ENDBRANCH   2   5
BRANCH   1  16
ATOM     16  C   LIG    1        1.244   2.167   0.000  0.00  0.00    +0.220 C 
BRANCH  16  20
ATOM     17  C   LIG    1        0.621   6.355   0.598  0.00  0.00    +0.060 C 
ATOM     18  C   LIG    1        1.782   5.883  -0.281  0.00  0.00    +0.040 C 
ATOM     19  C   LIG    1        2.111   4.427   0.054  0.00  0.00    +0.170 C 
ATOM     20  N   LIG    1        0.927   3.590  -0.178  0.00  0.00    -0.520 NA
ATOM     21  C   LIG    1       -0.187   3.994   0.689  0.00  0.00    +0.180 C 
ATOM     22  C   LIG    1       -0.585   5.438   0.372  0.00  0.00    +0.030 C 
BRANCH  17  29
ATOM     23  C   LIG    1        0.680   8.857   2.542  0.00  0.00    +0.150 C 
ATOM     24  C   LIG    1        0.280   8.875   1.089  0.00  0.00    +0.080 A 
ATOM     25  N   LIG    1       -0.099   9.927   0.410  0.00  0.00    -0.300 NA
ATOM     26  N   LIG    1       -0.389   9.523  -0.899  0.00  0.00    -0.480 N 
ATOM     27  H   LIG    1       -0.697  10.096  -1.619  0.00  0.00    +0.440 HD
ATOM     28  C   LIG    1       -0.164   8.195  -0.983  0.00  0.00    +0.240 A 
ATOM     29  C   LIG    1        0.254   7.770   0.232  0.00  0.00    -0.230 A 
ENDBRANCH  17  29
ENDBRANCH  16  20
ENDBRANCH   1  16
TORSDOF 6
