REMARK  Name = ZINCrH000004o0wg.0
REMARK                            x       y       z     vdW  Elec       q    Type
REMARK                         _______ _______ _______ _____ _____    ______ ____
ROOT
ATOM      1  S   LIG    1        2.521  -3.372  -1.750  0.00  0.00    +2.440 S 
ATOM      2  O   LIG    1        3.028  -2.191  -2.358  0.00  0.00    -0.910 OA
ATOM      3  O   LIG    1        1.436  -4.056  -2.362  0.00  0.00    -0.900 OA
ENDROOT
BRANCH   1   5
ATOM      4  C   LIG    1        3.395  -5.763  -0.751  0.00  0.00    +0.130 C 
ATOM      5  C   LIG    1        3.889  -4.541  -1.528  0.00  0.00    -0.460 C 
BRANCH   5   6
ATOM      6  C   LIG    1        4.403  -4.976  -2.876  0.00  0.00    +0.550 C 
ATOM      7  N   LIG    1        5.676  -5.396  -3.009  0.00  0.00    -0.540 N 
ATOM      8  C   LIG    1        6.623  -5.569  -1.904  0.00  0.00    +0.270 C 
ATOM      9  C   LIG    1        7.924  -6.060  -2.560  0.00  0.00    +0.110 C 
ATOM     10  C   LIG    1        7.605  -6.122  -4.037  0.00  0.00    -0.130 A 
ATOM     11  C   LIG    1        8.384  -6.488  -5.118  0.00  0.00    +0.050 A 
ATOM     12  C   LIG    1        7.856  -6.461  -6.395  0.00  0.00    +0.000 A 
ATOM     13  C   LIG    1        6.545  -6.066  -6.590  0.00  0.00    +0.040 A 
ATOM     14  C   LIG    1        5.764  -5.700  -5.514  0.00  0.00    +0.010 A 
ATOM     15  C   LIG    1        6.290  -5.724  -4.221  0.00  0.00    +0.140 A 
ATOM     16  O   LIG    1        3.669  -4.949  -3.842  0.00  0.00    -0.500 OA
ENDBRANCH   5   6
ENDBRANCH   1   5
BRANCH   1  17
ATOM     17  C   LIG    1        2.070  -2.991  -0.035  0.00  0.00    -0.230 C 
BRANCH  17  18
ATOM     18  C   LIG    1        0.924  -2.012  -0.022  0.00  0.00    +0.070 A 
ATOM     19  C   LIG    1       -0.351  -2.413  -0.018  0.00  0.00    -0.040 A 
ATOM     20  S   LIG    1       -1.379  -0.982  -0.001  0.00  0.00    +0.150 S 
ATOM     21  C   LIG    1        0.053   0.043  -0.002  0.00  0.00    +0.150 A 
ATOM     22  N   LIG    1        1.117  -0.713  -0.019  0.00  0.00    -0.460 NA
BRANCH  21  23
ATOM     23  C   LIG    1        0.051   1.514   0.009  0.00  0.00    -0.150 A 
ATOM     24  C   LIG    1       -1.053   2.293   0.016  0.00  0.00    +0.040 A 
ATOM     25  C   LIG    1       -0.801   3.648   0.030  0.00  0.00    +0.010 A 
ATOM     26  C   LIG    1        0.493   3.984   0.024  0.00  0.00    -0.040 A 
ATOM     27  S   LIG    1        1.485   2.533   0.008  0.00  0.00    +0.200 S 
ENDBRANCH  21  23
ENDBRANCH  17  18
ENDBRANCH   1  17
TORSDOF 5
