REMARK  Name = ZINCrD0000072Obp.0
REMARK                            x       y       z     vdW  Elec       q    Type
REMARK                         _______ _______ _______ _____ _____    ______ ____
ROOT
ATOM      1  C   LIG    1       -0.018   2.257   2.195  0.00  0.00    +0.470 A 
ATOM      2  N   LIG    1        1.290   2.404   2.102  0.00  0.00    -0.540 NA
ATOM      3  C   LIG    1        1.977   3.076   3.036  0.00  0.00    +0.310 A 
ATOM      4  C   LIG    1        3.326   3.375   3.174  0.00  0.00    -0.260 A 
ATOM      5  C   LIG    1        3.479   4.098   4.349  0.00  0.00    +0.290 A 
ATOM      6  N   LIG    1        2.303   4.246   4.914  0.00  0.00    -0.320 NA
ATOM      7  C   LIG    1        4.426   2.983   2.221  0.00  0.00    +0.120 C 
ATOM      8  N   LIG    1        1.337   3.619   4.120  0.00  0.00    -0.330 N 
ATOM      9  C   LIG    1       -0.025   3.479   4.251  0.00  0.00    +0.270 A 
ATOM     10  C   LIG    1       -0.716   2.797   3.290  0.00  0.00    -0.090 A 
ENDROOT
BRANCH   1  15
ATOM     11  C   LIG    1       -2.709   1.961  -0.129  0.00  0.00    +0.020 C 
ATOM     12  C   LIG    1       -2.054   1.140  -1.242  0.00  0.00    +0.060 C 
ATOM     13  C   LIG    1       -0.539   1.359  -1.215  0.00  0.00    -0.030 C 
ATOM     14  C   LIG    1        0.018   0.883   0.130  0.00  0.00    +0.300 C 
ATOM     15  N   LIG    1       -0.706   1.562   1.213  0.00  0.00    -0.590 N 
ATOM     16  C   LIG    1        0.112   0.564  -2.348  0.00  0.00    +0.040 C 
ATOM     17  C   LIG    1       -2.176   1.492   1.228  0.00  0.00    +0.310 C 
BRANCH  11  18
ATOM     18  C   LIG    1       -4.203   1.770  -0.176  0.00  0.00    +0.470 C 
ATOM     19  O   LIG    1       -4.694   1.051  -1.014  0.00  0.00    -0.500 OA
BRANCH  18  21
ATOM     20  C   LIG    1       -6.418   2.168   0.607  0.00  0.00    +0.260 C 
ATOM     21  O   LIG    1       -4.989   2.399   0.712  0.00  0.00    -0.360 OA
ENDBRANCH  18  21
ENDBRANCH  11  18
ENDBRANCH   1  15
BRANCH   9  22
ATOM     22  C   LIG    1       -0.730   4.058   5.413  0.00  0.00    -0.070 A 
ATOM     23  C   LIG    1       -0.766   5.441   5.594  0.00  0.00    +0.050 A 
ATOM     24  C   LIG    1       -1.430   5.975   6.679  0.00  0.00    +0.010 A 
ATOM     25  C   LIG    1       -2.051   5.142   7.593  0.00  0.00    +0.030 A 
ATOM     26  C   LIG    1       -2.015   3.769   7.423  0.00  0.00    +0.010 A 
ATOM     27  C   LIG    1       -1.359   3.223   6.339  0.00  0.00    +0.050 A 
ENDBRANCH   9  22
TORSDOF 4
