REMARK  Name = ZINCrD00000hQ6Dw.0
REMARK                            x       y       z     vdW  Elec       q    Type
REMARK                         _______ _______ _______ _____ _____    ______ ____
ROOT
ATOM      1  C   LIG    1       -2.528   3.862   0.046  0.00  0.00    +0.570 C 
ATOM      2  N   LIG    1       -3.684   3.177  -0.048  0.00  0.00    -0.600 N 
ATOM      3  C   LIG    1       -4.972   3.881  -0.137  0.00  0.00    +0.310 C 
ATOM      4  C   LIG    1       -5.610   3.578  -1.504  0.00  0.00    +0.100 C 
ATOM      5  C   LIG    1       -5.493   2.101  -1.777  0.00  0.00    -0.020 A 
ATOM      6  C   LIG    1       -4.643   1.265  -1.144  0.00  0.00    -0.010 A 
ATOM      7  N   LIG    1       -4.811   0.041  -1.649  0.00  0.00    -0.470 NA
ATOM      8  C   LIG    1       -5.737   0.082  -2.571  0.00  0.00    +0.210 A 
ATOM      9  N   LIG    1       -6.188   1.353  -2.679  0.00  0.00    -0.450 N 
ATOM     10  C   LIG    1       -7.227   1.834  -3.593  0.00  0.00    +0.330 C 
ATOM     11  C   LIG    1       -3.689   1.703  -0.057  0.00  0.00    +0.380 C 
ATOM     12  O   LIG    1       -2.545   5.075   0.130  0.00  0.00    -0.510 OA
ENDROOT
BRANCH   1  17
ATOM     13  C   LIG    1        0.989   2.833  -0.825  0.00  0.00    +0.130 A 
ATOM     14  C   LIG    1        1.179   1.780   0.054  0.00  0.00    -0.040 A 
ATOM     15  C   LIG    1        0.170   1.405   0.926  0.00  0.00    +0.070 A 
ATOM     16  C   LIG    1       -1.035   2.072   0.924  0.00  0.00    +0.020 A 
ATOM     17  C   LIG    1       -1.240   3.141   0.047  0.00  0.00    -0.090 A 
ATOM     18  C   LIG    1       -0.221   3.520  -0.835  0.00  0.00    +0.080 A 
BRANCH  13  20
ATOM     19  C   LIG    1        3.199   2.446  -1.613  0.00  0.00    +0.250 C 
ATOM     20  O   LIG    1        1.984   3.196  -1.678  0.00  0.00    -0.300 OA
ENDBRANCH  13  20
BRANCH  18  21
ATOM     21  O   LIG    1       -0.412   4.553  -1.694  0.00  0.00    -0.310 OA
BRANCH  21  22
ATOM     22  C   LIG    1       -0.956   4.238  -2.977  0.00  0.00    +0.570 C 
ATOM     23  F   LIG    1       -2.213   3.644  -2.818  0.00  0.00    -0.200 F 
ATOM     24  F   LIG    1       -0.102   3.350  -3.640  0.00  0.00    -0.200 F 
ENDBRANCH  21  22
ENDBRANCH  18  21
ENDBRANCH   1  17
BRANCH   8  25
ATOM     25  C   LIG    1       -6.222  -1.093  -3.381  0.00  0.00    +0.070 C 
ATOM     26  C   LIG    1       -6.795  -2.157  -2.443  0.00  0.00    +0.040 C 
ATOM     27  C   LIG    1       -5.053  -1.685  -4.170  0.00  0.00    +0.040 C 
ENDBRANCH   8  25
TORSDOF 5
