REMARK  Name = ZINCb70000002qDN.0
REMARK                            x       y       z     vdW  Elec       q    Type
REMARK                         _______ _______ _______ _____ _____    ______ ____
ROOT
ATOM      1  C   LIG    1       -0.745   1.721   3.601  0.00  0.00    +0.110 C 
ATOM      2  C   LIG    1       -0.013   1.132   2.394  0.00  0.00    +0.160 C 
ATOM      3  C   LIG    1        1.436   1.621   2.389  0.00  0.00    +0.250 C 
ATOM      4  N   LIG    1        2.126   1.124   1.188  0.00  0.00    -0.500 N 
ATOM      5  C   LIG    1        1.425   1.617  -0.003  0.00  0.00    +0.110 C 
ATOM      6  C   LIG    1        2.121   1.136  -1.276  0.00  0.00    +0.250 C 
ATOM      7  O   LIG    1        1.387   1.601  -2.412  0.00  0.00    -0.350 OA
ATOM      8  C   LIG    1        0.040   1.131  -2.480  0.00  0.00    +0.240 C 
ATOM      9  C   LIG    1       -0.734   1.593  -1.241  0.00  0.00    +0.060 C 
ATOM     10  C   LIG    1       -0.013   1.086   0.008  0.00  0.00    +0.170 C 
ATOM     11  H   LIG    1        3.078   1.457   1.182  0.00  0.00    +0.440 HD
ATOM     12  H   LIG    1        2.120   0.115   1.190  0.00  0.00    +0.430 HD
ATOM     13  O   LIG    1       -0.666   1.547   1.191  0.00  0.00    -0.350 OA
ENDROOT
TORSDOF 0
