REMARK  Name = ZINCrg00001Jdv6D.0
REMARK                            x       y       z     vdW  Elec       q    Type
REMARK                         _______ _______ _______ _____ _____    ______ ____
ROOT
ATOM      1  C   LIG    1        1.498   4.552   0.011  0.00  0.00    +0.340 C 
ATOM      2  C   LIG    1        1.700   5.056   1.456  0.00  0.00    +0.040 C 
ATOM      3  C   LIG    1        1.664   6.598   1.294  0.00  0.00    +0.070 C 
ATOM      4  C   LIG    1        0.613   6.769   0.169  0.00  0.00    +0.260 C 
ATOM      5  N   LIG    1        0.847   5.634  -0.742  0.00  0.00    -0.610 N 
ATOM      6  C   LIG    1        0.517   5.594  -2.048  0.00  0.00    +0.520 C 
ATOM      7  O   LIG    1        0.758   4.602  -2.704  0.00  0.00    -0.510 OA
ENDROOT
BRANCH   1  14
ATOM      8  N   LIG    1        1.061   2.027   0.003  0.00  0.00    -0.540 N 
ATOM      9  C   LIG    1       -0.014   1.214   0.009  0.00  0.00    +0.650 A 
ATOM     10  N   LIG    1       -1.113   1.998   0.018  0.00  0.00    -0.550 N 
ATOM     11  H   LIG    1       -2.034   1.696   0.020  0.00  0.00    +0.450 HD
ATOM     12  N   LIG    1       -0.674   3.329   0.025  0.00  0.00    -0.270 NA
ATOM     13  O   LIG    1        0.002  -0.004   0.002  0.00  0.00    -0.550 OA
ATOM     14  C   LIG    1        0.620   3.328   0.013  0.00  0.00    +0.280 A 
BRANCH   8  16
ATOM     15  C   LIG    1        2.935   1.453  -1.460  0.00  0.00    +0.030 C 
ATOM     16  C   LIG    1        2.461   1.596  -0.013  0.00  0.00    +0.310 C 
ENDBRANCH   8  16
ENDBRANCH   1  14
BRANCH   2  17
ATOM     17  C   LIG    1        3.054   4.600   2.004  0.00  0.00    -0.050 C 
ATOM     18  C   LIG    1        3.047   3.560   3.126  0.00  0.00    +0.010 C 
ATOM     19  C   LIG    1        3.413   5.015   3.433  0.00  0.00    +0.040 C 
ENDBRANCH   2  17
BRANCH   6  20
ATOM     20  C   LIG    1       -0.150   6.781  -2.693  0.00  0.00    +0.330 C 
BRANCH  20  21
ATOM     21  N   LIG    1       -0.403   6.490  -4.107  0.00  0.00    -0.480 N 
ATOM     22  C   LIG    1       -1.576   5.915  -4.474  0.00  0.00    +0.290 A 
ATOM     23  C   LIG    1       -1.833   5.637  -5.774  0.00  0.00    -0.070 A 
ATOM     24  C   LIG    1       -0.881   5.944  -6.756  0.00  0.00    +0.120 A 
ATOM     25  C   LIG    1        0.298   6.521  -6.385  0.00  0.00    -0.210 A 
ATOM     26  C   LIG    1        1.339   6.861  -7.421  0.00  0.00    +0.120 C 
ATOM     27  C   LIG    1        0.529   6.802  -5.028  0.00  0.00    +0.520 A 
ATOM     28  O   LIG    1        1.578   7.323  -4.683  0.00  0.00    -0.550 OA
ENDBRANCH  20  21
ENDBRANCH   6  20
TORSDOF 5
