REMARK  Name = ZINCrg000000rkoj.0
REMARK                            x       y       z     vdW  Elec       q    Type
REMARK                         _______ _______ _______ _____ _____    ______ ____
ROOT
ATOM      1  C   LIG    1       -0.085   5.641   0.070  0.00  0.00    +0.560 C 
ATOM      2  N   LIG    1       -1.259   6.293  -0.042  0.00  0.00    -0.610 N 
ATOM      3  C   LIG    1       -2.517   5.542  -0.037  0.00  0.00    +0.280 C 
ATOM      4  O   LIG    1        0.954   6.269   0.146  0.00  0.00    -0.530 OA
ENDROOT
BRANCH   1  12
ATOM      5  C   LIG    1        0.824  -2.075  -0.802  0.00  0.00    +0.080 C 
ATOM      6  C   LIG    1        0.632  -0.570  -0.998  0.00  0.00    +0.160 C 
ATOM      7  C   LIG    1        1.972   0.078  -1.233  0.00  0.00    +0.530 C 
ATOM      8  N   LIG    1        2.137   1.386  -0.937  0.00  0.00    -0.660 N 
ATOM      9  H   LIG    1        2.988   1.826  -1.090  0.00  0.00    +0.420 HD
ATOM     10  C   LIG    1        1.049   2.094  -0.402  0.00  0.00    +0.110 A 
ATOM     11  C   LIG    1        1.033   3.473  -0.432  0.00  0.00    +0.080 A 
ATOM     12  C   LIG    1       -0.059   4.167   0.100  0.00  0.00    -0.130 A 
ATOM     13  C   LIG    1       -1.126   3.459   0.659  0.00  0.00    +0.060 A 
ATOM     14  C   LIG    1       -1.101   2.082   0.694  0.00  0.00    +0.000 A 
ATOM     15  C   LIG    1       -0.019   1.389   0.162  0.00  0.00    +0.110 A 
ATOM     16  O   LIG    1        2.894  -0.568  -1.684  0.00  0.00    -0.510 OA
ATOM     17  N   LIG    1        0.001  -0.001   0.196  0.00  0.00    -0.480 N 
ATOM     18  C   LIG    1       -1.351  -0.542   0.386  0.00  0.00    +0.250 C 
ENDBRANCH   1  12
BRANCH   2  19
ATOM     19  C   LIG    1       -1.278   7.752  -0.170  0.00  0.00    +0.370 C 
BRANCH  19  20
ATOM     20  C   LIG    1       -1.217   8.130  -1.627  0.00  0.00    -0.250 A 
ATOM     21  C   LIG    1       -2.249   8.128  -2.490  0.00  0.00    +0.090 A 
ATOM     22  C   LIG    1       -3.690   7.762  -2.231  0.00  0.00    +0.290 C 
ATOM     23  N   LIG    1       -4.499   8.270  -3.353  0.00  0.00    -0.690 NA
ATOM     24  H   LIG    1       -5.457   7.965  -3.275  0.00  0.00    +0.360 HD
ATOM     25  C   LIG    1       -3.923   7.871  -4.645  0.00  0.00    +0.200 C 
ATOM     26  C   LIG    1       -2.622   8.646  -4.894  0.00  0.00    +0.330 C 
ATOM     27  N   LIG    1       -1.782   8.528  -3.698  0.00  0.00    -0.360 N 
ATOM     28  N   LIG    1       -0.419   8.786  -3.568  0.00  0.00    -0.290 NA
ATOM     29  C   LIG    1       -0.077   8.552  -2.324  0.00  0.00    +0.260 A 
ENDBRANCH  19  20
ENDBRANCH   2  19
TORSDOF 3
