REMARK  Name = ZINCrD0000074uAN.0
REMARK                            x       y       z     vdW  Elec       q    Type
REMARK                         _______ _______ _______ _____ _____    ______ ____
ROOT
ATOM      1  C   LIG    1        5.284  -2.654  -0.071  0.00  0.00    +0.200 C 
ATOM      2  C   LIG    1        5.746  -2.819  -1.520  0.00  0.00    +0.080 C 
ENDROOT
BRANCH   1   3
ATOM      3  C   LIG    1        5.374  -3.981   0.638  0.00  0.00    +0.520 C 
ATOM      4  N   LIG    1        6.575  -4.560   0.834  0.00  0.00    -0.660 N 
ATOM      5  H   LIG    1        7.374  -4.157   0.460  0.00  0.00    +0.420 HD
ATOM      6  O   LIG    1        4.366  -4.527   1.034  0.00  0.00    -0.490 OA
BRANCH   4   7
ATOM      7  C   LIG    1        6.669  -5.744   1.577  0.00  0.00    +0.150 A 
ATOM      8  C   LIG    1        7.777  -5.971   2.382  0.00  0.00    +0.010 A 
ATOM      9  C   LIG    1        7.869  -7.137   3.120  0.00  0.00    +0.060 A 
ATOM     10  C   LIG    1        6.861  -8.084   3.051  0.00  0.00    +0.020 A 
ATOM     11  O   LIG    1        6.716  -9.296   3.664  0.00  0.00    -0.310 OA
ATOM     12  C   LIG    1        5.708  -9.992   2.908  0.00  0.00    +0.430 C 
ATOM     13  O   LIG    1        4.912  -8.933   2.344  0.00  0.00    -0.310 OA
ATOM     14  C   LIG    1        5.751  -7.861   2.239  0.00  0.00    +0.050 A 
ATOM     15  C   LIG    1        5.657  -6.692   1.504  0.00  0.00    +0.050 A 
ENDBRANCH   4   7
ENDBRANCH   1   3
BRANCH   1  16
ATOM     16  O   LIG    1        3.909  -2.188  -0.052  0.00  0.00    -0.320 OA
BRANCH  16  17
ATOM     17  C   LIG    1        3.716  -0.860  -0.050  0.00  0.00    +0.470 C 
ATOM     18  O   LIG    1        4.664  -0.111  -0.064  0.00  0.00    -0.480 OA
BRANCH  17  19
ATOM     19  C   LIG    1        2.316  -0.302  -0.031  0.00  0.00    +0.290 C 
BRANCH  19  20
ATOM     20  O   LIG    1        2.372   1.126  -0.032  0.00  0.00    -0.290 OA
BRANCH  20  28
ATOM     21  C   LIG    1        2.462   3.950  -0.035  0.00  0.00    +0.110 C 
ATOM     22  C   LIG    1        1.168   3.178  -0.016  0.00  0.00    -0.090 A 
ATOM     23  C   LIG    1       -0.038   3.851  -0.000  0.00  0.00    +0.070 A 
ATOM     24  C   LIG    1       -1.227   3.143   0.017  0.00  0.00    -0.060 A 
ATOM     25  C   LIG    1       -1.210   1.760   0.012  0.00  0.00    +0.070 A 
ATOM     26  C   LIG    1       -0.006   1.083   0.001  0.00  0.00    -0.050 A 
ATOM     27 CL   LIG    1       -2.741   3.992   0.037  0.00  0.00    -0.070 Cl
ATOM     28  C   LIG    1        1.187   1.791  -0.016  0.00  0.00    +0.130 A 
ENDBRANCH  20  28
ENDBRANCH  19  20
ENDBRANCH  17  19
ENDBRANCH  16  17
ENDBRANCH   1  16
TORSDOF 7
