REMARK  Name = ZINCvU0000000J7H.0
REMARK                            x       y       z     vdW  Elec       q    Type
REMARK                         _______ _______ _______ _____ _____    ______ ____
ROOT
ATOM      1  C   LIG    1       -1.056   2.511  -0.963  0.00  0.00    -0.690 A 
ATOM      2  C   LIG    1       -0.513   3.721  -1.355  0.00  0.00    +0.150 A 
ATOM      3  C   LIG    1        0.632   3.754  -2.132  0.00  0.00    +0.000 A 
ATOM      4  C   LIG    1        1.239   2.578  -2.521  0.00  0.00    +0.110 A 
ATOM      5  C   LIG    1        0.696   1.353  -2.128  0.00  0.00    -0.150 A 
ATOM      6  C   LIG    1       -0.458   1.327  -1.345  0.00  0.00    +0.190 A 
ENDROOT
BRANCH   5   7
ATOM      7  C   LIG    1        1.342   0.089  -2.541  0.00  0.00    +0.560 C 
ATOM      8  N   LIG    1        2.457   0.117  -3.297  0.00  0.00    -0.720 N 
ATOM      9  H   LIG    1        2.836   0.967  -3.571  0.00  0.00    +0.400 HD
ATOM     10  O   LIG    1        0.867  -0.976  -2.198  0.00  0.00    -0.520 OA
BRANCH   8  11
ATOM     11  C   LIG    1        3.096  -1.136  -3.707  0.00  0.00    +0.330 C 
BRANCH  11  12
ATOM     12  C   LIG    1        4.315  -0.830  -4.539  0.00  0.00    -0.100 A 
ATOM     13  C   LIG    1        4.203  -0.714  -5.912  0.00  0.00    +0.030 A 
ATOM     14  C   LIG    1        5.319  -0.428  -6.675  0.00  0.00    +0.030 A 
ATOM     15  C   LIG    1        6.550  -0.268  -6.067  0.00  0.00    +0.040 A 
ATOM     16  C   LIG    1        6.664  -0.389  -4.693  0.00  0.00    -0.040 A 
ATOM     17 CL   LIG    1        8.209  -0.188  -3.929  0.00  0.00    -0.060 Cl
ATOM     18  C   LIG    1        5.545  -0.670  -3.929  0.00  0.00    +0.050 A 
ENDBRANCH  11  12
ENDBRANCH   8  11
ENDBRANCH   5   7
BRANCH   1  19
ATOM     19  S   LIG    1       -2.518   2.481   0.020  0.00  0.00    +2.680 S 
ATOM     20  O   LIG    1       -3.193   1.273  -0.303  0.00  0.00    -0.940 OA
ATOM     21  O   LIG    1       -3.115   3.764  -0.110  0.00  0.00    -0.930 OA
BRANCH  19  22
ATOM     22  N   LIG    1       -2.043   2.344   1.600  0.00  0.00    -0.940 N 
BRANCH  22  23
ATOM     23  C   LIG    1       -1.750   3.490   2.344  0.00  0.00    +0.160 A 
ATOM     24  C   LIG    1       -0.725   4.337   1.942  0.00  0.00    +0.000 A 
ATOM     25  C   LIG    1       -0.442   5.472   2.676  0.00  0.00    +0.050 A 
ATOM     26  C   LIG    1       -1.171   5.760   3.817  0.00  0.00    -0.040 A 
ATOM     27  C   LIG    1       -2.188   4.915   4.222  0.00  0.00    +0.050 A 
ATOM     28 CL   LIG    1       -0.807   7.184   4.741  0.00  0.00    -0.060 Cl
ATOM     29  C   LIG    1       -2.480   3.781   3.489  0.00  0.00    +0.040 A 
ENDBRANCH  22  23
BRANCH  22  30
ATOM     30  C   LIG    1       -1.930   1.020   2.219  0.00  0.00    +0.350 C 
BRANCH  30  32
ATOM     31  C   LIG    1        0.139   0.182   3.208  0.00  0.00    +0.040 C 
ATOM     32  C   LIG    1       -0.504   0.542   2.125  0.00  0.00    -0.080 C 
ENDBRANCH  30  32
ENDBRANCH  22  30
ENDBRANCH  19  22
ENDBRANCH   1  19
TORSDOF 8
