REMARK  Name = ZINCpk00000e1xn6.0
REMARK                            x       y       z     vdW  Elec       q    Type
REMARK                         _______ _______ _______ _____ _____    ______ ____
ROOT
ATOM      1  N   LIG    1       -0.018   1.461   0.010  0.00  0.00    -0.710 N 
ATOM      2  H   LIG    1       -0.864   1.934   0.017  0.00  0.00    +0.410 HD
ATOM      3  C   LIG    1        1.140   2.151   0.003  0.00  0.00    +0.530 C 
ATOM      4  O   LIG    1        2.199   1.558  -0.011  0.00  0.00    -0.530 OA
ENDROOT
BRANCH   3   5
ATOM      5  C   LIG    1        1.120   3.657   0.011  0.00  0.00    -0.010 C 
ATOM      6  C   LIG    1        0.383   4.165  -1.231  0.00  0.00    +0.030 C 
ATOM      7  C   LIG    1        0.333   5.694  -1.207  0.00  0.00    +0.020 C 
ATOM      8  C   LIG    1        1.761   6.248  -1.231  0.00  0.00    +0.280 C 
ATOM      9  N   LIG    1        2.519   5.652  -0.123  0.00  0.00    -1.000 NA
ATOM     10  C   LIG    1        2.557   4.188   0.000  0.00  0.00    +0.320 C 
BRANCH   9  11
ATOM     11  S   LIG    1        3.316   6.611   0.967  0.00  0.00    +2.610 S 
ATOM     12  O   LIG    1        3.379   5.822   2.147  0.00  0.00    -0.950 OA
ATOM     13  O   LIG    1        2.600   7.838   0.943  0.00  0.00    -0.950 OA
ATOM     14  C   LIG    1        4.971   6.825   0.255  0.00  0.00    -0.280 C 
ENDBRANCH   9  11
ENDBRANCH   3   5
BRANCH   1  15
ATOM     15  C   LIG    1        0.002  -0.004   0.002  0.00  0.00    +0.340 C 
BRANCH  15  16
ATOM     16  C   LIG    1       -1.284  -0.521  -0.589  0.00  0.00    -0.090 A 
ATOM     17  C   LIG    1       -2.483   0.092  -0.277  0.00  0.00    +0.030 A 
ATOM     18  C   LIG    1       -3.663  -0.378  -0.823  0.00  0.00    +0.060 A 
ATOM     19  C   LIG    1       -3.645  -1.468  -1.673  0.00  0.00    -0.080 A 
ATOM     20  C   LIG    1       -2.445  -2.085  -1.981  0.00  0.00    +0.050 A 
ATOM     21 BR   LIG    1       -5.259  -2.117  -2.414  0.00  0.00    -0.040 Br
ATOM     22  C   LIG    1       -1.266  -1.611  -1.439  0.00  0.00    +0.060 A 
ENDBRANCH  15  16
BRANCH  15  23
ATOM     23  C   LIG    1        0.146  -0.512   1.413  0.00  0.00    +0.450 C 
ATOM     24  O   LIG    1        0.224   0.269   2.332  0.00  0.00    -0.490 OA
BRANCH  23  26
ATOM     25  C   LIG    1        0.328  -2.250   3.034  0.00  0.00    +0.280 C 
ATOM     26  O   LIG    1        0.188  -1.833   1.650  0.00  0.00    -0.350 OA
ENDBRANCH  23  26
ENDBRANCH  15  23
ENDBRANCH   1  15
TORSDOF 6
