REMARK  Name = ZINCrH000004pe97.0
REMARK                            x       y       z     vdW  Elec       q    Type
REMARK                         _______ _______ _______ _____ _____    ______ ____
ROOT
ATOM      1  N   LIG    1        0.340   7.760   2.246  0.00  0.00    -0.720 N 
ATOM      2  H   LIG    1       -0.437   7.663   1.672  0.00  0.00    +0.400 HD
ATOM      3  C   LIG    1        0.221   7.580   3.576  0.00  0.00    +0.510 C 
ATOM      4  O   LIG    1        1.191   7.702   4.293  0.00  0.00    -0.530 OA
ENDROOT
BRANCH   3   5
ATOM      5  C   LIG    1       -1.117   7.228   4.173  0.00  0.00    +0.220 C 
ATOM      6  C   LIG    1       -1.974   8.502   4.330  0.00  0.00    +0.060 C 
ATOM      7  C   LIG    1       -2.698   8.270   5.682  0.00  0.00    +0.050 C 
ATOM      8  C   LIG    1       -1.608   7.529   6.495  0.00  0.00    +0.250 C 
ATOM      9  N   LIG    1       -0.932   6.659   5.516  0.00  0.00    -0.600 N 
ATOM     10  C   LIG    1       -0.256   5.529   5.803  0.00  0.00    +0.610 C 
ATOM     11  O   LIG    1        0.177   4.833   4.904  0.00  0.00    -0.520 OA
BRANCH  10  12
ATOM     12  C   LIG    1       -0.043   5.138   7.200  0.00  0.00    -0.260 A 
ATOM     13  C   LIG    1        0.517   3.963   7.617  0.00  0.00    +0.100 A 
ATOM     14  C   LIG    1        0.597   3.855   8.986  0.00  0.00    +0.000 A 
ATOM     15  C   LIG    1        0.120   4.904   9.667  0.00  0.00    -0.070 A 
ATOM     16  S   LIG    1       -0.461   6.108   8.606  0.00  0.00    +0.210 S 
ENDBRANCH  10  12
ENDBRANCH   3   5
BRANCH   1  18
ATOM     17  C   LIG    1        1.850   9.616   1.741  0.00  0.00    +0.040 C 
ATOM     18  C   LIG    1        1.641   8.102   1.666  0.00  0.00    +0.240 C 
BRANCH  18  19
ATOM     19  C   LIG    1        1.681   7.653   0.204  0.00  0.00    +0.160 C 
BRANCH  19  20
ATOM     20  C   LIG    1        1.598   6.150   0.137  0.00  0.00    +0.090 A 
ATOM     21  N   LIG    1        0.503   5.493   0.057  0.00  0.00    -0.460 NA
ATOM     22  C   LIG    1        0.579   4.149   0.004  0.00  0.00    +0.090 A 
ATOM     23  C   LIG    1       -0.452   3.193  -0.086  0.00  0.00    +0.070 A 
ATOM     24  C   LIG    1       -0.158   1.864  -0.132  0.00  0.00    +0.030 A 
ATOM     25  C   LIG    1        1.158   1.426  -0.082  0.00  0.00    +0.040 A 
ATOM     26  C   LIG    1        2.186   2.338   0.005  0.00  0.00    +0.060 A 
ATOM     27  C   LIG    1        1.904   3.701   0.049  0.00  0.00    -0.180 A 
ATOM     28  S   LIG    1        2.952   5.112   0.158  0.00  0.00    +0.100 S 
ENDBRANCH  19  20
ENDBRANCH  18  19
ENDBRANCH   1  18
TORSDOF 5
