REMARK  Name = ZINCqH0000038Ar0.0
REMARK                            x       y       z     vdW  Elec       q    Type
REMARK                         _______ _______ _______ _____ _____    ______ ____
ROOT
ATOM      1  C   LIG    1        5.685  -0.713   1.391  0.00  0.00    +0.610 C 
ATOM      2  N   LIG    1        4.662  -0.026   0.845  0.00  0.00    -0.700 N 
ATOM      3  H   LIG    1        4.556   0.919   1.035  0.00  0.00    +0.400 HD
ATOM      4  O   LIG    1        5.818  -1.899   1.152  0.00  0.00    -0.510 OA
ENDROOT
BRANCH   1   7
ATOM      5  C   LIG    1        8.071  -2.061   2.740  0.00  0.00    +0.180 C 
ATOM      6  C   LIG    1        7.715  -0.604   2.893  0.00  0.00    +0.170 A 
ATOM      7  C   LIG    1        6.637  -0.032   2.274  0.00  0.00    -0.310 A 
ATOM      8  S   LIG    1        6.602   1.672   2.721  0.00  0.00    +0.190 S 
ATOM      9  C   LIG    1        7.999   1.460   3.683  0.00  0.00    +0.100 A 
ATOM     10  N   LIG    1        8.407   0.224   3.629  0.00  0.00    -0.470 NA
BRANCH   9  11
ATOM     11  C   LIG    1        8.655   2.531   4.462  0.00  0.00    -0.030 A 
ATOM     12  C   LIG    1        8.137   3.827   4.447  0.00  0.00    +0.060 A 
ATOM     13  C   LIG    1        8.750   4.821   5.181  0.00  0.00    +0.030 A 
ATOM     14  C   LIG    1        9.885   4.537   5.923  0.00  0.00    -0.020 A 
ATOM     15  C   LIG    1       10.407   3.255   5.937  0.00  0.00    +0.030 A 
ATOM     16 CL   LIG    1       10.656   5.795   6.838  0.00  0.00    -0.060 Cl
ATOM     17  C   LIG    1        9.799   2.251   5.212  0.00  0.00    +0.100 A 
ENDBRANCH   9  11
ENDBRANCH   1   7
BRANCH   2  18
ATOM     18  C   LIG    1        3.711  -0.707  -0.037  0.00  0.00    +0.300 C 
BRANCH  18  19
ATOM     19  C   LIG    1        2.396   0.029  -0.021  0.00  0.00    -0.100 A 
ATOM     20  C   LIG    1        1.208  -0.679  -0.013  0.00  0.00    +0.030 A 
ATOM     21  C   LIG    1        0.002  -0.004   0.002  0.00  0.00    +0.020 A 
ATOM     22  C   LIG    1       -0.017   1.378   0.010  0.00  0.00    +0.020 A 
ATOM     23  C   LIG    1        1.171   2.086   0.002  0.00  0.00    +0.020 A 
ATOM     24  C   LIG    1        2.377   1.411  -0.015  0.00  0.00    +0.010 A 
ENDBRANCH  18  19
BRANCH  18  25
ATOM     25  C   LIG    1        4.257  -0.730  -1.442  0.00  0.00    +0.510 C 
ATOM     26  O   LIG    1        5.334  -0.228  -1.683  0.00  0.00    -0.530 OA
ATOM     27  N   LIG    1        3.547  -1.310  -2.431  0.00  0.00    -0.850 N 
ATOM     28  H   LIG    1        3.898  -1.325  -3.335  0.00  0.00    +0.410 HD
ATOM     29  H   LIG    1        2.686  -1.712  -2.238  0.00  0.00    +0.400 HD
ENDBRANCH  18  25
ENDBRANCH   2  18
TORSDOF 5
