REMARK  Name = ZINCrD00000F5LHE.0
REMARK                            x       y       z     vdW  Elec       q    Type
REMARK                         _______ _______ _______ _____ _____    ______ ____
ROOT
ATOM      1  N   LIG    1       -2.127   1.086  -1.221  0.00  0.00    -0.980 NA
ENDROOT
BRANCH   1   2
ATOM      2  S   LIG    1       -2.505  -0.299  -2.048  0.00  0.00    +2.670 S 
ATOM      3  O   LIG    1       -1.520  -0.443  -3.062  0.00  0.00    -0.960 OA
ATOM      4  O   LIG    1       -3.898  -0.235  -2.321  0.00  0.00    -0.940 OA
BRANCH   2   5
ATOM      5  C   LIG    1       -2.277  -1.648  -0.937  0.00  0.00    -0.700 C 
ATOM      6  C   LIG    1       -1.233  -2.396  -1.098  0.00  0.00    +0.130 C 
ATOM      7  C   LIG    1       -0.907  -3.581  -0.237  0.00  0.00    +0.070 C 
ATOM      8  C   LIG    1       -1.717  -3.530   1.061  0.00  0.00    +0.020 C 
ATOM      9  C   LIG    1       -3.187  -3.275   0.706  0.00  0.00    +0.020 C 
ATOM     10  C   LIG    1       -3.308  -1.861   0.132  0.00  0.00    +0.110 C 
ENDBRANCH   2   5
ENDBRANCH   1   2
BRANCH   1  11
ATOM     11  C   LIG    1       -0.753   1.593  -1.232  0.00  0.00    +0.330 C 
BRANCH  11  12
ATOM     12  C   LIG    1       -0.013   1.086   0.008  0.00  0.00    +0.130 C 
ATOM     13  C   LIG    1        1.423   1.615  -0.003  0.00  0.00    +0.020 C 
BRANCH  12  15
ATOM     14  C   LIG    1       -0.556   0.670   2.305  0.00  0.00    +0.200 C 
ATOM     15  O   LIG    1       -0.682   1.547   1.184  0.00  0.00    -0.370 OA
ENDBRANCH  12  15
ENDBRANCH  11  12
ENDBRANCH   1  11
BRANCH   1  16
ATOM     16  C   LIG    1       -3.167   1.803  -0.480  0.00  0.00    +0.420 C 
BRANCH  16  17
ATOM     17  C   LIG    1       -3.732   2.902  -1.343  0.00  0.00    +0.050 A 
ATOM     18  N   LIG    1       -3.234   4.105  -1.469  0.00  0.00    -0.260 NA
ATOM     19  N   LIG    1       -4.034   4.834  -2.358  0.00  0.00    -0.360 N 
ATOM     20  C   LIG    1       -5.053   4.021  -2.763  0.00  0.00    +0.140 A 
ATOM     21  C   LIG    1       -3.820   6.222  -2.773  0.00  0.00    +0.360 C 
ATOM     22  C   LIG    1       -4.876   2.805  -2.135  0.00  0.00    -0.060 A 
BRANCH  20  23
ATOM     23  C   LIG    1       -6.136   4.374  -3.696  0.00  0.00    +0.030 A 
ATOM     24  C   LIG    1       -7.197   3.586  -4.025  0.00  0.00    +0.000 A 
ATOM     25  C   LIG    1       -7.978   4.319  -4.940  0.00  0.00    -0.050 A 
ATOM     26  C   LIG    1       -7.359   5.501  -5.130  0.00  0.00    +0.180 A 
ATOM     27  O   LIG    1       -6.247   5.531  -4.378  0.00  0.00    -0.180 OA
ENDBRANCH  20  23
ENDBRANCH  16  17
ENDBRANCH   1  16
TORSDOF 8
