REMARK  Name = ZINCrH000004tP6r.1
REMARK                            x       y       z     vdW  Elec       q    Type
REMARK                         _______ _______ _______ _____ _____    ______ ____
ROOT
ATOM      1  O   LIG    1       -2.130  -0.080   3.705  0.00  0.00    -0.520 OA
ATOM      2  C   LIG    1       -2.792   0.932   3.617  0.00  0.00    +0.520 C 
ATOM      3  N   LIG    1       -2.877   1.581   2.438  0.00  0.00    -0.730 N 
ATOM      4  H   LIG    1       -3.407   2.390   2.368  0.00  0.00    +0.400 HD
ENDROOT
BRANCH   3   5
ATOM      5  C   LIG    1       -2.170   1.064   1.264  0.00  0.00    +0.240 C 
ATOM      6  C   LIG    1       -0.729   1.579   1.267  0.00  0.00    +0.020 C 
ATOM      7  C   LIG    1       -0.013   1.086   0.008  0.00  0.00    +0.180 C 
ATOM      8  N   LIG    1       -0.723   1.572  -1.182  0.00  0.00    -0.530 NA
ATOM      9  C   LIG    1       -2.095   1.052  -1.231  0.00  0.00    +0.180 C 
ATOM     10  C   LIG    1       -2.873   1.544  -0.009  0.00  0.00    +0.030 C 
BRANCH   8  11
ATOM     11  C   LIG    1        0.013   1.235  -2.408  0.00  0.00    +0.240 C 
BRANCH  11  12
ATOM     12  C   LIG    1       -0.607   1.953  -3.579  0.00  0.00    -0.120 A 
ATOM     13  C   LIG    1       -1.466   1.280  -4.426  0.00  0.00    +0.040 A 
ATOM     14  C   LIG    1       -2.039   1.940  -5.498  0.00  0.00    +0.000 A 
ATOM     15  C   LIG    1       -1.745   3.270  -5.729  0.00  0.00    +0.040 A 
ATOM     16  C   LIG    1       -0.881   3.944  -4.886  0.00  0.00    -0.020 A 
ATOM     17  C   LIG    1       -0.311   3.286  -3.810  0.00  0.00    +0.120 A 
ATOM     18  F   LIG    1        0.534   3.943  -2.986  0.00  0.00    -0.130 F 
ENDBRANCH  11  12
ENDBRANCH   8  11
ENDBRANCH   3   5
BRANCH   2  19
ATOM     19  C   LIG    1       -3.520   1.464   4.824  0.00  0.00    +0.200 C 
BRANCH  19  20
ATOM     20  O   LIG    1       -3.275   0.608   5.943  0.00  0.00    -0.360 OA
BRANCH  20  21
ATOM     21  C   LIG    1       -3.923   1.026   7.146  0.00  0.00    +0.240 C 
BRANCH  21  22
ATOM     22  C   LIG    1       -3.599   0.056   8.253  0.00  0.00    -0.080 A 
ATOM     23  C   LIG    1       -2.783  -1.031   8.003  0.00  0.00    +0.070 A 
ATOM     24  C   LIG    1       -2.485  -1.920   9.019  0.00  0.00    +0.020 A 
ATOM     25  C   LIG    1       -3.003  -1.723  10.285  0.00  0.00    +0.020 A 
ATOM     26  C   LIG    1       -3.819  -0.636  10.537  0.00  0.00    +0.030 A 
ATOM     27  C   LIG    1       -4.112   0.258   9.522  0.00  0.00    -0.030 A 
ATOM     28 CL   LIG    1       -5.131   1.627   9.839  0.00  0.00    -0.070 Cl
ENDBRANCH  21  22
ENDBRANCH  20  21
ENDBRANCH  19  20
ENDBRANCH   2  19
TORSDOF 7
