REMARK  Name = ZINCpe00000gLZbT.1
REMARK                            x       y       z     vdW  Elec       q    Type
REMARK                         _______ _______ _______ _____ _____    ______ ____
ROOT
ATOM      1  C   LIG    1        5.816   1.277  -2.985  0.00  0.00    +0.120 A 
ATOM      2  C   LIG    1        7.171   1.390  -3.243  0.00  0.00    -0.050 A 
ATOM      3  C   LIG    1        8.080   1.353  -2.200  0.00  0.00    +0.110 A 
ATOM      4  C   LIG    1        7.638   1.202  -0.899  0.00  0.00    -0.670 A 
ATOM      5  C   LIG    1        6.286   1.094  -0.632  0.00  0.00    +0.070 A 
ATOM      6  C   LIG    1        5.370   1.125  -1.673  0.00  0.00    +0.180 A 
ENDROOT
BRANCH   4   7
ATOM      7  S   LIG    1        8.802   1.154   0.424  0.00  0.00    +2.690 S 
ATOM      8  O   LIG    1       10.037   0.740  -0.143  0.00  0.00    -0.950 OA
ATOM      9  O   LIG    1        8.167   0.465   1.492  0.00  0.00    -0.950 OA
BRANCH   7  10
ATOM     10  N   LIG    1        9.022   2.712   0.939  0.00  0.00    -1.000 NA
ATOM     11  C   LIG    1       10.071   3.562   0.354  0.00  0.00    +0.280 C 
ATOM     12  C   LIG    1        9.431   4.897  -0.060  0.00  0.00    +0.220 C 
ATOM     13  O   LIG    1        8.721   5.442   1.055  0.00  0.00    -0.370 OA
ATOM     14  C   LIG    1        7.634   4.633   1.510  0.00  0.00    +0.220 C 
ATOM     15  C   LIG    1        8.179   3.286   2.000  0.00  0.00    +0.280 C 
ENDBRANCH   7  10
ENDBRANCH   4   7
BRANCH   6  16
ATOM     16  N   LIG    1        4.001   1.011  -1.406  0.00  0.00    -0.740 N 
ATOM     17  H   LIG    1        3.361   1.038  -2.135  0.00  0.00    +0.410 HD
BRANCH  16  18
ATOM     18  C   LIG    1        3.534   0.852  -0.027  0.00  0.00    +0.390 C 
BRANCH  18  19
ATOM     19  C   LIG    1        2.030   0.752  -0.013  0.00  0.00    +0.160 A 
ATOM     20  N   LIG    1        1.189   1.750   0.000  0.00  0.00    -0.270 NA
ATOM     21  N   LIG    1       -0.016   1.301   0.009  0.00  0.00    -0.290 NA
ATOM     22  C   LIG    1        0.002  -0.004   0.002  0.00  0.00    +0.400 A 
ATOM     23  N   LIG    1        1.301  -0.390  -0.013  0.00  0.00    -0.570 N 
ATOM     24  H   LIG    1        1.640  -1.298  -0.020  0.00  0.00    +0.430 HD
ENDBRANCH  18  19
ENDBRANCH  16  18
ENDBRANCH   6  16
BRANCH   1  25
ATOM     25  O   LIG    1        4.921   1.314  -4.009  0.00  0.00    -0.310 OA
BRANCH  25  27
ATOM     26  C   LIG    1        4.303   1.490  -6.338  0.00  0.00    +0.070 C 
ATOM     27  C   LIG    1        5.451   1.471  -5.327  0.00  0.00    +0.190 C 
ENDBRANCH  25  27
ENDBRANCH   1  25
TORSDOF 7
