REMARK  Name = ZINCpe00000gLZbT.0
REMARK                            x       y       z     vdW  Elec       q    Type
REMARK                         _______ _______ _______ _____ _____    ______ ____
ROOT
ATOM      1  C   LIG    1       -4.036   4.527   5.125  0.00  0.00    +0.120 A 
ATOM      2  C   LIG    1       -3.844   5.400   4.067  0.00  0.00    -0.050 A 
ATOM      3  C   LIG    1       -2.745   5.253   3.239  0.00  0.00    +0.110 A 
ATOM      4  C   LIG    1       -1.843   4.229   3.458  0.00  0.00    -0.660 A 
ATOM      5  C   LIG    1       -2.027   3.354   4.512  0.00  0.00    +0.070 A 
ATOM      6  C   LIG    1       -3.123   3.498   5.349  0.00  0.00    +0.180 A 
ENDROOT
BRANCH   4   7
ATOM      7  S   LIG    1       -0.449   4.044   2.395  0.00  0.00    +2.690 S 
ATOM      8  O   LIG    1       -0.218   5.318   1.811  0.00  0.00    -0.950 OA
ATOM      9  O   LIG    1        0.534   3.341   3.142  0.00  0.00    -0.950 OA
BRANCH   7  10
ATOM     10  N   LIG    1       -0.905   3.039   1.160  0.00  0.00    -1.000 NA
ATOM     11  C   LIG    1       -0.732   1.581   1.268  0.00  0.00    +0.260 C 
ATOM     12  C   LIG    1       -0.013   1.086   0.008  0.00  0.00    +0.220 C 
ATOM     13  O   LIG    1       -0.706   1.560  -1.149  0.00  0.00    -0.380 OA
ATOM     14  C   LIG    1       -0.736   2.985  -1.270  0.00  0.00    +0.220 C 
ATOM     15  C   LIG    1       -1.493   3.577  -0.076  0.00  0.00    +0.260 C 
ENDBRANCH   7  10
ENDBRANCH   4   7
BRANCH   6  16
ATOM     16  N   LIG    1       -3.313   2.613   6.417  0.00  0.00    -0.740 N 
ATOM     17  H   LIG    1       -4.080   2.716   7.002  0.00  0.00    +0.410 HD
BRANCH  16  18
ATOM     18  C   LIG    1       -2.352   1.532   6.651  0.00  0.00    +0.400 C 
BRANCH  18  19
ATOM     19  C   LIG    1       -2.783   0.729   7.852  0.00  0.00    +0.210 A 
ATOM     20  N   LIG    1       -2.428   0.962   9.088  0.00  0.00    -0.290 NA
ATOM     21  N   LIG    1       -3.053  -0.015   9.880  0.00  0.00    -0.480 N 
ATOM     22  H   LIG    1       -2.989  -0.111  10.843  0.00  0.00    +0.450 HD
ATOM     23  C   LIG    1       -3.753  -0.794   9.038  0.00  0.00    +0.500 A 
ATOM     24  N   LIG    1       -3.582  -0.336   7.824  0.00  0.00    -0.530 NA
ENDBRANCH  18  19
ENDBRANCH  16  18
ENDBRANCH   6  16
BRANCH   1  25
ATOM     25  O   LIG    1       -5.113   4.674   5.942  0.00  0.00    -0.320 OA
BRANCH  25  27
ATOM     26  C   LIG    1       -7.148   5.756   6.670  0.00  0.00    +0.070 C 
ATOM     27  C   LIG    1       -6.006   5.751   5.651  0.00  0.00    +0.190 C 
ENDBRANCH  25  27
ENDBRANCH   1  25
TORSDOF 7
