REMARK  Name = ZINCvU0000000H9y.0
REMARK                            x       y       z     vdW  Elec       q    Type
REMARK                         _______ _______ _______ _____ _____    ______ ____
ROOT
ATOM      1  C   LIG    1        2.255   1.496  -0.125  0.00  0.00    -0.190 A 
ATOM      2  C   LIG    1        1.149   2.345  -0.049  0.00  0.00    +0.070 A 
ATOM      3  C   LIG    1       -0.120   1.814   0.052  0.00  0.00    -0.020 A 
ATOM      4  C   LIG    1       -0.303   0.441   0.078  0.00  0.00    +0.070 A 
ATOM      5  C   LIG    1        0.781  -0.410   0.004  0.00  0.00    +0.010 A 
ATOM      6  C   LIG    1        2.065   0.106  -0.098  0.00  0.00    +0.220 A 
ENDROOT
BRANCH   1   9
ATOM      7  N   LIG    1        3.802   3.389  -0.150  0.00  0.00    -0.660 N 
ATOM      8  H   LIG    1        3.038   3.985  -0.103  0.00  0.00    +0.410 HD
ATOM      9  C   LIG    1        3.615   2.057  -0.233  0.00  0.00    +0.570 C 
ATOM     10  O   LIG    1        4.566   1.318  -0.396  0.00  0.00    -0.530 OA
BRANCH   7  14
ATOM     11  C   LIG    1        7.668   4.951  -0.096  0.00  0.00    +0.110 A 
ATOM     12  C   LIG    1        6.614   5.725  -0.560  0.00  0.00    +0.010 A 
ATOM     13  C   LIG    1        5.333   5.208  -0.578  0.00  0.00    +0.020 A 
ATOM     14  C   LIG    1        5.101   3.914  -0.133  0.00  0.00    +0.110 A 
ATOM     15  C   LIG    1        6.155   3.141   0.336  0.00  0.00    +0.060 A 
ATOM     16  C   LIG    1        7.436   3.658   0.349  0.00  0.00    -0.060 A 
BRANCH  11  18
ATOM     17  C   LIG    1        9.965   4.609   0.411  0.00  0.00    +0.250 C 
ATOM     18  O   LIG    1        8.928   5.461  -0.079  0.00  0.00    -0.320 OA
ENDBRANCH  11  18
ENDBRANCH   7  14
ENDBRANCH   1   9
BRANCH   6  19
ATOM     19  N   LIG    1        3.160  -0.752  -0.173  0.00  0.00    -0.660 N 
ATOM     20  H   LIG    1        4.035  -0.448   0.118  0.00  0.00    +0.420 HD
ATOM     21  C   LIG    1        3.005  -2.003  -0.649  0.00  0.00    +0.520 C 
ATOM     22  O   LIG    1        1.938  -2.349  -1.109  0.00  0.00    -0.500 OA
BRANCH  21  23
ATOM     23  C   LIG    1        4.159  -2.972  -0.612  0.00  0.00    +0.170 C 
BRANCH  23  24
ATOM     24  C   LIG    1        3.727  -4.290  -1.200  0.00  0.00    +0.080 A 
ATOM     25  C   LIG    1        4.381  -4.864  -2.212  0.00  0.00    -0.060 A 
ATOM     26  S   LIG    1        3.573  -6.380  -2.605  0.00  0.00    +0.100 S 
ATOM     27  C   LIG    1        2.394  -6.075  -1.332  0.00  0.00    +0.140 A 
ATOM     28  N   LIG    1        2.678  -4.945  -0.751  0.00  0.00    -0.440 NA
BRANCH  27  29
ATOM     29  C   LIG    1        1.264  -6.961  -0.980  0.00  0.00    -0.050 A 
ATOM     30  C   LIG    1        0.391  -6.675   0.007  0.00  0.00    +0.020 A 
ATOM     31  S   LIG    1       -0.806  -7.958   0.123  0.00  0.00    +0.140 S 
ATOM     32  C   LIG    1       -0.048  -8.835  -1.198  0.00  0.00    -0.040 A 
ATOM     33  C   LIG    1        1.007  -8.160  -1.646  0.00  0.00    +0.020 A 
ENDBRANCH  27  29
ENDBRANCH  23  24
ENDBRANCH  21  23
ENDBRANCH   6  19
TORSDOF 7
