REMARK  Name = ZINCbw0000000HgW.0
REMARK                            x       y       z     vdW  Elec       q    Type
REMARK                         _______ _______ _______ _____ _____    ______ ____
ROOT
ATOM      1  C   LIG    1       -1.223   3.137   0.030  0.00  0.00    -0.060 A 
ATOM      2  C   LIG    1       -1.203   1.743   0.017  0.00  0.00    -0.020 A 
ATOM      3  C   LIG    1       -0.013   1.076   0.008  0.00  0.00    +0.100 A 
ATOM      4  C   LIG    1        1.191   1.794   0.000  0.00  0.00    -0.180 A 
ATOM      5  C   LIG    1        1.167   3.195   0.008  0.00  0.00    +0.090 A 
ATOM      6  C   LIG    1       -0.028   3.855   0.023  0.00  0.00    +0.020 A 
ENDROOT
BRANCH   4   7
ATOM      7  C   LIG    1        2.473   1.081  -0.016  0.00  0.00    +0.390 C 
ATOM      8  O   LIG    1        2.492  -0.132  -0.023  0.00  0.00    -0.460 OA
ATOM      9  C   LIG    1        3.766   1.855  -0.025  0.00  0.00    +0.080 C 
ENDBRANCH   4   7
BRANCH   1  11
ATOM     10  C   LIG    1       -3.904   2.588   0.051  0.00  0.00    +0.140 C 
ATOM     11  S   LIG    1       -2.763   3.994   0.048  0.00  0.00    -0.090 S 
ENDBRANCH   1  11
TORSDOF 2
