REMARK  Name = ZINCqH0000031Ey7.0
REMARK                            x       y       z     vdW  Elec       q    Type
REMARK                         _______ _______ _______ _____ _____    ______ ____
ROOT
ATOM      1  N   LIG    1       -0.016   1.344   0.009  0.00  0.00    -0.670 N 
ATOM      2  H   LIG    1       -0.910   1.698   0.138  0.00  0.00    +0.410 HD
ATOM      3  C   LIG    1        0.165   0.021  -0.173  0.00  0.00    +0.560 C 
ATOM      4  O   LIG    1        1.271  -0.411  -0.434  0.00  0.00    -0.510 OA
ENDROOT
BRANCH   1  12
ATOM      5  C   LIG    1        6.008   3.518   0.901  0.00  0.00    +0.120 C 
ATOM      6  C   LIG    1        5.521   4.815   0.309  0.00  0.00    +0.520 C 
ATOM      7  N   LIG    1        4.238   4.936  -0.086  0.00  0.00    -0.550 N 
ATOM      8  C   LIG    1        3.650   6.143  -0.673  0.00  0.00    +0.270 C 
ATOM      9  C   LIG    1        2.181   5.783  -0.950  0.00  0.00    +0.090 C 
ATOM     10  C   LIG    1        2.045   4.351  -0.483  0.00  0.00    -0.110 A 
ATOM     11  C   LIG    1        0.958   3.500  -0.482  0.00  0.00    +0.030 A 
ATOM     12  C   LIG    1        1.085   2.208   0.008  0.00  0.00    +0.130 A 
ATOM     13  C   LIG    1        2.310   1.778   0.503  0.00  0.00    +0.060 A 
ATOM     14  C   LIG    1        3.395   2.627   0.497  0.00  0.00    +0.000 A 
ATOM     15  C   LIG    1        3.271   3.927   0.004  0.00  0.00    +0.130 A 
ATOM     16  O   LIG    1        6.283   5.751   0.189  0.00  0.00    -0.520 OA
ENDBRANCH   1  12
BRANCH   3  17
ATOM     17  C   LIG    1       -0.981  -0.905  -0.056  0.00  0.00    -0.130 A 
ATOM     18  C   LIG    1       -2.252  -0.413   0.249  0.00  0.00    +0.040 A 
ATOM     19  C   LIG    1       -3.318  -1.282   0.351  0.00  0.00    +0.030 A 
ATOM     20  C   LIG    1       -3.129  -2.640   0.164  0.00  0.00    -0.060 A 
ATOM     21  C   LIG    1       -1.871  -3.135  -0.134  0.00  0.00    +0.030 A 
ATOM     22  C   LIG    1       -0.797  -2.276  -0.244  0.00  0.00    +0.080 A 
BRANCH  20  23
ATOM     23  C   LIG    1       -4.297  -3.584   0.283  0.00  0.00    +0.220 C 
BRANCH  23  24
ATOM     24  O   LIG    1       -4.413  -4.029   1.636  0.00  0.00    -0.380 OA
BRANCH  24  25
ATOM     25  C   LIG    1       -5.497  -4.934   1.859  0.00  0.00    +0.140 C 
ATOM     26  C   LIG    1       -6.008  -4.774   3.292  0.00  0.00    +0.040 C 
ATOM     27  C   LIG    1       -5.014  -6.370   1.647  0.00  0.00    +0.020 C 
ENDBRANCH  24  25
ENDBRANCH  23  24
ENDBRANCH  20  23
ENDBRANCH   3  17
TORSDOF 5
