REMARK  Name = ZINCpk000005WFgU.0
REMARK                            x       y       z     vdW  Elec       q    Type
REMARK                         _______ _______ _______ _____ _____    ______ ____
ROOT
ATOM      1  C   LIG    1        5.491  -1.281   0.372  0.00  0.00    +0.290 C 
ENDROOT
BRANCH   1   4
ATOM      2  O   LIG    1        6.605   0.538   2.023  0.00  0.00    -0.550 OA
ATOM      3  C   LIG    1        5.956   0.997   1.101  0.00  0.00    +0.590 C 
ATOM      4  N   LIG    1        5.359   0.170   0.220  0.00  0.00    -0.720 N 
ATOM      5  H   LIG    1        4.842   0.535  -0.515  0.00  0.00    +0.400 HD
BRANCH   3   6
ATOM      6  C   LIG    1        5.824   2.445   0.948  0.00  0.00    -0.250 A 
ATOM      7  C   LIG    1        6.383   3.433   1.778  0.00  0.00    +0.120 A 
ATOM      8  C   LIG    1        7.182   3.360   2.929  0.00  0.00    +0.080 A 
ATOM      9  C   LIG    1        7.583   4.512   3.538  0.00  0.00    +0.030 A 
ATOM     10  C   LIG    1        7.191   5.748   3.002  0.00  0.00    +0.010 A 
ATOM     11  C   LIG    1        6.422   5.799   1.894  0.00  0.00    +0.220 A 
ATOM     12  N   LIG    1        6.012   4.651   1.274  0.00  0.00    -0.340 N 
ATOM     13  C   LIG    1        5.242   4.450   0.159  0.00  0.00    +0.110 A 
ATOM     14  C   LIG    1        5.114   3.131  -0.068  0.00  0.00    +0.040 A 
ENDBRANCH   3   6
ENDBRANCH   1   4
BRANCH   1  15
ATOM     15  C   LIG    1        4.623  -1.985  -0.673  0.00  0.00    +0.140 C 
ATOM     16  C   LIG    1        5.294  -2.108  -2.052  0.00  0.00    +0.030 C 
ATOM     17  C   LIG    1        4.691  -3.521  -2.131  0.00  0.00    +0.010 C 
ATOM     18  C   LIG    1        4.684  -3.519  -0.593  0.00  0.00    +0.040 C 
BRANCH  15  19
ATOM     19  N   LIG    1        3.259  -1.454  -0.731  0.00  0.00    -0.710 N 
ATOM     20  H   LIG    1        2.951  -0.990  -1.525  0.00  0.00    +0.400 HD
ATOM     21  C   LIG    1        2.430  -1.611   0.321  0.00  0.00    +0.490 C 
ATOM     22  O   LIG    1        2.781  -2.270   1.277  0.00  0.00    -0.520 OA
BRANCH  21  23
ATOM     23  C   LIG    1        1.067  -0.969   0.308  0.00  0.00    +0.250 C 
BRANCH  23  24
ATOM     24  C   LIG    1        0.219  -1.592  -0.803  0.00  0.00    -0.090 C 
ATOM     25  C   LIG    1       -1.208  -1.071  -0.980  0.00  0.00    +0.040 C 
ATOM     26  C   LIG    1       -0.130  -0.711  -2.004  0.00  0.00    +0.030 C 
ENDBRANCH  23  24
BRANCH  23  27
ATOM     27  O   LIG    1        0.429  -1.181   1.569  0.00  0.00    -0.530 OA
ATOM     28  H   LIG    1        0.303  -2.113   1.795  0.00  0.00    +0.390 HD
ENDBRANCH  23  27
ENDBRANCH  21  23
ENDBRANCH  15  19
ENDBRANCH   1  15
TORSDOF 7
