REMARK  Name = ZINCvU0000000BBX.0
REMARK                            x       y       z     vdW  Elec       q    Type
REMARK                         _______ _______ _______ _____ _____    ______ ____
ROOT
ATOM      1  C   LIG    1       -6.646  -4.656  -4.703  0.00  0.00    +0.280 C 
ATOM      2  C   LIG    1       -5.728  -5.149  -5.841  0.00  0.00    +0.020 C 
ATOM      3  C   LIG    1       -5.691  -4.161  -6.931  0.00  0.00    +0.000 C 
ATOM      4  C   LIG    1       -5.110  -2.808  -6.534  0.00  0.00    +0.000 C 
ATOM      5  C   LIG    1       -6.196  -1.956  -5.924  0.00  0.00    +0.020 C 
ATOM      6  C   LIG    1       -6.221  -2.146  -4.397  0.00  0.00    +0.250 C 
ATOM      7  N   LIG    1       -6.018  -3.555  -4.007  0.00  0.00    -0.600 N 
ATOM      8  C   LIG    1       -5.211  -3.826  -2.963  0.00  0.00    +0.510 C 
ATOM      9  O   LIG    1       -5.086  -4.968  -2.574  0.00  0.00    -0.500 OA
ENDROOT
BRANCH   1  13
ATOM     10  C   LIG    1       -7.333  -7.863  -1.964  0.00  0.00    +0.120 A 
ATOM     11  C   LIG    1       -6.448  -8.029  -3.020  0.00  0.00    -0.010 A 
ATOM     12  C   LIG    1       -6.228  -6.990  -3.904  0.00  0.00    +0.070 A 
ATOM     13  C   LIG    1       -6.888  -5.787  -3.737  0.00  0.00    -0.090 A 
ATOM     14  C   LIG    1       -7.765  -5.618  -2.682  0.00  0.00    +0.040 A 
ATOM     15  C   LIG    1       -7.993  -6.655  -1.798  0.00  0.00    -0.080 A 
BRANCH  10  17
ATOM     16  C   LIG    1       -8.475  -8.642  -0.030  0.00  0.00    +0.230 C 
ATOM     17  O   LIG    1       -7.551  -8.884  -1.093  0.00  0.00    -0.320 OA
ENDBRANCH  10  17
ENDBRANCH   1  13
BRANCH   8  18
ATOM     18  C   LIG    1       -4.463  -2.711  -2.279  0.00  0.00    +0.060 C 
BRANCH  18  19
ATOM     19  C   LIG    1       -3.625  -3.285  -1.135  0.00  0.00    +0.210 C 
BRANCH  19  20
ATOM     20  C   LIG    1       -2.877  -2.170  -0.450  0.00  0.00    +0.200 A 
ATOM     21  N   LIG    1       -3.317  -1.473   0.559  0.00  0.00    -0.480 NA
ATOM     22  C   LIG    1       -2.382  -0.575   0.907  0.00  0.00    +0.180 A 
ATOM     23  C   LIG    1       -1.331  -0.731   0.061  0.00  0.00    -0.010 A 
ATOM     24  O   LIG    1       -1.653  -1.736  -0.782  0.00  0.00    -0.190 OA
BRANCH  23  25
ATOM     25  C   LIG    1       -0.074   0.046   0.066  0.00  0.00    -0.050 A 
ATOM     26  C   LIG    1       -0.112   1.441   0.085  0.00  0.00    +0.080 A 
ATOM     27  C   LIG    1        1.066   2.160   0.090  0.00  0.00    +0.010 A 
ATOM     28  C   LIG    1        2.283   1.503   0.077  0.00  0.00    +0.060 A 
ATOM     29  C   LIG    1        2.330   0.121   0.057  0.00  0.00    -0.010 A 
ATOM     30  C   LIG    1        1.159  -0.613   0.052  0.00  0.00    +0.120 A 
ATOM     31  F   LIG    1        1.205  -1.963   0.035  0.00  0.00    -0.130 F 
ENDBRANCH  23  25
ENDBRANCH  19  20
ENDBRANCH  18  19
ENDBRANCH   8  18
TORSDOF 6
