REMARK  Name = ZINCvU0000000JtO.0
REMARK                            x       y       z     vdW  Elec       q    Type
REMARK                         _______ _______ _______ _____ _____    ______ ____
ROOT
ATOM      1  C   LIG    1       -3.566   2.602  -0.018  0.00  0.00    +0.570 C 
ATOM      2  N   LIG    1       -2.497   1.785   0.051  0.00  0.00    -0.660 N 
ATOM      3  H   LIG    1       -2.623   0.824   0.104  0.00  0.00    +0.420 HD
ATOM      4  O   LIG    1       -3.409   3.796  -0.184  0.00  0.00    -0.530 OA
ENDROOT
BRANCH   1  13
ATOM      5  C   LIG    1      -11.029   5.903  -0.020  0.00  0.00    +0.030 C 
ATOM      6  C   LIG    1      -10.518   4.522   0.393  0.00  0.00    -0.020 C 
ATOM      7  C   LIG    1      -11.371   3.440  -0.275  0.00  0.00    +0.030 C 
ATOM      8  C   LIG    1      -11.025   2.073   0.326  0.00  0.00    +0.100 C 
ATOM      9  C   LIG    1       -9.524   1.902   0.297  0.00  0.00    +0.070 A 
ATOM     10  C   LIG    1       -8.660   2.921   0.129  0.00  0.00    -0.150 A 
ATOM     11  C   LIG    1       -7.313   2.357   0.155  0.00  0.00    -0.110 A 
ATOM     12  C   LIG    1       -6.032   2.892   0.035  0.00  0.00    +0.150 A 
ATOM     13  C   LIG    1       -4.928   2.047   0.107  0.00  0.00    -0.170 A 
ATOM     14  C   LIG    1       -5.109   0.669   0.293  0.00  0.00    +0.070 A 
ATOM     15  C   LIG    1       -6.361   0.143   0.416  0.00  0.00    +0.000 A 
ATOM     16  C   LIG    1       -7.480   0.970   0.348  0.00  0.00    +0.120 A 
ATOM     17  N   LIG    1       -8.832   0.731   0.431  0.00  0.00    -0.580 N 
ATOM     18  H   LIG    1       -9.235  -0.141   0.564  0.00  0.00    +0.420 HD
ATOM     19  C   LIG    1       -9.058   4.363  -0.050  0.00  0.00    +0.100 C 
ENDBRANCH   1  13
BRANCH   2  20
ATOM     20  C   LIG    1       -1.211   2.319   0.046  0.00  0.00    +0.210 A 
ATOM     21  C   LIG    1       -0.887   3.349  -0.826  0.00  0.00    +0.020 A 
ATOM     22  C   LIG    1        0.390   3.873  -0.834  0.00  0.00    +0.060 A 
ATOM     23  C   LIG    1        1.355   3.381   0.030  0.00  0.00    -0.010 A 
ATOM     24  C   LIG    1        1.050   2.362   0.907  0.00  0.00    +0.060 A 
ATOM     25  C   LIG    1       -0.238   1.822   0.926  0.00  0.00    -0.170 A 
BRANCH  25  26
ATOM     26  C   LIG    1       -0.571   0.731   1.862  0.00  0.00    +0.570 C 
ATOM     27  N   LIG    1        0.378   0.230   2.678  0.00  0.00    -0.720 N 
ATOM     28  H   LIG    1        1.279   0.587   2.650  0.00  0.00    +0.400 HD
ATOM     29  O   LIG    1       -1.701   0.284   1.897  0.00  0.00    -0.540 OA
BRANCH  27  30
ATOM     30  C   LIG    1        0.047  -0.853   3.607  0.00  0.00    +0.230 C 
ATOM     31  C   LIG    1       -0.496  -0.268   4.928  0.00  0.00    +0.000 C 
ATOM     32  C   LIG    1        0.080  -1.204   6.021  0.00  0.00    +0.010 C 
ATOM     33  C   LIG    1        1.501  -1.517   5.491  0.00  0.00    +0.010 C 
ATOM     34  C   LIG    1        1.315  -1.646   3.965  0.00  0.00    +0.020 C 
ENDBRANCH  27  30
ENDBRANCH  25  26
ENDBRANCH   2  20
TORSDOF 4
