REMARK  Name = ZINCqH0000036Ss7.0
REMARK                            x       y       z     vdW  Elec       q    Type
REMARK                         _______ _______ _______ _____ _____    ______ ____
ROOT
ATOM      1  C   LIG    1        7.522  -2.417   0.315  0.00  0.00    +0.030 C 
ATOM      2  C   LIG    1        6.567  -1.261   0.009  0.00  0.00    -0.010 C 
ATOM      3  C   LIG    1        6.918  -0.057   0.888  0.00  0.00    +0.030 C 
ATOM      4  C   LIG    1        6.136   1.165   0.403  0.00  0.00    +0.090 C 
ATOM      5  C   LIG    1        4.668   0.790   0.281  0.00  0.00    -0.050 A 
ATOM      6  C   LIG    1        4.229  -0.474   0.239  0.00  0.00    -0.240 A 
ATOM      7  S   LIG    1        2.479  -0.522   0.103  0.00  0.00    +0.300 S 
ATOM      8  C   LIG    1        2.351   1.175   0.093  0.00  0.00    +0.040 A 
ATOM      9  C   LIG    1        3.587   1.754   0.197  0.00  0.00    -0.220 A 
ATOM     10  C   LIG    1        5.128  -1.693   0.307  0.00  0.00    +0.120 C 
ENDROOT
BRANCH   8  11
ATOM     11  N   LIG    1        1.159   1.874  -0.001  0.00  0.00    -0.610 N 
ATOM     12  H   LIG    1        1.169   2.842  -0.070  0.00  0.00    +0.430 HD
ATOM     13  C   LIG    1       -0.014   1.210   0.004  0.00  0.00    +0.570 C 
ATOM     14  O   LIG    1       -0.024  -0.005  -0.002  0.00  0.00    -0.490 OA
BRANCH  13  15
ATOM     15  C   LIG    1       -1.290   1.962   0.012  0.00  0.00    +0.020 A 
ATOM     16  C   LIG    1       -2.502   1.280   0.117  0.00  0.00    +0.310 A 
ATOM     17  N   LIG    1       -3.638   1.955   0.124  0.00  0.00    -0.440 NA
ATOM     18  C   LIG    1       -3.625   3.273   0.032  0.00  0.00    +0.270 A 
ATOM     19  C   LIG    1       -2.421   3.954  -0.073  0.00  0.00    +0.240 A 
ATOM     20  N   LIG    1       -1.283   3.289  -0.076  0.00  0.00    -0.410 NA
ENDBRANCH  13  15
ENDBRANCH   8  11
BRANCH   9  21
ATOM     21  C   LIG    1        3.797   3.206   0.221  0.00  0.00    +0.510 C 
ATOM     22  O   LIG    1        3.708   3.817   1.272  0.00  0.00    -0.420 OA
BRANCH  21  23
ATOM     23  C   LIG    1        4.114   3.922  -1.020  0.00  0.00    -0.110 A 
ATOM     24  C   LIG    1        4.422   5.248  -1.125  0.00  0.00    +0.040 A 
ATOM     25  C   LIG    1        4.656   5.502  -2.486  0.00  0.00    -0.070 A 
ATOM     26  C   LIG    1        4.474   4.336  -3.144  0.00  0.00    +0.210 A 
ATOM     27  O   LIG    1        4.148   3.386  -2.257  0.00  0.00    -0.150 OA
ENDBRANCH  21  23
ENDBRANCH   9  21
TORSDOF 4
