REMARK  Name = ZINCpe00000MJLFC.0
REMARK                            x       y       z     vdW  Elec       q    Type
REMARK                         _______ _______ _______ _____ _____    ______ ____
ROOT
ATOM      1  N   LIG    1       -1.729   1.755  -1.401  0.00  0.00    -1.010 NA
ATOM      2  C   LIG    1       -1.863   3.088  -2.006  0.00  0.00    +0.280 C 
ATOM      3  C   LIG    1       -3.136   3.069  -2.878  0.00  0.00    +0.080 C 
ATOM      4  C   LIG    1       -3.958   1.902  -2.269  0.00  0.00    +0.220 C 
ATOM      5  C   LIG    1       -2.835   0.905  -1.878  0.00  0.00    +0.340 C 
ENDROOT
BRANCH   4   6
ATOM      6  C   LIG    1       -4.728   2.359  -1.057  0.00  0.00    +0.150 A 
ATOM      7  N   LIG    1       -5.716   3.220  -1.039  0.00  0.00    -0.460 NA
ATOM      8  C   LIG    1       -6.091   3.314   0.249  0.00  0.00    +0.210 A 
ATOM      9  N   LIG    1       -5.320   2.526   0.937  0.00  0.00    -0.370 NA
ATOM     10  O   LIG    1       -4.530   1.968   0.206  0.00  0.00    +0.090 OA
BRANCH   8  11
ATOM     11  C   LIG    1       -7.197   4.180   0.795  0.00  0.00    +0.060 C 
ATOM     12  C   LIG    1       -7.320   4.293   2.316  0.00  0.00    +0.050 C 
ATOM     13  C   LIG    1       -8.346   3.481   1.524  0.00  0.00    +0.060 C 
ENDBRANCH   8  11
ENDBRANCH   4   6
BRANCH   1  14
ATOM     14  S   LIG    1       -0.530   1.284  -0.360  0.00  0.00    +2.720 S 
ATOM     15  O   LIG    1        0.511   2.244  -0.486  0.00  0.00    -0.940 OA
ATOM     16  O   LIG    1       -0.334  -0.107  -0.576  0.00  0.00    -0.940 OA
BRANCH  14  23
ATOM     17  C   LIG    1       -1.490   2.703   1.782  0.00  0.00    +0.500 A 
ATOM     18  N   LIG    1       -1.966   2.831   3.010  0.00  0.00    -0.530 NA
ATOM     19  C   LIG    1       -2.149   1.785   3.794  0.00  0.00    +0.400 A 
ATOM     20  C   LIG    1       -1.848   0.510   3.356  0.00  0.00    -0.170 A 
ATOM     21  C   LIG    1       -1.349   0.333   2.071  0.00  0.00    +0.240 A 
ATOM     22 CL   LIG    1       -2.095  -0.856   4.397  0.00  0.00    -0.050 Cl
ATOM     23  C   LIG    1       -1.164   1.449   1.275  0.00  0.00    -0.790 A 
BRANCH  17  24
ATOM     24  N   LIG    1       -1.313   3.833   0.991  0.00  0.00    -0.840 N 
ATOM     25  H   LIG    1       -1.642   4.694   1.293  0.00  0.00    +0.420 HD
ATOM     26  H   LIG    1       -0.860   3.760   0.136  0.00  0.00    +0.410 HD
ENDBRANCH  17  24
ENDBRANCH  14  23
ENDBRANCH   1  14
BRANCH   4  27
ATOM     27  O   LIG    1       -4.832   1.328  -3.242  0.00  0.00    -0.520 OA
ATOM     28  H   LIG    1       -5.490   1.945  -3.592  0.00  0.00    +0.400 HD
ENDBRANCH   4  27
TORSDOF 6
