REMARK  Name = ZINCpk000004Mjnq.0
REMARK                            x       y       z     vdW  Elec       q    Type
REMARK                         _______ _______ _______ _____ _____    ______ ____
ROOT
ATOM      1  C   LIG    1        4.641  -1.715   0.964  0.00  0.00    +0.240 C 
ATOM      2  C   LIG    1        3.110  -1.722   0.985  0.00  0.00    +0.040 C 
ATOM      3  C   LIG    1        2.600  -0.284   1.110  0.00  0.00    +0.210 C 
ATOM      4  N   LIG    1        3.088   0.510  -0.025  0.00  0.00    -0.460 N 
ATOM      5  C   LIG    1        4.555   0.570  -0.039  0.00  0.00    +0.210 C 
ATOM      6  C   LIG    1        5.123  -0.842  -0.198  0.00  0.00    +0.170 C 
ENDROOT
BRANCH   4   7
ATOM      7  C   LIG    1        2.540   1.780  -0.013  0.00  0.00    +0.410 A 
ATOM      8  C   LIG    1        1.149   1.963   0.002  0.00  0.00    -0.220 A 
ATOM      9  C   LIG    1       -0.013   1.076   0.008  0.00  0.00    -0.010 A 
ATOM     10  C   LIG    1       -1.102   1.862   0.017  0.00  0.00    +0.230 A 
ATOM     11  N   LIG    1       -0.723   3.180   0.026  0.00  0.00    -0.570 N 
ATOM     12  H   LIG    1       -1.334   3.933   0.036  0.00  0.00    +0.420 HD
ATOM     13  C   LIG    1        0.641   3.275   0.013  0.00  0.00    +0.330 A 
ATOM     14  N   LIG    1        1.502   4.292   0.010  0.00  0.00    -0.550 NA
ATOM     15  C   LIG    1        2.799   4.073  -0.004  0.00  0.00    +0.540 A 
ATOM     16  N   LIG    1        3.318   2.858  -0.015  0.00  0.00    -0.580 NA
ENDBRANCH   4   7
BRANCH   1  18
ATOM     17  C   LIG    1        5.289  -3.888   1.856  0.00  0.00    +0.530 C 
ATOM     18  N   LIG    1        5.135  -3.083   0.786  0.00  0.00    -0.720 N 
ATOM     19  H   LIG    1        5.351  -3.409  -0.101  0.00  0.00    +0.400 HD
ATOM     20  O   LIG    1        5.018  -3.480   2.966  0.00  0.00    -0.540 OA
BRANCH  17  24
ATOM     21  C   LIG    1        6.469  -8.138   1.556  0.00  0.00    +0.050 C 
ATOM     22  C   LIG    1        5.376  -7.298   2.219  0.00  0.00    -0.090 C 
ATOM     23  C   LIG    1        5.916  -6.082   2.990  0.00  0.00    +0.060 C 
ATOM     24  C   LIG    1        5.797  -5.295   1.674  0.00  0.00    -0.030 C 
ATOM     25  C   LIG    1        4.382  -8.140   3.022  0.00  0.00    +0.040 C 
ATOM     26  C   LIG    1        4.704  -6.296   1.265  0.00  0.00    +0.060 C 
ENDBRANCH  17  24
ENDBRANCH   1  18
BRANCH   6  27
ATOM     27  O   LIG    1        6.551  -0.786  -0.191  0.00  0.00    -0.560 OA
ATOM     28  H   LIG    1        6.927  -0.246  -0.900  0.00  0.00    +0.380 HD
ENDBRANCH   6  27
TORSDOF 4
