REMARK  Name = ZINCqH0000004QGm.0
REMARK                            x       y       z     vdW  Elec       q    Type
REMARK                         _______ _______ _______ _____ _____    ______ ____
ROOT
ATOM      1  N   LIG    1       -5.549   3.291   4.394  0.00  0.00    -0.510 N 
ATOM      2  H   LIG    1       -6.243   3.199   3.722  0.00  0.00    +0.440 HD
ATOM      3  C   LIG    1       -5.864   3.715   5.634  0.00  0.00    +0.540 C 
ATOM      4  O   LIG    1       -4.996   3.830   6.474  0.00  0.00    -0.510 OA
ENDROOT
BRANCH   1   6
ATOM      5  C   LIG    1       -3.906   2.559   2.835  0.00  0.00    +0.600 C 
ATOM      6  N   LIG    1       -4.220   2.983   4.075  0.00  0.00    -0.520 N 
ATOM      7  H   LIG    1       -3.526   3.075   4.747  0.00  0.00    +0.430 HD
ATOM      8  O   LIG    1       -4.776   2.444   1.992  0.00  0.00    -0.530 OA
BRANCH   5  12
ATOM      9  C   LIG    1       -0.071   1.814   2.394  0.00  0.00    -0.180 A 
ATOM     10  C   LIG    1       -0.718   1.572   1.248  0.00  0.00    -0.120 A 
ATOM     11  C   LIG    1       -2.072   1.805   1.283  0.00  0.00    +0.130 A 
ATOM     12  C   LIG    1       -2.515   2.237   2.501  0.00  0.00    -0.280 A 
ATOM     13  C   LIG    1       -0.013   1.086   0.008  0.00  0.00    +0.110 C 
ATOM     14  S   LIG    1       -1.149   2.350   3.602  0.00  0.00    +0.210 S 
BRANCH   9  16
ATOM     15  C   LIG    1        2.133   2.941   2.246  0.00  0.00    +0.040 C 
ATOM     16  C   LIG    1        1.413   1.636   2.591  0.00  0.00    +0.110 C 
ENDBRANCH   9  16
ENDBRANCH   5  12
ENDBRANCH   1   6
BRANCH   3  17
ATOM     17  C   LIG    1       -7.293   4.046   5.977  0.00  0.00    +0.090 C 
BRANCH  17  18
ATOM     18  S   LIG    1       -7.391   4.583   7.707  0.00  0.00    +0.040 S 
BRANCH  18  19
ATOM     19  C   LIG    1       -9.107   4.921   7.921  0.00  0.00    -0.090 A 
ATOM     20  C   LIG    1       -9.985   4.751   6.872  0.00  0.00    +0.010 A 
ATOM     21  C   LIG    1      -11.343   5.010   7.029  0.00  0.00    +0.030 A 
ATOM     22  C   LIG    1      -11.840   5.447   8.219  0.00  0.00    +0.030 A 
ATOM     23  C   LIG    1      -10.978   5.638   9.311  0.00  0.00    -0.090 A 
ATOM     24  C   LIG    1      -11.460   6.090  10.554  0.00  0.00    +0.080 A 
ATOM     25  C   LIG    1      -10.565   6.254  11.572  0.00  0.00    -0.030 A 
ATOM     26  C   LIG    1       -9.216   5.976  11.363  0.00  0.00    +0.290 A 
ATOM     27  N   LIG    1       -8.771   5.556  10.204  0.00  0.00    -0.470 NA
ATOM     28  C   LIG    1       -9.594   5.374   9.168  0.00  0.00    +0.140 A 
ENDBRANCH  18  19
ENDBRANCH  17  18
ENDBRANCH   3  17
TORSDOF 6
