REMARK  Name = ZINCrD000000BIKl.0
REMARK                            x       y       z     vdW  Elec       q    Type
REMARK                         _______ _______ _______ _____ _____    ______ ____
ROOT
ATOM      1  O   LIG    1        5.245   0.044  -0.695  0.00  0.00    -0.520 OA
ATOM      2  C   LIG    1        5.369   0.445   0.445  0.00  0.00    +0.580 C 
ATOM      3  N   LIG    1        4.640   1.495   0.873  0.00  0.00    -0.700 N 
ATOM      4  H   LIG    1        4.738   1.815   1.783  0.00  0.00    +0.410 HD
ENDROOT
BRANCH   3   5
ATOM      5  C   LIG    1        3.698   2.152  -0.037  0.00  0.00    +0.300 C 
ATOM      6  C   LIG    1        3.484   3.601   0.410  0.00  0.00    +0.020 C 
ATOM      7  C   LIG    1        2.289   4.173  -0.364  0.00  0.00    +0.250 C 
ATOM      8  O   LIG    1        1.118   3.450   0.018  0.00  0.00    -0.300 OA
ATOM      9  C   LIG    1        1.177   2.093   0.002  0.00  0.00    +0.170 A 
ATOM     10  C   LIG    1       -0.017   1.377   0.010  0.00  0.00    -0.130 A 
ATOM     11  C   LIG    1        0.002  -0.004   0.002  0.00  0.00    +0.090 A 
ATOM     12  C   LIG    1        1.209  -0.678  -0.013  0.00  0.00    -0.020 A 
ATOM     13  C   LIG    1        2.395   0.030  -0.022  0.00  0.00    +0.080 A 
ATOM     14 BR   LIG    1       -1.669   2.297   0.022  0.00  0.00    -0.030 Br
ATOM     15  C   LIG    1        2.383   1.415  -0.016  0.00  0.00    -0.180 A 
ENDBRANCH   3   5
BRANCH   2  16
ATOM     16  C   LIG    1        6.321  -0.220   1.365  0.00  0.00    +0.070 A 
ATOM     17  C   LIG    1        7.073  -1.306   0.914  0.00  0.00    +0.070 A 
ATOM     18  C   LIG    1        7.961  -1.922   1.782  0.00  0.00    +0.080 A 
ATOM     19  C   LIG    1        8.072  -1.433   3.073  0.00  0.00    +0.080 A 
ATOM     20  C   LIG    1        7.290  -0.342   3.459  0.00  0.00    +0.080 A 
ATOM     21  N   LIG    1        6.455   0.226   2.604  0.00  0.00    -0.430 NA
BRANCH  20  22
ATOM     22  C   LIG    1        7.402   0.189   4.838  0.00  0.00    +0.590 C 
ATOM     23  N   LIG    1        6.651   1.242   5.218  0.00  0.00    -0.600 N 
ATOM     24  C   LIG    1        5.689   1.959   4.368  0.00  0.00    +0.260 C 
ATOM     25  C   LIG    1        5.088   3.099   5.218  0.00  0.00    +0.020 C 
ATOM     26  C   LIG    1        6.163   3.316   6.316  0.00  0.00    +0.040 C 
ATOM     27  C   LIG    1        6.662   1.868   6.553  0.00  0.00    +0.250 C 
ATOM     28  O   LIG    1        8.171  -0.324   5.627  0.00  0.00    -0.530 OA
ENDBRANCH  20  22
ENDBRANCH   2  16
TORSDOF 3
