REMARK  Name = ZINCqH0000050hc6.0
REMARK                            x       y       z     vdW  Elec       q    Type
REMARK                         _______ _______ _______ _____ _____    ______ ____
ROOT
ATOM      1  C   LIG    1        5.132  -2.584  -0.062  0.00  0.00    +0.120 C 
ATOM      2  C   LIG    1        3.785  -1.908  -0.046  0.00  0.00    -0.010 A 
ATOM      3  C   LIG    1        3.713  -0.531  -0.037  0.00  0.00    +0.040 A 
ATOM      4  C   LIG    1        2.475   0.099  -0.021  0.00  0.00    +0.160 A 
ATOM      5  C   LIG    1        1.304  -0.679  -0.014  0.00  0.00    -0.150 A 
ATOM      6  C   LIG    1        0.002  -0.004   0.002  0.00  0.00    -0.020 A 
ATOM      7  C   LIG    1       -0.016   1.353   0.009  0.00  0.00    -0.010 A 
ATOM      8  C   LIG    1        1.199   2.071   0.002  0.00  0.00    +0.510 A 
ATOM      9  O   LIG    1        1.169   3.288   0.009  0.00  0.00    -0.440 OA
ATOM     10  C   LIG    1        1.391  -2.075  -0.023  0.00  0.00    +0.110 A 
ATOM     11  O   LIG    1        2.387   1.446  -0.013  0.00  0.00    -0.260 OA
ATOM     12  C   LIG    1        2.630  -2.678  -0.038  0.00  0.00    -0.060 A 
ATOM     13 CL   LIG    1        2.746  -4.410  -0.049  0.00  0.00    -0.040 Cl
ENDROOT
BRANCH   6  14
ATOM     14  C   LIG    1       -1.280  -0.796   0.011  0.00  0.00    +0.450 C 
BRANCH  14  15
ATOM     15  N   LIG    1       -1.646  -1.147  -1.364  0.00  0.00    -0.140 N 
ATOM     16  N   LIG    1       -1.282  -2.217  -1.981  0.00  0.00    -0.050 NA
ATOM     17  N   LIG    1       -1.782  -2.205  -3.170  0.00  0.00    -0.260 NA
ATOM     18  C   LIG    1       -2.490  -1.073  -3.293  0.00  0.00    +0.220 A 
ATOM     19  N   LIG    1       -2.388  -0.437  -2.143  0.00  0.00    -0.300 NA
BRANCH  18  20
ATOM     20  C   LIG    1       -3.246  -0.626  -4.489  0.00  0.00    -0.030 A 
ATOM     21  C   LIG    1       -3.943   0.580  -4.465  0.00  0.00    +0.050 A 
ATOM     22  C   LIG    1       -4.641   0.994  -5.582  0.00  0.00    +0.000 A 
ATOM     23  C   LIG    1       -4.658   0.207  -6.720  0.00  0.00    +0.040 A 
ATOM     24  C   LIG    1       -3.972  -0.994  -6.747  0.00  0.00    +0.000 A 
ATOM     25  C   LIG    1       -3.267  -1.414  -5.638  0.00  0.00    -0.040 A 
ATOM     26  C   LIG    1       -2.520  -2.722  -5.669  0.00  0.00    +0.120 C 
ENDBRANCH  18  20
ENDBRANCH  14  15
ENDBRANCH   6  14
TORSDOF 3
