REMARK  Name = ZINCkj00000y7ifU.0
REMARK                            x       y       z     vdW  Elec       q    Type
REMARK                         _______ _______ _______ _____ _____    ______ ____
ROOT
ATOM      1  N   LIG    1       -1.037   5.544   3.747  0.00  0.00    -0.730 N 
ATOM      2  H   LIG    1       -1.085   4.976   4.532  0.00  0.00    +0.410 HD
ATOM      3  C   LIG    1       -0.493   6.774   3.837  0.00  0.00    +0.520 C 
ATOM      4  O   LIG    1       -0.434   7.484   2.856  0.00  0.00    -0.530 OA
ENDROOT
BRANCH   1   9
ATOM      5  C   LIG    1       -1.543   3.521   2.417  0.00  0.00    -0.050 C 
ATOM      6  C   LIG    1       -3.030   3.137   2.244  0.00  0.00    +0.200 C 
ATOM      7  O   LIG    1       -3.765   4.263   2.771  0.00  0.00    -0.350 OA
ATOM      8  C   LIG    1       -3.050   5.432   2.314  0.00  0.00    +0.220 C 
ATOM      9  C   LIG    1       -1.557   5.065   2.464  0.00  0.00    +0.250 C 
BRANCH   5  10
ATOM     10  C   LIG    1       -0.720   3.028   1.225  0.00  0.00    +0.280 C 
BRANCH  10  12
ATOM     11  C   LIG    1       -0.013   1.086   0.008  0.00  0.00    +0.330 C 
ATOM     12  N   LIG    1       -0.700   1.560   1.217  0.00  0.00    -0.390 N 
ATOM     13  C   LIG    1        0.010   1.073   2.407  0.00  0.00    +0.320 C 
ATOM     14  H   LIG    1       -1.647   1.210   1.224  0.00  0.00    +0.430 HD
ENDBRANCH  10  12
ENDBRANCH   5  10
ENDBRANCH   1   9
BRANCH   3  15
ATOM     15  C   LIG    1        0.042   7.266   5.157  0.00  0.00    +0.070 C 
BRANCH  15  16
ATOM     16  C   LIG    1        0.600   8.681   4.986  0.00  0.00    +0.100 C 
BRANCH  16  17
ATOM     17  C   LIG    1        1.135   9.173   6.305  0.00  0.00    -0.090 A 
ATOM     18  C   LIG    1        0.307   9.861   7.173  0.00  0.00    +0.000 A 
ATOM     19  C   LIG    1        0.796  10.309   8.386  0.00  0.00    +0.000 A 
ATOM     20  C   LIG    1        2.116  10.078   8.727  0.00  0.00    +0.000 A 
ATOM     21  C   LIG    1        2.945   9.395   7.856  0.00  0.00    +0.000 A 
ATOM     22  C   LIG    1        2.455   8.943   6.646  0.00  0.00    +0.000 A 
ENDBRANCH  16  17
ENDBRANCH  15  16
ENDBRANCH   3  15
TORSDOF 6
