REMARK  Name = ZINCqH0000004Rz3.0
REMARK                            x       y       z     vdW  Elec       q    Type
REMARK                         _______ _______ _______ _____ _____    ______ ____
ROOT
ATOM      1  N   LIG    1        5.244   2.673   1.347  0.00  0.00    -0.740 N 
ATOM      2  H   LIG    1        4.622   2.639   2.090  0.00  0.00    +0.400 HD
ATOM      3  C   LIG    1        6.570   2.735   1.581  0.00  0.00    +0.730 C 
ATOM      4  N   LIG    1        7.031   2.750   2.847  0.00  0.00    -0.640 N 
ATOM      5  C   LIG    1        6.203   2.704   4.061  0.00  0.00    +0.240 C 
ATOM      6  C   LIG    1        7.159   2.769   5.270  0.00  0.00    +0.050 C 
ATOM      7  C   LIG    1        8.434   3.419   4.670  0.00  0.00    +0.040 C 
ATOM      8  C   LIG    1        8.450   2.809   3.244  0.00  0.00    +0.280 C 
ATOM      9  O   LIG    1        7.350   2.777   0.649  0.00  0.00    -0.580 OA
ENDROOT
BRANCH   7  10
ATOM     10  C   LIG    1        9.663   3.011   5.442  0.00  0.00    -0.080 A 
ATOM     11  C   LIG    1       10.005   1.676   5.541  0.00  0.00    +0.010 A 
ATOM     12  C   LIG    1       11.134   1.302   6.246  0.00  0.00    +0.000 A 
ATOM     13  C   LIG    1       11.916   2.263   6.859  0.00  0.00    +0.000 A 
ATOM     14  C   LIG    1       11.570   3.598   6.765  0.00  0.00    +0.000 A 
ATOM     15  C   LIG    1       10.444   3.972   6.057  0.00  0.00    +0.010 A 
ENDBRANCH   7  10
BRANCH   1  16
ATOM     16  C   LIG    1        4.742   2.656  -0.029  0.00  0.00    +0.420 C 
BRANCH  16  25
ATOM     17  N   LIG    1        2.512   1.434  -0.014  0.00  0.00    -0.480 N 
ATOM     18  C   LIG    1        1.178   1.789   0.000  0.00  0.00    +0.050 A 
ATOM     19  C   LIG    1       -0.013   1.076   0.008  0.00  0.00    +0.010 A 
ATOM     20  C   LIG    1       -1.214   1.752   0.017  0.00  0.00    +0.030 A 
ATOM     21  C   LIG    1       -1.240   3.139   0.031  0.00  0.00    +0.000 A 
ATOM     22  C   LIG    1       -0.078   3.858   0.024  0.00  0.00    +0.070 A 
ATOM     23  C   LIG    1        1.151   3.194   0.008  0.00  0.00    +0.040 A 
ATOM     24  N   LIG    1        2.442   3.615  -0.002  0.00  0.00    -0.470 NA
ATOM     25  C   LIG    1        3.237   2.585  -0.015  0.00  0.00    +0.260 A 
BRANCH  17  27
ATOM     26  C   LIG    1        3.220  -0.397  -1.474  0.00  0.00    +0.040 C 
ATOM     27  C   LIG    1        3.047   0.070  -0.027  0.00  0.00    +0.280 C 
ENDBRANCH  17  27
ENDBRANCH  16  25
ENDBRANCH   1  16
TORSDOF 4
