REMARK  Name = ZINCrD000000BG3E.0
REMARK                            x       y       z     vdW  Elec       q    Type
REMARK                         _______ _______ _______ _____ _____    ______ ____
ROOT
ATOM      1  C   LIG    1        4.731   6.953  -0.008  0.00  0.00    +0.260 C 
ATOM      2  C   LIG    1        5.183   7.236   1.427  0.00  0.00    +0.020 C 
ATOM      3  C   LIG    1        6.185   8.394   1.419  0.00  0.00    +0.040 C 
ATOM      4  C   LIG    1        5.532   9.623   0.781  0.00  0.00    +0.160 C 
ATOM      5  N   LIG    1        5.117   9.301  -0.590  0.00  0.00    -0.520 NA
ATOM      6  C   LIG    1        4.120   8.223  -0.605  0.00  0.00    +0.180 C 
ENDROOT
BRANCH   1   9
ATOM      7  O   LIG    1        5.303   4.318  -0.028  0.00  0.00    -0.480 OA
ATOM      8  C   LIG    1        4.120   4.595  -0.014  0.00  0.00    +0.600 C 
ATOM      9  N   LIG    1        3.729   5.884  -0.003  0.00  0.00    -0.710 N 
ATOM     10  H   LIG    1        2.784   6.105   0.008  0.00  0.00    +0.400 HD
BRANCH   8  11
ATOM     11  C   LIG    1        3.109   3.516  -0.009  0.00  0.00    +0.060 A 
ATOM     12  N   LIG    1        3.377   2.255  -0.018  0.00  0.00    -0.390 NA
ATOM     13  C   LIG    1        2.359   1.395  -0.013  0.00  0.00    +0.030 A 
ATOM     14  C   LIG    1        2.385  -0.021  -0.021  0.00  0.00    +0.150 A 
ATOM     15  C   LIG    1        1.201  -0.702  -0.014  0.00  0.00    +0.000 A 
ATOM     16  C   LIG    1        0.002  -0.004   0.002  0.00  0.00    +0.340 A 
ATOM     17  N   LIG    1       -0.016   1.310   0.009  0.00  0.00    -0.450 NA
ATOM     18  C   LIG    1        1.105   2.026   0.002  0.00  0.00    +0.040 A 
ATOM     19  S   LIG    1        1.369   3.769   0.010  0.00  0.00    +0.140 S 
ENDBRANCH   8  11
ENDBRANCH   1   9
BRANCH   5  20
ATOM     20  C   LIG    1        4.612  10.495  -1.281  0.00  0.00    +0.260 C 
BRANCH  20  21
ATOM     21  C   LIG    1        5.548  11.650  -1.038  0.00  0.00    -0.160 A 
ATOM     22  C   LIG    1        5.350  12.485   0.049  0.00  0.00    +0.130 A 
ATOM     23  C   LIG    1        6.215  13.543   0.274  0.00  0.00    -0.030 A 
ATOM     24  C   LIG    1        7.268  13.772  -0.590  0.00  0.00    +0.090 A 
ATOM     25  C   LIG    1        7.464  12.942  -1.678  0.00  0.00    -0.010 A 
ATOM     26  F   LIG    1        4.317  12.265   0.890  0.00  0.00    -0.130 F 
ATOM     27  C   LIG    1        6.604  11.880  -1.903  0.00  0.00    +0.150 A 
ATOM     28  F   LIG    1        6.795  11.069  -2.966  0.00  0.00    -0.120 F 
ENDBRANCH  20  21
ENDBRANCH   5  20
TORSDOF 4
