REMARK  Name = ZINCpe000000Xr3C.0
REMARK                            x       y       z     vdW  Elec       q    Type
REMARK                         _______ _______ _______ _____ _____    ______ ____
ROOT
ATOM      1  N   LIG    1       -0.028   0.945   0.339  0.00  0.00    -0.700 N 
ATOM      2  H   LIG    1       -0.029  -0.018   0.458  0.00  0.00    +0.410 HD
ATOM      3  C   LIG    1       -1.191   1.606   0.180  0.00  0.00    +0.510 C 
ATOM      4  O   LIG    1       -1.189   2.810   0.030  0.00  0.00    -0.510 OA
ENDROOT
BRANCH   3   5
ATOM      5  C   LIG    1       -2.483   0.856   0.187  0.00  0.00    +0.510 C 
ATOM      6  N   LIG    1       -3.647   1.518   0.028  0.00  0.00    -0.640 N 
ATOM      7  H   LIG    1       -3.652   2.486  -0.015  0.00  0.00    +0.430 HD
ATOM      8  O   LIG    1       -2.485  -0.348   0.336  0.00  0.00    -0.490 OA
BRANCH   6   9
ATOM      9  C   LIG    1       -4.846   0.806  -0.076  0.00  0.00    +0.130 A 
ATOM     10  C   LIG    1       -6.021   1.348   0.435  0.00  0.00    +0.070 A 
ATOM     11  C   LIG    1       -7.210   0.651   0.336  0.00  0.00    +0.030 A 
ATOM     12  C   LIG    1       -7.239  -0.591  -0.272  0.00  0.00    +0.140 A 
ATOM     13  C   LIG    1       -6.063  -1.144  -0.789  0.00  0.00    -0.040 A 
ATOM     14  F   LIG    1       -8.404  -1.270  -0.366  0.00  0.00    -0.120 F 
ATOM     15  C   LIG    1       -4.864  -0.434  -0.693  0.00  0.00    +0.100 A 
BRANCH  13  16
ATOM     16  C   LIG    1       -6.089  -2.429  -1.419  0.00  0.00    +0.250 C 
ATOM     17  N   LIG    1       -6.109  -3.449  -1.919  0.00  0.00    -0.390 NA
ENDBRANCH  13  16
ENDBRANCH   6   9
ENDBRANCH   3   5
BRANCH   1  18
ATOM     18  C   LIG    1        1.240   1.679   0.326  0.00  0.00    +0.290 C 
BRANCH  18  19
ATOM     19  C   LIG    1        2.399   0.699   0.519  0.00  0.00    +0.180 C 
BRANCH  19  23
ATOM     20  C   LIG    1        5.546   3.363  -2.169  0.00  0.00    +0.050 C 
ATOM     21  C   LIG    1        5.229   2.822  -0.773  0.00  0.00    +0.160 C 
ATOM     22  C   LIG    1        3.929   2.016  -0.820  0.00  0.00    +0.160 C 
ATOM     23  N   LIG    1        3.670   1.435   0.505  0.00  0.00    -0.530 NA
ATOM     24  C   LIG    1        4.784   0.571   0.922  0.00  0.00    +0.160 C 
ATOM     25  C   LIG    1        6.076   1.392   0.951  0.00  0.00    +0.160 C 
ATOM     26  C   LIG    1        7.253   0.480   1.306  0.00  0.00    +0.050 C 
ATOM     27  O   LIG    1        6.295   1.974  -0.337  0.00  0.00    -0.380 OA
ENDBRANCH  19  23
ENDBRANCH  18  19
ENDBRANCH   1  18
TORSDOF 6
