REMARK  Name = ZINCvU0000000Im6.0
REMARK                            x       y       z     vdW  Elec       q    Type
REMARK                         _______ _______ _______ _____ _____    ______ ____
ROOT
ATOM      1  C   LIG    1        2.618   1.280   5.012  0.00  0.00    +0.450 C 
ATOM      2  O   LIG    1        3.352   2.228   4.821  0.00  0.00    -0.460 OA
ENDROOT
BRANCH   1   6
ATOM      3  C   LIG    1       -1.509  -0.776   2.844  0.00  0.00    +0.120 C 
ATOM      4  C   LIG    1       -0.331   0.108   3.161  0.00  0.00    +0.010 A 
ATOM      5  C   LIG    1        0.516  -0.063   4.190  0.00  0.00    +0.000 A 
ATOM      6  C   LIG    1        1.494   1.030   4.107  0.00  0.00    -0.270 A 
ATOM      7  C   LIG    1        1.136   1.775   2.999  0.00  0.00    +0.120 A 
ATOM      8  C   LIG    1        1.841   3.008   2.496  0.00  0.00    +0.150 C 
ATOM      9  N   LIG    1        0.049   1.208   2.447  0.00  0.00    -0.430 N 
BRANCH   9  10
ATOM     10  C   LIG    1       -0.636   1.704   1.250  0.00  0.00    +0.290 C 
BRANCH  10  11
ATOM     11  C   LIG    1       -0.026   1.054   0.007  0.00  0.00    +0.060 C 
BRANCH  11  12
ATOM     12  C   LIG    1       -0.730   1.564  -1.224  0.00  0.00    -0.130 C 
ATOM     13  C   LIG    1       -0.207   2.569  -1.850  0.00  0.00    -0.040 C 
ATOM     14  C   LIG    1       -0.794   3.189  -3.084  0.00  0.00    +0.050 C 
ATOM     15  C   LIG    1       -1.819   2.243  -3.714  0.00  0.00    +0.010 C 
ATOM     16  C   LIG    1       -2.779   1.766  -2.616  0.00  0.00    +0.010 C 
ATOM     17  C   LIG    1       -1.998   0.880  -1.643  0.00  0.00    +0.060 C 
ENDBRANCH  11  12
ENDBRANCH  10  11
ENDBRANCH   9  10
ENDBRANCH   1   6
BRANCH   1  18
ATOM     18  C   LIG    1        2.864   0.360   6.179  0.00  0.00    +0.100 C 
BRANCH  18  19
ATOM     19  S   LIG    1        4.314   0.929   7.101  0.00  0.00    +0.060 S 
BRANCH  19  20
ATOM     20  C   LIG    1        4.368  -0.292   8.371  0.00  0.00    +0.150 A 
ATOM     21  N   LIG    1        3.537  -1.300   8.520  0.00  0.00    -0.290 NA
ATOM     22  N   LIG    1        3.866  -1.995   9.549  0.00  0.00    -0.250 NA
ATOM     23  C   LIG    1        4.927  -1.474  10.120  0.00  0.00    +0.210 A 
ATOM     24  N   LIG    1        5.284  -0.371   9.379  0.00  0.00    -0.460 N 
ATOM     25  C   LIG    1        6.412   0.532   9.624  0.00  0.00    +0.350 C 
BRANCH  23  26
ATOM     26  C   LIG    1        5.613  -1.981  11.327  0.00  0.00    +0.030 A 
ATOM     27  C   LIG    1        5.399  -3.288  11.781  0.00  0.00    +0.020 A 
ATOM     28  C   LIG    1        6.063  -3.721  12.909  0.00  0.00    +0.280 A 
ATOM     29  N   LIG    1        6.882  -2.920  13.563  0.00  0.00    -0.480 NA
ATOM     30  C   LIG    1        7.108  -1.679  13.173  0.00  0.00    +0.270 A 
ATOM     31  C   LIG    1        6.490  -1.165  12.053  0.00  0.00    -0.030 A 
ENDBRANCH  23  26
ENDBRANCH  19  20
ENDBRANCH  18  19
ENDBRANCH   1  18
TORSDOF 8
