REMARK  Name = ZINCrH000004sFE0.0
REMARK                            x       y       z     vdW  Elec       q    Type
REMARK                         _______ _______ _______ _____ _____    ______ ____
ROOT
ATOM      1  N   LIG    1        2.009  -5.558  -1.435  0.00  0.00    -0.640 N 
ATOM      2  H   LIG    1        2.950  -5.354  -1.557  0.00  0.00    +0.410 HD
ATOM      3  C   LIG    1        1.580  -6.833  -1.508  0.00  0.00    +0.520 C 
ATOM      4  O   LIG    1        0.398  -7.083  -1.399  0.00  0.00    -0.510 OA
ENDROOT
BRANCH   1  11
ATOM      5  C   LIG    1       -0.474  -5.812   0.429  0.00  0.00    +0.160 C 
ATOM      6  C   LIG    1       -0.035  -4.598  -0.350  0.00  0.00    +0.100 A 
ATOM      7  N   LIG    1       -0.641  -3.439  -0.366  0.00  0.00    -0.280 NA
ATOM      8  N   LIG    1        0.075  -2.578  -1.207  0.00  0.00    -0.320 N 
ATOM      9  C   LIG    1        1.138  -3.268  -1.704  0.00  0.00    +0.070 A 
ATOM     10  C   LIG    1        2.178  -2.737  -2.657  0.00  0.00    +0.150 C 
ATOM     11  C   LIG    1        1.092  -4.520  -1.182  0.00  0.00    +0.000 A 
BRANCH   8  12
ATOM     12  C   LIG    1       -0.248  -1.244  -1.492  0.00  0.00    +0.160 A 
ATOM     13  C   LIG    1       -1.578  -0.855  -1.583  0.00  0.00    +0.020 A 
ATOM     14  C   LIG    1       -1.894   0.460  -1.864  0.00  0.00    +0.030 A 
ATOM     15  C   LIG    1       -0.887   1.389  -2.054  0.00  0.00    +0.010 A 
ATOM     16  C   LIG    1        0.438   1.004  -1.964  0.00  0.00    +0.030 A 
ATOM     17  C   LIG    1        0.760  -0.309  -1.684  0.00  0.00    +0.000 A 
ENDBRANCH   8  12
ENDBRANCH   1  11
BRANCH   3  18
ATOM     18  C   LIG    1        2.569  -7.949  -1.726  0.00  0.00    +0.010 C 
ATOM     19  C   LIG    1        3.579  -7.969  -0.576  0.00  0.00    +0.020 C 
ATOM     20  C   LIG    1        4.543  -9.142  -0.773  0.00  0.00    +0.050 C 
ATOM     21  C   LIG    1        3.744 -10.446  -0.845  0.00  0.00    +0.170 C 
ATOM     22  N   LIG    1        2.792 -10.377  -1.961  0.00  0.00    -0.520 NA
ATOM     23  C   LIG    1        1.827  -9.287  -1.770  0.00  0.00    +0.210 C 
BRANCH  22  24
ATOM     24  C   LIG    1        2.106 -11.662  -2.147  0.00  0.00    +0.270 C 
BRANCH  24  25
ATOM     25  C   LIG    1        1.588 -12.164  -0.797  0.00  0.00    +0.410 C 
ATOM     26  F   LIG    1        2.671 -12.476   0.031  0.00  0.00    -0.180 F 
ATOM     27  F   LIG    1        0.806 -13.307  -0.993  0.00  0.00    -0.180 F 
ATOM     28  F   LIG    1        0.813 -11.166  -0.196  0.00  0.00    -0.180 F 
ENDBRANCH  24  25
ENDBRANCH  22  24
ENDBRANCH   3  18
TORSDOF 5
