REMARK  Name = ZINCtV00000tRS9q.0
REMARK                            x       y       z     vdW  Elec       q    Type
REMARK                         _______ _______ _______ _____ _____    ______ ____
ROOT
ATOM      1  C   LIG    1       -3.736   7.844   0.081  0.00  0.00    -0.220 A 
ATOM      2  C   LIG    1       -2.638   8.685   0.081  0.00  0.00    +0.280 A 
ATOM      3  N   LIG    1       -3.089   9.952   0.087  0.00  0.00    -0.310 N 
ATOM      4  N   LIG    1       -4.487   9.953   0.100  0.00  0.00    -0.270 NA
ATOM      5  C   LIG    1       -4.920   8.713   0.097  0.00  0.00    +0.160 A 
ENDROOT
BRANCH   5   6
ATOM      6  C   LIG    1       -6.336   8.274   0.107  0.00  0.00    -0.020 A 
ATOM      7  C   LIG    1       -6.718   7.128  -0.588  0.00  0.00    +0.030 A 
ATOM      8  C   LIG    1       -8.037   6.723  -0.574  0.00  0.00    +0.020 A 
ATOM      9  C   LIG    1       -8.980   7.453   0.127  0.00  0.00    +0.020 A 
ATOM     10  C   LIG    1       -8.606   8.592   0.819  0.00  0.00    -0.090 A 
ATOM     11  C   LIG    1       -9.639   9.381   1.581  0.00  0.00    +0.090 C 
ATOM     12  C   LIG    1       -7.289   9.003   0.817  0.00  0.00    +0.040 A 
ENDBRANCH   5   6
BRANCH   3  13
ATOM     13  C   LIG    1       -2.281  11.096   0.086  0.00  0.00    +0.150 A 
ATOM     14  C   LIG    1       -0.898  10.971   0.079  0.00  0.00    -0.010 A 
ATOM     15  C   LIG    1       -0.104  12.101   0.073  0.00  0.00    +0.050 A 
ATOM     16  C   LIG    1       -0.685  13.356   0.086  0.00  0.00    +0.010 A 
ATOM     17  C   LIG    1       -2.062  13.484   0.098  0.00  0.00    +0.040 A 
ATOM     18  C   LIG    1       -2.861  12.357   0.099  0.00  0.00    +0.030 A 
ENDBRANCH   3  13
BRANCH   1  20
ATOM     19  C   LIG    1       -2.543   5.712   0.057  0.00  0.00    -0.140 C 
ATOM     20  C   LIG    1       -3.722   6.378   0.072  0.00  0.00    +0.190 C 
BRANCH  19  21
ATOM     21  C   LIG    1       -2.529   4.297   0.049  0.00  0.00    +0.430 C 
ATOM     22  O   LIG    1       -3.578   3.678   0.056  0.00  0.00    -0.470 OA
BRANCH  21  28
ATOM     23  C   LIG    1        0.002  -0.004   0.002  0.00  0.00    +0.090 C 
ATOM     24  C   LIG    1       -0.018   1.503   0.010  0.00  0.00    -0.100 A 
ATOM     25  C   LIG    1        1.171   2.209   0.003  0.00  0.00    +0.040 A 
ATOM     26  C   LIG    1        1.161   3.593   0.011  0.00  0.00    +0.000 A 
ATOM     27  C   LIG    1       -0.036   4.277   0.026  0.00  0.00    +0.050 A 
ATOM     28  C   LIG    1       -1.240   3.570   0.033  0.00  0.00    -0.150 A 
ATOM     29  C   LIG    1       -1.223   2.175   0.020  0.00  0.00    +0.060 A 
ENDBRANCH  21  28
ENDBRANCH  19  21
ENDBRANCH   1  20
TORSDOF 5
