REMARK  Name = ZINCpe00000RgBTW.0
REMARK                            x       y       z     vdW  Elec       q    Type
REMARK                         _______ _______ _______ _____ _____    ______ ____
ROOT
ATOM      1  C   LIG    1        1.872   1.326  -4.051  0.00  0.00    +0.370 C 
ATOM      2  C   LIG    1        3.160   2.108  -3.989  0.00  0.00    -0.260 A 
ATOM      3  C   LIG    1        3.201   2.808  -2.835  0.00  0.00    +0.060 A 
ATOM      4  N   LIG    1        4.365   3.496  -2.811  0.00  0.00    -0.340 N 
ATOM      5  N   LIG    1        5.060   3.207  -3.991  0.00  0.00    -0.270 NA
ATOM      6  C   LIG    1        4.818   4.386  -1.740  0.00  0.00    +0.360 C 
ATOM      7  C   LIG    1        1.942   2.549  -2.047  0.00  0.00    +0.390 C 
ATOM      8  C   LIG    1        4.339   2.376  -4.697  0.00  0.00    +0.300 A 
ATOM      9  N   LIG    1        1.122   1.611  -2.823  0.00  0.00    -0.600 N 
ATOM     10  C   LIG    1       -0.083   1.115  -2.478  0.00  0.00    +0.560 C 
ATOM     11  O   LIG    1       -0.619   0.284  -3.179  0.00  0.00    -0.470 OA
ENDROOT
BRANCH  10  12
ATOM     12  C   LIG    1       -0.763   1.594  -1.222  0.00  0.00    +0.150 C 
ATOM     13  C   LIG    1       -0.010   1.067   0.008  0.00  0.00    +0.250 C 
ATOM     14  O   LIG    1       -0.688   1.529   1.181  0.00  0.00    -0.300 OA
ATOM     15  C   LIG    1       -2.044   1.397   1.195  0.00  0.00    +0.040 A 
ATOM     16  C   LIG    1       -2.723   1.480   2.401  0.00  0.00    +0.030 A 
ATOM     17  C   LIG    1       -4.099   1.350   2.432  0.00  0.00    +0.030 A 
ATOM     18  C   LIG    1       -4.801   1.137   1.261  0.00  0.00    +0.030 A 
ATOM     19  C   LIG    1       -4.130   1.053   0.055  0.00  0.00    +0.030 A 
ATOM     20  C   LIG    1       -2.750   1.181   0.018  0.00  0.00    +0.050 A 
ATOM     21  O   LIG    1       -2.103   1.092  -1.177  0.00  0.00    -0.280 OA
ENDBRANCH  10  12
BRANCH   1  22
ATOM     22  C   LIG    1        2.173  -0.148  -4.136  0.00  0.00    +0.460 C 
ATOM     23  O   LIG    1        1.801  -0.892  -3.260  0.00  0.00    -0.490 OA
BRANCH  22  25
ATOM     24  C   LIG    1        3.109  -2.064  -5.201  0.00  0.00    +0.260 C 
ATOM     25  O   LIG    1        2.855  -0.635  -5.185  0.00  0.00    -0.350 OA
ENDBRANCH  22  25
ENDBRANCH   1  22
TORSDOF 3
