REMARK  Name = ZINCvU00000005um.0
REMARK                            x       y       z     vdW  Elec       q    Type
REMARK                         _______ _______ _______ _____ _____    ______ ____
ROOT
ATOM      1  N   LIG    1       -1.859   5.248  -3.997  0.00  0.00    -0.660 N 
ATOM      2  H   LIG    1       -2.655   4.743  -4.228  0.00  0.00    +0.430 HD
ATOM      3  C   LIG    1       -0.960   4.731  -3.136  0.00  0.00    +0.700 C 
ATOM      4  N   LIG    1       -1.224   3.572  -2.501  0.00  0.00    -0.730 N 
ATOM      5  H   LIG    1       -2.061   3.110  -2.663  0.00  0.00    +0.400 HD
ATOM      6  O   LIG    1        0.090   5.310  -2.933  0.00  0.00    -0.560 OA
ENDROOT
BRANCH   4   7
ATOM      7  C   LIG    1       -0.246   3.010  -1.565  0.00  0.00    +0.350 C 
ATOM      8  C   LIG    1       -0.444   1.494  -1.464  0.00  0.00    +0.050 C 
ATOM      9  C   LIG    1        0.387   0.962  -0.293  0.00  0.00    +0.040 C 
ATOM     10  C   LIG    1       -0.237   1.424   1.025  0.00  0.00    +0.140 C 
ATOM     11  C   LIG    1       -0.449   2.931   0.965  0.00  0.00    +0.090 A 
ATOM     12  N   LIG    1       -0.647   3.681   2.037  0.00  0.00    -0.460 NA
ATOM     13  C   LIG    1       -0.816   4.956   1.866  0.00  0.00    +0.120 A 
ATOM     14  S   LIG    1       -0.722   5.320   0.146  0.00  0.00    +0.110 S 
ATOM     15  C   LIG    1       -0.449   3.616  -0.196  0.00  0.00    -0.240 A 
BRANCH  13  16
ATOM     16  C   LIG    1       -1.049   5.943   2.941  0.00  0.00    -0.040 A 
ATOM     17  C   LIG    1       -1.211   7.294   2.629  0.00  0.00    +0.060 A 
ATOM     18  C   LIG    1       -1.434   8.210   3.636  0.00  0.00    +0.000 A 
ATOM     19  C   LIG    1       -1.486   7.793   4.956  0.00  0.00    +0.120 A 
ATOM     20  C   LIG    1       -1.320   6.454   5.272  0.00  0.00    +0.000 A 
ATOM     21  F   LIG    1       -1.700   8.695   5.939  0.00  0.00    -0.130 F 
ATOM     22  C   LIG    1       -1.103   5.529   4.273  0.00  0.00    +0.110 A 
ENDBRANCH  13  16
ENDBRANCH   4   7
BRANCH   1  25
ATOM     23  C   LIG    1       -2.886   6.124  -6.759  0.00  0.00    +0.120 C 
ATOM     24  C   LIG    1       -2.083   6.933  -5.772  0.00  0.00    -0.220 A 
ATOM     25  C   LIG    1       -1.645   6.508  -4.556  0.00  0.00    +0.340 A 
ATOM     26  N   LIG    1       -0.970   7.531  -3.985  0.00  0.00    -0.340 N 
ATOM     27  N   LIG    1       -0.987   8.610  -4.878  0.00  0.00    -0.230 NA
ATOM     28  C   LIG    1       -0.331   7.513  -2.667  0.00  0.00    +0.390 C 
ATOM     29  C   LIG    1       -1.655   8.252  -5.944  0.00  0.00    -0.000 A 
BRANCH  29  30
ATOM     30  C   LIG    1       -1.918   9.115  -7.152  0.00  0.00    +0.560 C 
ATOM     31  F   LIG    1       -2.018   8.307  -8.290  0.00  0.00    -0.160 F 
ATOM     32  F   LIG    1       -0.866  10.022  -7.315  0.00  0.00    -0.170 F 
ATOM     33  F   LIG    1       -3.115   9.816  -6.971  0.00  0.00    -0.170 F 
ENDBRANCH  29  30
ENDBRANCH   1  25
TORSDOF 4
