REMARK  Name = ZINCqH0000004azA.0
REMARK                            x       y       z     vdW  Elec       q    Type
REMARK                         _______ _______ _______ _____ _____    ______ ____
ROOT
ATOM      1  C   LIG    1       -1.165   1.535  -0.603  0.00  0.00    +0.230 C 
ATOM      2  C   LIG    1       -1.049   0.852  -1.961  0.00  0.00    +0.180 C 
ATOM      3  N   LIG    1       -2.220   1.163  -2.792  0.00  0.00    -0.500 N 
ATOM      4  C   LIG    1       -1.995   2.318  -3.545  0.00  0.00    +0.120 A 
ATOM      5  C   LIG    1       -1.785   2.220  -4.917  0.00  0.00    -0.030 A 
ATOM      6  C   LIG    1       -1.542   3.361  -5.657  0.00  0.00    +0.030 A 
ATOM      7  C   LIG    1       -1.504   4.598  -5.040  0.00  0.00    +0.000 A 
ATOM      8  C   LIG    1       -1.721   4.699  -3.676  0.00  0.00    +0.030 A 
ATOM      9  C   LIG    1       -1.974   3.564  -2.939  0.00  0.00    -0.120 A 
ATOM     10  C   LIG    1       -2.265   3.659  -1.456  0.00  0.00    +0.340 C 
ATOM     11  C   LIG    1       -2.567   0.029  -3.659  0.00  0.00    +0.220 C 
ATOM     12  N   LIG    1       -1.177   2.989  -0.730  0.00  0.00    -0.600 N 
ATOM     13  C   LIG    1       -0.188   3.720  -0.179  0.00  0.00    +0.570 C 
ATOM     14  O   LIG    1        0.821   3.172   0.222  0.00  0.00    -0.520 OA
ENDROOT
BRANCH  13  15
ATOM     15  C   LIG    1       -0.329   5.185  -0.063  0.00  0.00    -0.180 A 
ATOM     16  C   LIG    1       -1.031   5.901  -1.044  0.00  0.00    +0.090 A 
ATOM     17  C   LIG    1       -1.175   7.252  -0.949  0.00  0.00    -0.020 A 
ATOM     18  C   LIG    1       -0.613   7.943   0.124  0.00  0.00    +0.150 A 
ATOM     19  N   LIG    1       -0.583   9.263   0.483  0.00  0.00    -0.510 N 
ATOM     20  H   LIG    1       -0.993   9.990  -0.011  0.00  0.00    +0.440 HD
ATOM     21  N   LIG    1        0.134   9.398   1.677  0.00  0.00    -0.250 NA
ATOM     22  C   LIG    1        0.553   8.234   2.082  0.00  0.00    +0.110 A 
ATOM     23  C   LIG    1        1.359   7.963   3.326  0.00  0.00    +0.170 C 
ATOM     24  C   LIG    1        0.100   7.237   1.115  0.00  0.00    -0.180 A 
ATOM     25  C   LIG    1        0.240   5.853   1.016  0.00  0.00    +0.170 A 
ENDBRANCH  13  15
BRANCH   1  27
ATOM     26  C   LIG    1       -0.066  -0.376   0.572  0.00  0.00    +0.000 C 
ATOM     27  C   LIG    1        0.023   1.121   0.267  0.00  0.00    +0.060 C 
ENDBRANCH   1  27
TORSDOF 2
