REMARK  Name = ZINCrg00000SjSKX.0
REMARK                            x       y       z     vdW  Elec       q    Type
REMARK                         _______ _______ _______ _____ _____    ______ ____
ROOT
ATOM      1  C   LIG    1       -1.547  -3.801   4.552  0.00  0.00    +0.250 C 
ENDROOT
BRANCH   1   2
ATOM      2  C   LIG    1       -3.010  -4.066   4.306  0.00  0.00    +0.530 C 
ATOM      3  N   LIG    1       -3.599  -5.150   4.847  0.00  0.00    -0.680 N 
ATOM      4  H   LIG    1       -3.081  -5.761   5.395  0.00  0.00    +0.410 HD
ATOM      5  C   LIG    1       -4.907  -5.387   4.627  0.00  0.00    +0.690 C 
ATOM      6  N   LIG    1       -5.496  -6.472   5.169  0.00  0.00    -0.740 N 
ATOM      7  H   LIG    1       -4.979  -7.082   5.717  0.00  0.00    +0.400 HD
ATOM      8  C   LIG    1       -6.919  -6.729   4.930  0.00  0.00    +0.300 C 
ATOM      9  O   LIG    1       -5.556  -4.622   3.941  0.00  0.00    -0.520 OA
ATOM     10  O   LIG    1       -3.657  -3.303   3.621  0.00  0.00    -0.430 OA
ENDBRANCH   1   2
BRANCH   1  11
ATOM     11  C   LIG    1       -0.726  -4.896   3.921  0.00  0.00    -0.130 A 
ATOM     12  C   LIG    1       -0.384  -4.821   2.584  0.00  0.00    +0.040 A 
ATOM     13  C   LIG    1        0.373  -5.823   2.007  0.00  0.00    +0.010 A 
ATOM     14  C   LIG    1        0.781  -6.905   2.764  0.00  0.00    +0.030 A 
ATOM     15  C   LIG    1        0.435  -6.982   4.101  0.00  0.00    +0.010 A 
ATOM     16  C   LIG    1       -0.319  -5.978   4.679  0.00  0.00    +0.030 A 
ENDBRANCH   1  11
BRANCH   1  17
ATOM     17  O   LIG    1       -1.181  -2.523   3.967  0.00  0.00    -0.300 OA
BRANCH  17  18
ATOM     18  C   LIG    1       -0.186  -1.840   4.564  0.00  0.00    +0.550 C 
ATOM     19  O   LIG    1        0.362  -2.299   5.547  0.00  0.00    -0.480 OA
BRANCH  18  22
ATOM     20  N   LIG    1       -0.020   1.094   2.454  0.00  0.00    -0.330 N 
ATOM     21  N   LIG    1       -0.353  -0.038   2.961  0.00  0.00    -0.130 NA
ATOM     22  C   LIG    1        0.240  -0.532   4.024  0.00  0.00    +0.020 A 
ATOM     23  C   LIG    1        1.287   0.185   4.654  0.00  0.00    +0.140 A 
ATOM     24  C   LIG    1        1.652   1.388   4.127  0.00  0.00    +0.000 A 
ATOM     25  C   LIG    1        0.966   1.844   2.980  0.00  0.00    +0.480 A 
ATOM     26  O   LIG    1        1.262   2.913   2.471  0.00  0.00    -0.510 OA
BRANCH  20  27
ATOM     27  C   LIG    1       -0.729   1.579   1.267  0.00  0.00    +0.320 C 
BRANCH  27  29
ATOM     28  C   LIG    1       -0.753   1.593  -1.232  0.00  0.00    +0.030 C 
ATOM     29  C   LIG    1       -0.013   1.086   0.008  0.00  0.00    +0.000 C 
ENDBRANCH  27  29
ENDBRANCH  20  27
ENDBRANCH  18  22
ENDBRANCH  17  18
ENDBRANCH   1  17
TORSDOF 7
