REMARK  Name = ZINCrH00000No4Yf.0
REMARK                            x       y       z     vdW  Elec       q    Type
REMARK                         _______ _______ _______ _____ _____    ______ ____
ROOT
ATOM      1  N   LIG    1       -0.020   1.094   2.454  0.00  0.00    -0.560 N 
ATOM      2  C   LIG    1        1.276   1.427   2.677  0.00  0.00    +0.450 C 
ATOM      3  S   LIG    1        1.821   0.683   4.183  0.00  0.00    -0.120 S 
ATOM      4  C   LIG    1        0.246  -0.138   4.577  0.00  0.00    +0.120 C 
ATOM      5  N   LIG    1        2.011   2.184   1.894  0.00  0.00    -0.520 NA
ATOM      6  C   LIG    1       -0.684   0.252   3.423  0.00  0.00    +0.450 C 
ENDROOT
BRANCH   6   7
ATOM      7  C   LIG    1       -1.877   0.989   3.977  0.00  0.00    -0.020 A 
ATOM      8  C   LIG    1       -2.965   0.405   4.497  0.00  0.00    -0.030 A 
ATOM      9  C   LIG    1       -3.857   1.496   4.907  0.00  0.00    -0.140 A 
ATOM     10  C   LIG    1       -5.116   1.552   5.504  0.00  0.00    +0.060 A 
ATOM     11  C   LIG    1       -5.694   2.777   5.758  0.00  0.00    -0.010 A 
ATOM     12  C   LIG    1       -5.029   3.947   5.422  0.00  0.00    +0.040 A 
ATOM     13  C   LIG    1       -3.784   3.905   4.832  0.00  0.00    +0.020 A 
ATOM     14  C   LIG    1       -3.183   2.680   4.567  0.00  0.00    +0.070 A 
ATOM     15  O   LIG    1       -2.006   2.326   4.015  0.00  0.00    -0.120 OA
ENDBRANCH   6   7
BRANCH   5  16
ATOM     16  C   LIG    1        3.313   2.452   2.226  0.00  0.00    +0.070 A 
ATOM     17  C   LIG    1        4.325   2.366   1.262  0.00  0.00    +0.070 A 
ATOM     18  C   LIG    1        5.623   2.651   1.648  0.00  0.00    -0.010 A 
ATOM     19  C   LIG    1        5.879   2.996   2.962  0.00  0.00    +0.240 A 
ATOM     20  N   LIG    1        4.906   3.065   3.850  0.00  0.00    -0.460 NA
ATOM     21  C   LIG    1        3.654   2.809   3.532  0.00  0.00    +0.220 A 
ENDBRANCH   5  16
BRANCH   1  22
ATOM     22  C   LIG    1       -0.729   1.579   1.267  0.00  0.00    +0.270 C 
ATOM     23  C   LIG    1       -0.013   1.086   0.008  0.00  0.00    +0.050 C 
BRANCH  22  24
ATOM     24  C   LIG    1       -0.750   3.109   1.275  0.00  0.00    +0.180 C 
BRANCH  24  26
ATOM     25  C   LIG    1       -1.601   4.992   2.490  0.00  0.00    +0.190 C 
ATOM     26  O   LIG    1       -1.518   3.569   2.389  0.00  0.00    -0.360 OA
ENDBRANCH  24  26
ENDBRANCH  22  24
ENDBRANCH   1  22
BRANCH   6  27
ATOM     27  O   LIG    1       -1.137  -0.937   2.772  0.00  0.00    -0.540 OA
ATOM     28  H   LIG    1       -1.595  -1.556   3.358  0.00  0.00    +0.400 HD
ENDBRANCH   6  27
TORSDOF 6
