REMARK  Name = ZINCvU00000006VI.0
REMARK                            x       y       z     vdW  Elec       q    Type
REMARK                         _______ _______ _______ _____ _____    ______ ____
ROOT
ATOM      1  C   LIG    1        0.027   7.171  -7.988  0.00  0.00    -0.090 A 
ATOM      2  C   LIG    1        1.347   7.401  -7.649  0.00  0.00    +0.070 A 
ATOM      3  C   LIG    1        1.937   6.681  -6.629  0.00  0.00    +0.050 A 
ATOM      4  C   LIG    1        1.202   5.722  -5.943  0.00  0.00    +0.140 A 
ATOM      5  C   LIG    1       -0.123   5.488  -6.288  0.00  0.00    +0.030 A 
ATOM      6  C   LIG    1       -0.709   6.216  -7.307  0.00  0.00    -0.020 A 
ATOM      7 CL   LIG    1       -2.366   5.929  -7.736  0.00  0.00    -0.050 Cl
ENDROOT
BRANCH   4   8
ATOM      8  N   LIG    1        1.795   4.992  -4.911  0.00  0.00    -1.070 N 
ATOM      9  H   LIG    1        2.054   4.068  -5.057  0.00  0.00    +0.430 HD
BRANCH   8  10
ATOM     10  S   LIG    1        2.058   5.702  -3.438  0.00  0.00    +2.610 S 
ATOM     11  O   LIG    1        2.654   4.677  -2.656  0.00  0.00    -0.930 OA
ATOM     12  O   LIG    1        2.766   6.895  -3.745  0.00  0.00    -0.940 OA
BRANCH  10  13
ATOM     13  C   LIG    1        0.397   6.089  -2.820  0.00  0.00    -0.330 C 
BRANCH  13  14
ATOM     14  C   LIG    1        0.510   6.890  -1.521  0.00  0.00    +0.180 C 
ATOM     15  C   LIG    1       -0.892   7.215  -0.999  0.00  0.00    +0.020 C 
ATOM     16  C   LIG    1       -0.777   8.002   0.310  0.00  0.00    +0.030 C 
ATOM     17  C   LIG    1        0.004   7.164   1.329  0.00  0.00    +0.030 C 
ATOM     18  C   LIG    1        1.348   6.768   0.717  0.00  0.00    +0.090 C 
ATOM     19  C   LIG    1        2.270   6.029   1.695  0.00  0.00    +0.060 C 
ATOM     20  C   LIG    1        2.810   7.410   2.107  0.00  0.00    +0.020 C 
ATOM     21  C   LIG    1        2.376   7.906   0.714  0.00  0.00    -0.010 C 
ATOM     22  O   LIG    1        1.214   6.117  -0.544  0.00  0.00    -0.370 OA
ENDBRANCH  13  14
ENDBRANCH  10  13
ENDBRANCH   8  10
ENDBRANCH   4   8
BRANCH   1  23
ATOM     23  C   LIG    1       -0.613   7.959  -9.101  0.00  0.00    +0.330 C 
BRANCH  23  25
ATOM     24  C   LIG    1       -1.287   7.609 -11.416  0.00  0.00    +0.530 C 
ATOM     25  N   LIG    1       -0.739   7.112 -10.290  0.00  0.00    -0.720 N 
ATOM     26  H   LIG    1       -0.429   6.194 -10.266  0.00  0.00    +0.400 HD
ATOM     27  O   LIG    1       -1.676   8.758 -11.447  0.00  0.00    -0.530 OA
BRANCH  24  28
ATOM     28  C   LIG    1       -1.418   6.737 -12.639  0.00  0.00    -0.080 C 
ATOM     29  C   LIG    1       -2.288   5.523 -12.309  0.00  0.00    +0.050 C 
ATOM     30  C   LIG    1       -0.030   6.266 -13.079  0.00  0.00    +0.050 C 
BRANCH  28  31
ATOM     31  C   LIG    1       -2.067   7.538 -13.769  0.00  0.00    +0.040 C 
BRANCH  31  33
ATOM     32  C   LIG    1       -2.849   7.454 -16.141  0.00  0.00    +0.000 C 
ATOM     33  C   LIG    1       -2.199   6.653 -15.011  0.00  0.00    -0.010 C 
ENDBRANCH  31  33
ENDBRANCH  28  31
ENDBRANCH  24  28
ENDBRANCH  23  25
ENDBRANCH   1  23
TORSDOF 9
