REMARK  Name = ZINCrg00001Jdv81.0
REMARK                            x       y       z     vdW  Elec       q    Type
REMARK                         _______ _______ _______ _____ _____    ______ ____
ROOT
ATOM      1  C   LIG    1       -1.360  -2.042   0.377  0.00  0.00    +0.470 C 
ATOM      2  O   LIG    1       -0.344  -2.631   0.094  0.00  0.00    -0.500 OA
ENDROOT
BRANCH   1   3
ATOM      3  O   LIG    1       -2.471  -2.730   0.685  0.00  0.00    -0.330 OA
BRANCH   3   4
ATOM      4  C   LIG    1       -2.378  -4.178   0.657  0.00  0.00    +0.270 C 
BRANCH   4   7
ATOM      5  N   LIG    1       -3.864  -6.113   1.067  0.00  0.00    -0.720 N 
ATOM      6  H   LIG    1       -3.115  -6.693   0.858  0.00  0.00    +0.410 HD
ATOM      7  C   LIG    1       -3.712  -4.775   1.027  0.00  0.00    +0.520 C 
ATOM      8  O   LIG    1       -4.648  -4.050   1.289  0.00  0.00    -0.500 OA
BRANCH   5   9
ATOM      9  C   LIG    1       -5.160  -6.693   1.427  0.00  0.00    +0.290 C 
ATOM     10  C   LIG    1       -6.221  -6.230   0.426  0.00  0.00    +0.080 C 
BRANCH   9  12
ATOM     11  C   LIG    1       -6.377  -8.825   1.892  0.00  0.00    +0.050 C 
ATOM     12  C   LIG    1       -5.062  -8.220   1.397  0.00  0.00    +0.000 C 
ATOM     13  C   LIG    1       -4.794  -8.685  -0.036  0.00  0.00    +0.050 C 
ENDBRANCH   9  12
BRANCH   9  14
ATOM     14  C   LIG    1       -5.537  -6.252   2.780  0.00  0.00    +0.200 C 
ATOM     15  N   LIG    1       -5.827  -5.911   3.824  0.00  0.00    -0.400 NA
ENDBRANCH   9  14
ENDBRANCH   5   9
ENDBRANCH   4   7
ENDBRANCH   3   4
ENDBRANCH   1   3
BRANCH   1  16
ATOM     16  C   LIG    1       -1.381  -0.535   0.386  0.00  0.00    +0.120 C 
BRANCH  16  17
ATOM     17  C   LIG    1        0.002  -0.004   0.002  0.00  0.00    +0.300 C 
BRANCH  17  18
ATOM     18  N   LIG    1       -0.018   1.461   0.010  0.00  0.00    -1.120 NA
ATOM     19  H   LIG    1       -0.864   1.934   0.017  0.00  0.00    +0.420 HD
BRANCH  18  20
ATOM     20  S   LIG    1        1.405   2.308   0.001  0.00  0.00    +2.700 S 
ATOM     21  O   LIG    1        2.221   1.733   1.012  0.00  0.00    -0.940 OA
ATOM     22  O   LIG    1        1.052   3.684  -0.023  0.00  0.00    -0.950 OA
BRANCH  20  23
ATOM     23  C   LIG    1        2.202   1.972  -1.534  0.00  0.00    -0.720 A 
ATOM     24  C   LIG    1        2.392   2.988  -2.451  0.00  0.00    +0.170 A 
ATOM     25  C   LIG    1        3.018   2.725  -3.655  0.00  0.00    -0.010 A 
ATOM     26  C   LIG    1        3.454   1.445  -3.944  0.00  0.00    +0.110 A 
ATOM     27  C   LIG    1        3.265   0.427  -3.028  0.00  0.00    -0.020 A 
ATOM     28  C   LIG    1        2.645   0.691  -1.819  0.00  0.00    +0.190 A 
ATOM     29  F   LIG    1        2.465  -0.301  -0.920  0.00  0.00    -0.120 F 
ENDBRANCH  20  23
ENDBRANCH  18  20
ENDBRANCH  17  18
ENDBRANCH  16  17
ENDBRANCH   1  16
TORSDOF 11
