REMARK  Name = ZINCkj000018RD6J.0
REMARK                            x       y       z     vdW  Elec       q    Type
REMARK                         _______ _______ _______ _____ _____    ______ ____
ROOT
ATOM      1  N   LIG    1       -0.749   3.044   1.275  0.00  0.00    -0.610 N 
ATOM      2  C   LIG    1       -1.774   3.707   0.705  0.00  0.00    +0.520 C 
ATOM      3  O   LIG    1       -1.791   4.920   0.711  0.00  0.00    -0.540 OA
ENDROOT
BRANCH   1   5
ATOM      4  C   LIG    1       -0.013   1.086   0.008  0.00  0.00    +0.010 C 
ATOM      5  C   LIG    1       -0.729   1.579   1.267  0.00  0.00    +0.270 C 
ENDBRANCH   1   5
BRANCH   2   6
ATOM      6  C   LIG    1       -2.900   2.942   0.059  0.00  0.00    +0.070 C 
BRANCH   6   7
ATOM      7  C   LIG    1       -3.926   3.925  -0.508  0.00  0.00    +0.150 C 
BRANCH   7   8
ATOM      8  S   LIG    1       -5.282   3.004  -1.285  0.00  0.00    -0.120 S 
BRANCH   8   9
ATOM      9  S   LIG    1       -6.244   2.160   0.316  0.00  0.00    -0.080 S 
BRANCH   9  10
ATOM     10  C   LIG    1       -7.370   3.476   0.856  0.00  0.00    +0.090 C 
BRANCH  10  11
ATOM     11  C   LIG    1       -8.478   3.657  -0.183  0.00  0.00    +0.270 C 
BRANCH  11  12
ATOM     12  N   LIG    1       -9.390   4.723   0.254  0.00  0.00    -0.390 N 
ATOM     13  C   LIG    1      -10.519   4.815  -0.682  0.00  0.00    +0.330 C 
ATOM     14  C   LIG    1       -8.670   6.003   0.281  0.00  0.00    +0.320 C 
ATOM     15  H   LIG    1       -9.735   4.512   1.178  0.00  0.00    +0.430 HD
ENDBRANCH  11  12
ENDBRANCH  10  11
ENDBRANCH   9  10
ENDBRANCH   8   9
ENDBRANCH   7   8
ENDBRANCH   6   7
ENDBRANCH   2   6
BRANCH   1  16
ATOM     16  C   LIG    1        0.346   3.788   1.903  0.00  0.00    +0.310 C 
BRANCH  16  17
ATOM     17  C   LIG    1        1.436   4.064   0.865  0.00  0.00    +0.040 C 
BRANCH  17  18
ATOM     18  C   LIG    1        2.562   4.829   1.511  0.00  0.00    +0.510 C 
ATOM     19  N   LIG    1        3.640   5.184   0.784  0.00  0.00    -0.740 N 
ATOM     20  H   LIG    1        3.691   4.948  -0.155  0.00  0.00    +0.400 HD
ATOM     21  C   LIG    1        4.735   5.928   1.412  0.00  0.00    +0.280 C 
ATOM     22  O   LIG    1        2.499   5.125   2.686  0.00  0.00    -0.540 OA
ENDBRANCH  17  18
ENDBRANCH  16  17
ENDBRANCH   1  16
TORSDOF 11
