REMARK  Name = ZINCqH00000085eZ.0
REMARK                            x       y       z     vdW  Elec       q    Type
REMARK                         _______ _______ _______ _____ _____    ______ ____
ROOT
ATOM      1  N   LIG    1       -5.545   3.456  -0.455  0.00  0.00    -0.590 N 
ATOM      2  C   LIG    1       -4.626   2.657  -1.032  0.00  0.00    +0.620 C 
ATOM      3  O   LIG    1       -4.979   1.765  -1.779  0.00  0.00    -0.510 OA
ATOM      4  C   LIG    1       -5.116   4.579   0.382  0.00  0.00    +0.300 C 
ENDROOT
BRANCH   2   5
ATOM      5  C   LIG    1       -3.188   2.864  -0.756  0.00  0.00    +0.160 A 
ATOM      6  N   LIG    1       -2.205   2.079  -1.142  0.00  0.00    -0.250 NA
ATOM      7  N   LIG    1       -1.092   2.574  -0.721  0.00  0.00    -0.250 N 
ATOM      8  C   LIG    1       -1.359   3.707  -0.040  0.00  0.00    +0.220 A 
ATOM      9  C   LIG    1       -0.348   4.603   0.628  0.00  0.00    +0.210 C 
ATOM     10  N   LIG    1       -2.655   3.889  -0.067  0.00  0.00    -0.470 NA
BRANCH   7  11
ATOM     11  C   LIG    1        0.180   2.024  -0.931  0.00  0.00    +0.110 A 
ATOM     12  C   LIG    1        1.274   2.857  -1.122  0.00  0.00    +0.070 A 
ATOM     13  C   LIG    1        2.526   2.313  -1.335  0.00  0.00    +0.020 A 
ATOM     14  C   LIG    1        2.690   0.938  -1.357  0.00  0.00    +0.120 A 
ATOM     15  C   LIG    1        1.600   0.106  -1.166  0.00  0.00    +0.010 A 
ATOM     16  F   LIG    1        3.915   0.408  -1.565  0.00  0.00    -0.130 F 
ATOM     17  C   LIG    1        0.346   0.645  -0.954  0.00  0.00    +0.090 A 
ENDBRANCH   7  11
ENDBRANCH   2   5
BRANCH   1  18
ATOM     18  C   LIG    1       -6.972   3.202  -0.665  0.00  0.00    +0.350 C 
BRANCH  18  22
ATOM     19  C   LIG    1       -8.411   0.559   2.370  0.00  0.00    -0.080 A 
ATOM     20  C   LIG    1       -8.447   1.934   2.569  0.00  0.00    +0.030 A 
ATOM     21  C   LIG    1       -7.981   2.784   1.587  0.00  0.00    +0.050 A 
ATOM     22  C   LIG    1       -7.479   2.270   0.405  0.00  0.00    -0.120 A 
ATOM     23  C   LIG    1       -7.447   0.902   0.201  0.00  0.00    +0.060 A 
ATOM     24  C   LIG    1       -7.906   0.045   1.181  0.00  0.00    -0.020 A 
BRANCH  19  26
ATOM     25  C   LIG    1       -8.745  -2.171   2.890  0.00  0.00    +0.130 C 
ATOM     26  S   LIG    1       -9.005  -0.531   3.621  0.00  0.00    -0.120 S 
ENDBRANCH  19  26
ENDBRANCH  18  22
ENDBRANCH   1  18
TORSDOF 5
