REMARK  Name = ZINCqH0000031IDp.0
REMARK                            x       y       z     vdW  Elec       q    Type
REMARK                         _______ _______ _______ _____ _____    ______ ____
ROOT
ATOM      1  C   LIG    1        1.176  -2.680   1.430  0.00  0.00    +0.110 C 
ENDROOT
BRANCH   1   2
ATOM      2  C   LIG    1        1.154  -2.176  -0.014  0.00  0.00    +0.320 C 
ATOM      3  C   LIG    1        1.111  -0.668  -0.022  0.00  0.00    -0.110 A 
ATOM      4  C   LIG    1       -0.090   0.002   0.040  0.00  0.00    +0.030 A 
ATOM      5  C   LIG    1       -0.111   1.386   0.052  0.00  0.00    +0.010 A 
ATOM      6  C   LIG    1        1.072   2.103   0.007  0.00  0.00    +0.020 A 
ATOM      7  C   LIG    1        2.283   1.444  -0.056  0.00  0.00    +0.020 A 
ATOM      8  C   LIG    1        2.309   0.050  -0.078  0.00  0.00    -0.030 A 
ATOM      9  C   LIG    1        3.588  -0.680  -0.172  0.00  0.00    -0.030 C 
ATOM     10  C   LIG    1        3.576  -1.985  -0.468  0.00  0.00    +0.230 C 
ATOM     11  N   LIG    1        2.366  -2.623  -0.709  0.00  0.00    -0.560 N 
ATOM     12  C   LIG    1        2.306  -3.651  -1.579  0.00  0.00    +0.510 C 
ATOM     13  O   LIG    1        1.248  -4.208  -1.787  0.00  0.00    -0.490 OA
ATOM     14  C   LIG    1        3.552  -4.109  -2.291  0.00  0.00    +0.100 C 
ENDBRANCH   1   2
BRANCH   1  15
ATOM     15  C   LIG    1        1.095  -4.184   1.439  0.00  0.00    +0.450 C 
ATOM     16  O   LIG    1        1.026  -4.791   0.396  0.00  0.00    -0.450 OA
BRANCH  15  17
ATOM     17  O   LIG    1        1.099  -4.851   2.605  0.00  0.00    -0.300 OA
BRANCH  17  21
ATOM     18  C   LIG    1        0.553  -8.940   2.431  0.00  0.00    -0.170 A 
ATOM     19  C   LIG    1        1.788  -8.380   2.081  0.00  0.00    +0.100 A 
ATOM     20  C   LIG    1        1.964  -7.016   2.140  0.00  0.00    +0.000 A 
ATOM     21  C   LIG    1        0.919  -6.195   2.547  0.00  0.00    +0.120 A 
ATOM     22  C   LIG    1       -0.307  -6.746   2.901  0.00  0.00    +0.010 A 
ATOM     23  C   LIG    1       -0.496  -8.107   2.840  0.00  0.00    +0.090 A 
BRANCH  18  25
ATOM     24  C   LIG    1       -1.005 -10.984   2.620  0.00  0.00    +0.080 C 
ATOM     25  C   LIG    1        0.359 -10.394   2.369  0.00  0.00    +0.400 C 
ATOM     26  O   LIG    1        1.296 -11.121   2.116  0.00  0.00    -0.460 OA
ENDBRANCH  18  25
ENDBRANCH  17  21
ENDBRANCH  15  17
ENDBRANCH   1  15
TORSDOF 5
