REMARK  Name = ZINCrD00000l0JHc.0
REMARK                            x       y       z     vdW  Elec       q    Type
REMARK                         _______ _______ _______ _____ _____    ______ ____
ROOT
ATOM      1  N   LIG    1       -0.880  -0.325  -1.340  0.00  0.00    -0.690 N 
ATOM      2  H   LIG    1       -1.666   0.210  -1.528  0.00  0.00    +0.420 HD
ENDROOT
BRANCH   1   6
ATOM      3  C   LIG    1       -0.807  -4.343  -2.403  0.00  0.00    -0.180 A 
ATOM      4  C   LIG    1        0.342  -3.739  -1.880  0.00  0.00    +0.190 A 
ATOM      5  C   LIG    1        0.316  -2.407  -1.534  0.00  0.00    -0.070 A 
ATOM      6  C   LIG    1       -0.853  -1.669  -1.695  0.00  0.00    +0.310 A 
ATOM      7  C   LIG    1       -1.995  -2.273  -2.215  0.00  0.00    -0.120 A 
ATOM      8  C   LIG    1       -1.975  -3.593  -2.566  0.00  0.00    +0.220 A 
BRANCH   7   9
ATOM      9  N   LIG    1       -3.234  -1.482  -2.389  0.00  0.00    +0.030 N 
ATOM     10  O   LIG    1       -3.946  -1.671  -3.359  0.00  0.00    -0.140 OA
ATOM     11  O   LIG    1       -3.541  -0.641  -1.563  0.00  0.00    -0.160 OA
ENDBRANCH   7   9
BRANCH   3  12
ATOM     12  C   LIG    1       -0.785  -5.768  -2.780  0.00  0.00    +0.520 C 
ATOM     13  O   LIG    1       -1.783  -6.292  -3.233  0.00  0.00    -0.500 OA
BRANCH  12  15
ATOM     14  C   LIG    1        0.291  -7.886  -3.015  0.00  0.00    +0.290 C 
ATOM     15  O   LIG    1        0.342  -6.490  -2.622  0.00  0.00    -0.360 OA
ENDBRANCH  12  15
ENDBRANCH   3  12
ENDBRANCH   1   6
BRANCH   1  16
ATOM     16  C   LIG    1        0.280   0.282  -0.683  0.00  0.00    +0.390 C 
BRANCH  16  17
ATOM     17  C   LIG    1        0.201   0.037   0.802  0.00  0.00    +0.180 A 
ATOM     18  N   LIG    1       -0.866   0.180   1.541  0.00  0.00    -0.460 NA
ATOM     19  C   LIG    1       -0.567  -0.124   2.812  0.00  0.00    +0.150 A 
ATOM     20  C   LIG    1        0.734  -0.468   2.864  0.00  0.00    +0.130 A 
ATOM     21  N   LIG    1        1.220  -0.372   1.588  0.00  0.00    -0.450 N 
ATOM     22  C   LIG    1        2.591  -0.655   1.156  0.00  0.00    +0.310 C 
ENDBRANCH  16  17
BRANCH  16  23
ATOM     23  C   LIG    1        0.288   1.765  -0.948  0.00  0.00    -0.100 A 
ATOM     24  C   LIG    1       -0.897   2.476  -0.934  0.00  0.00    +0.040 A 
ATOM     25  C   LIG    1       -0.889   3.838  -1.173  0.00  0.00    +0.020 A 
ATOM     26  C   LIG    1        0.303   4.487  -1.434  0.00  0.00    +0.020 A 
ATOM     27  C   LIG    1        1.488   3.775  -1.453  0.00  0.00    +0.010 A 
ATOM     28  C   LIG    1        1.480   2.414  -1.210  0.00  0.00    +0.020 A 
ENDBRANCH  16  23
ENDBRANCH   1  16
TORSDOF 7
