REMARK  Name = ZINCvU0000000917.0
REMARK                            x       y       z     vdW  Elec       q    Type
REMARK                         _______ _______ _______ _____ _____    ______ ____
ROOT
ATOM      1  C   LIG    1       -0.345  -2.184  -0.006  0.00  0.00    +0.290 A 
ATOM      2  N   LIG    1        0.945  -2.014  -0.018  0.00  0.00    -0.480 NA
ATOM      3  C   LIG    1        1.230  -0.687  -0.013  0.00  0.00    +0.050 A 
ATOM      4  C   LIG    1        2.422   0.043  -0.020  0.00  0.00    +0.070 A 
ATOM      5  C   LIG    1        2.384   1.409  -0.012  0.00  0.00    +0.000 A 
ATOM      6  C   LIG    1        1.172   2.083   0.002  0.00  0.00    +0.030 A 
ATOM      7  C   LIG    1       -0.017   1.384   0.010  0.00  0.00    +0.010 A 
ATOM      8  C   LIG    1        0.002  -0.004   0.002  0.00  0.00    +0.050 A 
ATOM      9  N   LIG    1       -0.975  -0.979   0.006  0.00  0.00    -0.480 N 
ENDROOT
BRANCH   1  12
ATOM     10  N   LIG    1       -0.505  -5.777   0.610  0.00  0.00    -0.620 N 
ATOM     11  C   LIG    1       -0.527  -4.411   1.148  0.00  0.00    +0.290 C 
ATOM     12  C   LIG    1       -1.039  -3.522  -0.007  0.00  0.00    +0.090 C 
ATOM     13  C   LIG    1       -0.636  -4.353  -1.248  0.00  0.00    +0.090 C 
ATOM     14  C   LIG    1       -0.560  -5.774  -0.733  0.00  0.00    +0.520 C 
ATOM     15  O   LIG    1       -0.550  -6.766  -1.431  0.00  0.00    -0.520 OA
BRANCH  10  16
ATOM     16  C   LIG    1       -0.434  -6.987   1.432  0.00  0.00    +0.290 C 
BRANCH  16  17
ATOM     17  C   LIG    1        1.032  -7.364   1.659  0.00  0.00    +0.000 C 
BRANCH  17  19
ATOM     18  C   LIG    1        2.572  -9.004   2.744  0.00  0.00    +0.010 C 
ATOM     19  C   LIG    1        1.107  -8.628   2.517  0.00  0.00    +0.000 C 
ENDBRANCH  17  19
ENDBRANCH  16  17
ENDBRANCH  10  16
ENDBRANCH   1  12
BRANCH   9  20
ATOM     20  C   LIG    1       -2.423  -0.757   0.022  0.00  0.00    +0.310 C 
BRANCH  20  21
ATOM     21  C   LIG    1       -2.942  -0.672  -1.415  0.00  0.00    +0.020 C 
BRANCH  21  22
ATOM     22  C   LIG    1       -4.454  -0.440  -1.399  0.00  0.00    +0.200 C 
BRANCH  22  23
ATOM     23  O   LIG    1       -4.938  -0.360  -2.741  0.00  0.00    -0.310 OA
BRANCH  23  24
ATOM     24  C   LIG    1       -6.272  -0.155  -2.904  0.00  0.00    +0.120 A 
ATOM     25  C   LIG    1       -7.097  -0.033  -1.796  0.00  0.00    -0.070 A 
ATOM     26  C   LIG    1       -8.452   0.176  -1.965  0.00  0.00    +0.030 A 
ATOM     27  C   LIG    1       -8.986   0.263  -3.237  0.00  0.00    -0.120 A 
ATOM     28  C   LIG    1       -8.166   0.141  -4.344  0.00  0.00    +0.050 A 
ATOM     29  C   LIG    1      -10.465   0.490  -3.419  0.00  0.00    +0.100 C 
ATOM     30  C   LIG    1       -6.809  -0.062  -4.180  0.00  0.00    -0.110 A 
ATOM     31  C   LIG    1       -5.915  -0.188  -5.386  0.00  0.00    +0.100 C 
ENDBRANCH  23  24
ENDBRANCH  22  23
ENDBRANCH  21  22
ENDBRANCH  20  21
ENDBRANCH   9  20
TORSDOF 9
