REMARK  Name = ZINCpe000000WUt5.0
REMARK                            x       y       z     vdW  Elec       q    Type
REMARK                         _______ _______ _______ _____ _____    ______ ____
ROOT
ATOM      1  C   LIG    1       -4.311   8.400  -1.513  0.00  0.00    +0.440 C 
ATOM      2  O   LIG    1       -4.018   8.294  -2.687  0.00  0.00    -0.500 OA
ENDROOT
BRANCH   1   3
ATOM      3  C   LIG    1       -4.237   9.658  -0.878  0.00  0.00    -0.440 A 
ATOM      4  C   LIG    1       -3.933  10.821  -1.606  0.00  0.00    +0.560 A 
ATOM      5  N   LIG    1       -3.877  12.017  -0.948  0.00  0.00    -0.540 N 
ATOM      6  C   LIG    1       -4.096  12.096   0.374  0.00  0.00    +0.710 A 
ATOM      7  N   LIG    1       -4.385  11.019   1.122  0.00  0.00    -0.560 N 
ATOM      8  C   LIG    1       -4.613  11.177   2.561  0.00  0.00    +0.350 C 
ATOM      9  O   LIG    1       -4.029  13.183   0.914  0.00  0.00    -0.520 OA
ATOM     10  C   LIG    1       -3.566  13.236  -1.698  0.00  0.00    +0.350 C 
ATOM     11  C   LIG    1       -4.469   9.793   0.566  0.00  0.00    +0.580 A 
ATOM     12  O   LIG    1       -4.731   8.818   1.247  0.00  0.00    -0.500 OA
BRANCH   4  13
ATOM     13  N   LIG    1       -3.703  10.758  -2.946  0.00  0.00    -0.800 N 
ATOM     14  H   LIG    1       -3.158  11.435  -3.376  0.00  0.00    +0.410 HD
ATOM     15  H   LIG    1       -4.084  10.036  -3.470  0.00  0.00    +0.440 HD
ENDBRANCH   4  13
ENDBRANCH   1   3
BRANCH   1  17
ATOM     16  C   LIG    1       -6.281   7.181  -0.628  0.00  0.00    +0.040 C 
ATOM     17  C   LIG    1       -4.754   7.188  -0.735  0.00  0.00    +0.240 C 
BRANCH  17  18
ATOM     18  N   LIG    1       -4.308   5.975  -1.424  0.00  0.00    -0.740 N 
ATOM     19  H   LIG    1       -4.144   5.992  -2.380  0.00  0.00    +0.400 HD
BRANCH  18  20
ATOM     20  C   LIG    1       -4.118   4.792  -0.705  0.00  0.00    +0.220 A 
ATOM     21  C   LIG    1       -4.352   4.764   0.664  0.00  0.00    -0.070 A 
ATOM     22  C   LIG    1       -4.163   3.593   1.369  0.00  0.00    +0.060 A 
ATOM     23  C   LIG    1       -3.741   2.445   0.718  0.00  0.00    -0.160 A 
ATOM     24  C   LIG    1       -3.462   1.057   1.263  0.00  0.00    +0.070 C 
ATOM     25  C   LIG    1       -2.624   0.360   0.170  0.00  0.00    +0.020 C 
ATOM     26  C   LIG    1       -3.058   1.102  -1.111  0.00  0.00    +0.070 C 
ATOM     27  C   LIG    1       -3.507   2.470  -0.645  0.00  0.00    -0.050 A 
ATOM     28  C   LIG    1       -3.695   3.641  -1.356  0.00  0.00    -0.060 A 
ENDBRANCH  18  20
ENDBRANCH  17  18
ENDBRANCH   1  17
TORSDOF 5
