REMARK  Name = ZINCfA000000blTF.0
REMARK                            x       y       z     vdW  Elec       q    Type
REMARK                         _______ _______ _______ _____ _____    ______ ____
ROOT
ATOM      1  N   LIG    1       -2.068   5.027   1.028  0.00  0.00    -0.510 N 
ATOM      2  H   LIG    1       -1.735   4.712   1.927  0.00  0.00    +0.430 HD
ATOM      3  H   LIG    1       -2.851   4.458   0.742  0.00  0.00    +0.430 HD
ENDROOT
BRANCH   1   4
ATOM      4  C   LIG    1       -0.989   4.909   0.038  0.00  0.00    +0.290 C 
ATOM      5  C   LIG    1       -1.528   5.267  -1.349  0.00  0.00    +0.120 C 
BRANCH   4   6
ATOM      6  C   LIG    1       -0.471   3.494   0.025  0.00  0.00    -0.050 A 
ATOM      7  N   LIG    1        0.776   3.164   0.012  0.00  0.00    -0.420 NA
ATOM      8  C   LIG    1        1.057   1.877   0.002  0.00  0.00    +0.240 A 
ATOM      9  C   LIG    1       -0.013   1.076   0.008  0.00  0.00    +0.000 A 
ATOM     10  S   LIG    1       -1.451   2.093   0.019  0.00  0.00    +0.150 S 
ENDBRANCH   4   6
ENDBRANCH   1   4
BRANCH   1  11
ATOM     11  C   LIG    1       -2.491   6.430   1.126  0.00  0.00    +0.270 C 
BRANCH  11  13
ATOM     12  C   LIG    1       -3.075   6.195   3.544  0.00  0.00    +0.050 C 
ATOM     13  C   LIG    1       -3.615   6.553   2.158  0.00  0.00    -0.010 C 
BRANCH  13  14
ATOM     14  C   LIG    1       -4.140   7.989   2.171  0.00  0.00    +0.040 C 
BRANCH  14  15
ATOM     15  C   LIG    1       -5.345   8.084   3.110  0.00  0.00    +0.370 C 
ATOM     16  F   LIG    1       -6.394   7.310   2.602  0.00  0.00    -0.200 F 
ATOM     17  F   LIG    1       -5.755   9.417   3.210  0.00  0.00    -0.200 F 
ENDBRANCH  14  15
ENDBRANCH  13  14
ENDBRANCH  11  13
ENDBRANCH   1  11
TORSDOF 6
