REMARK  Name = ZINCrD000000fH4E.0
REMARK                            x       y       z     vdW  Elec       q    Type
REMARK                         _______ _______ _______ _____ _____    ______ ____
ROOT
ATOM      1  C   LIG    1       -1.745  -0.617  -4.109  0.00  0.00    +0.240 C 
ENDROOT
BRANCH   1   4
ATOM      2  C   LIG    1       -4.422  -3.353  -4.084  0.00  0.00    +0.090 C 
ATOM      3  C   LIG    1       -3.090  -2.648  -4.080  0.00  0.00    +0.520 C 
ATOM      4  N   LIG    1       -3.040  -1.302  -4.113  0.00  0.00    -0.720 N 
ATOM      5  H   LIG    1       -3.861  -0.786  -4.138  0.00  0.00    +0.400 HD
ATOM      6  O   LIG    1       -2.063  -3.293  -4.048  0.00  0.00    -0.510 OA
ENDBRANCH   1   4
BRANCH   1   7
ATOM      7  C   LIG    1       -0.988  -0.979  -2.857  0.00  0.00    +0.500 C 
ATOM      8  N   LIG    1        0.019  -0.194  -2.427  0.00  0.00    -0.730 N 
ATOM      9  H   LIG    1        0.257   0.605  -2.923  0.00  0.00    +0.400 HD
ATOM     10  O   LIG    1       -1.286  -1.978  -2.236  0.00  0.00    -0.510 OA
BRANCH   8  11
ATOM     11  C   LIG    1        0.754  -0.546  -1.210  0.00  0.00    +0.240 C 
ATOM     12  C   LIG    1        0.002  -0.004   0.002  0.00  0.00    +0.010 C 
ATOM     13  C   LIG    1       -0.019   1.533   0.011  0.00  0.00    +0.010 C 
ATOM     14  C   LIG    1        1.425   2.003  -0.001  0.00  0.00    -0.020 C 
ATOM     15  C   LIG    1        1.632   3.520  -0.066  0.00  0.00    +0.010 C 
ATOM     16  C   LIG    1        3.064   3.651  -0.651  0.00  0.00    +0.000 C 
ATOM     17  C   LIG    1        3.338   2.342  -1.432  0.00  0.00    +0.010 C 
ATOM     18  C   LIG    1        2.041   1.544  -1.350  0.00  0.00    -0.030 C 
ATOM     19  C   LIG    1        2.175   0.035  -1.296  0.00  0.00    +0.030 C 
ENDBRANCH   8  11
ENDBRANCH   1   7
BRANCH   1  20
ATOM     20  C   LIG    1       -0.937  -1.047  -5.335  0.00  0.00    +0.130 C 
BRANCH  20  21
ATOM     21  C   LIG    1       -1.633  -0.576  -6.586  0.00  0.00    -0.170 A 
ATOM     22  C   LIG    1       -2.481  -1.288  -7.344  0.00  0.00    +0.220 A 
ATOM     23  N   LIG    1       -2.917  -0.530  -8.396  0.00  0.00    -0.600 N 
ATOM     24  H   LIG    1       -3.538  -0.828  -9.079  0.00  0.00    +0.420 HD
ATOM     25  C   LIG    1       -2.338   0.719  -8.345  0.00  0.00    +0.100 A 
ATOM     26  C   LIG    1       -2.426   1.849  -9.149  0.00  0.00    -0.010 A 
ATOM     27  C   LIG    1       -1.704   2.977  -8.826  0.00  0.00    +0.020 A 
ATOM     28  C   LIG    1       -0.887   2.998  -7.704  0.00  0.00    -0.020 A 
ATOM     29  C   LIG    1       -0.786   1.898  -6.899  0.00  0.00    +0.050 A 
ATOM     30  C   LIG    1       -1.509   0.745  -7.208  0.00  0.00    -0.100 A 
ENDBRANCH  20  21
ENDBRANCH   1  20
TORSDOF 5
