REMARK  Name = ZINCrH00000tj13V.0
REMARK                            x       y       z     vdW  Elec       q    Type
REMARK                         _______ _______ _______ _____ _____    ______ ____
ROOT
ATOM      1  C   LIG    1        1.406  -4.723  -0.034  0.00  0.00    +0.510 C 
ATOM      2  N   LIG    1        0.202  -4.117  -0.020  0.00  0.00    -0.650 N 
ATOM      3  H   LIG    1       -0.609  -4.649  -0.014  0.00  0.00    +0.420 HD
ATOM      4  O   LIG    1        2.420  -4.058  -0.041  0.00  0.00    -0.430 OA
ENDROOT
BRANCH   2   5
ATOM      5  C   LIG    1        0.123  -2.724  -0.012  0.00  0.00    +0.410 A 
ATOM      6  N   LIG    1        1.233  -2.004  -0.020  0.00  0.00    -0.460 NA
ATOM      7  C   LIG    1        1.203  -0.685  -0.013  0.00  0.00    +0.380 A 
ATOM      8  C   LIG    1        0.002  -0.004   0.002  0.00  0.00    -0.260 A 
ATOM      9  C   LIG    1       -1.186  -0.722   0.015  0.00  0.00    +0.180 A 
ATOM     10  C   LIG    1       -1.123  -2.105   0.002  0.00  0.00    -0.130 A 
ATOM     11 CL   LIG    1       -2.577  -3.053   0.011  0.00  0.00    -0.030 Cl
BRANCH   8  12
ATOM     12  C   LIG    1       -0.018   1.503   0.010  0.00  0.00    +0.520 C 
ATOM     13  F   LIG    1       -0.673   1.954   1.161  0.00  0.00    -0.170 F 
ATOM     14  F   LIG    1       -0.695   1.966  -1.123  0.00  0.00    -0.170 F 
ATOM     15  F   LIG    1        1.294   1.987   0.000  0.00  0.00    -0.170 F 
ENDBRANCH   8  12
ENDBRANCH   2   5
BRANCH   1  16
ATOM     16  C   LIG    1        1.491  -6.227  -0.042  0.00  0.00    +0.190 C 
ATOM     17  C   LIG    1        0.899  -6.765  -1.346  0.00  0.00    +0.070 C 
BRANCH  16  18
ATOM     18  O   LIG    1        2.881  -6.634   0.062  0.00  0.00    -0.320 OA
BRANCH  18  19
ATOM     19  C   LIG    1        3.132  -7.810   0.673  0.00  0.00    +0.560 C 
ATOM     20  O   LIG    1        2.212  -8.477   1.107  0.00  0.00    -0.490 OA
BRANCH  19  22
ATOM     21  C   LIG    1        5.316  -7.976   1.908  0.00  0.00    +0.160 A 
ATOM     22  C   LIG    1        4.511  -8.283   0.814  0.00  0.00    -0.320 A 
ATOM     23  C   LIG    1        5.148  -9.080  -0.138  0.00  0.00    +0.200 A 
ATOM     24  N   LIG    1        6.368  -9.429   0.110  0.00  0.00    -0.480 NA
ATOM     25  C   LIG    1        4.444  -9.516  -1.397  0.00  0.00    +0.170 C 
ATOM     26  S   LIG    1        6.816  -8.760   1.601  0.00  0.00    +0.280 S 
BRANCH  21  28
ATOM     27  C   LIG    1        5.960  -6.989   4.071  0.00  0.00    +0.300 C 
ATOM     28  N   LIG    1        4.980  -7.210   3.005  0.00  0.00    -0.680 N 
ATOM     29  H   LIG    1        4.096  -6.817   3.070  0.00  0.00    +0.410 HD
ENDBRANCH  21  28
ENDBRANCH  19  22
ENDBRANCH  18  19
ENDBRANCH  16  18
ENDBRANCH   1  16
TORSDOF 7
