REMARK  Name = ZINCpk00000ebiZd.0
REMARK                            x       y       z     vdW  Elec       q    Type
REMARK                         _______ _______ _______ _____ _____    ______ ____
ROOT
ATOM      1  C   LIG    1        4.991   4.083   1.090  0.00  0.00    -0.040 C 
ATOM      2  C   LIG    1        4.220   4.463   0.096  0.00  0.00    -0.030 C 
ATOM      3  C   LIG    1        2.800   4.923   0.279  0.00  0.00    +0.330 C 
ATOM      4  N   LIG    1        2.369   4.623   1.651  0.00  0.00    -0.630 N 
ATOM      5  C   LIG    1        3.318   4.918   2.739  0.00  0.00    +0.310 C 
ATOM      6  C   LIG    1        1.151   4.104   1.905  0.00  0.00    +0.720 C 
ATOM      7  N   LIG    1        0.340   3.758   0.886  0.00  0.00    -0.740 N 
ATOM      8  H   LIG    1        0.601   3.950  -0.028  0.00  0.00    +0.400 HD
ATOM      9  O   LIG    1        0.785   3.948   3.054  0.00  0.00    -0.580 OA
ATOM     10  C   LIG    1        4.560   4.040   2.526  0.00  0.00    +0.080 C 
ENDROOT
BRANCH   7  11
ATOM     11  C   LIG    1       -0.935   3.091   1.159  0.00  0.00    +0.300 C 
ATOM     12  C   LIG    1       -0.719   1.577   1.265  0.00  0.00    +0.030 C 
ATOM     13  C   LIG    1       -0.012   1.092  -0.002  0.00  0.00    +0.070 C 
ATOM     14  C   LIG    1       -0.731   1.588  -1.222  0.00  0.00    +0.520 C 
ATOM     15  N   LIG    1       -1.573   2.627  -1.207  0.00  0.00    -0.710 N 
ATOM     16  H   LIG    1       -1.976   2.909  -2.042  0.00  0.00    +0.400 HD
ATOM     17  O   LIG    1       -0.539   1.018  -2.275  0.00  0.00    -0.550 OA
ATOM     18  C   LIG    1       -1.910   3.354   0.011  0.00  0.00    +0.130 C 
ATOM     19  C   LIG    1       -3.382   3.215   0.422  0.00  0.00    +0.030 C 
ATOM     20  C   LIG    1       -3.334   4.706   0.798  0.00  0.00    +0.030 C 
ATOM     21  C   LIG    1       -2.188   4.845  -0.220  0.00  0.00    +0.030 C 
ENDBRANCH   7  11
BRANCH   1  27
ATOM     22  C   LIG    1        5.845   1.888  -0.931  0.00  0.00    +0.350 C 
ATOM     23  N   LIG    1        6.745   2.708  -0.115  0.00  0.00    -0.370 N 
ATOM     24  N   LIG    1        8.143   2.642  -0.110  0.00  0.00    -0.290 NA
ATOM     25  C   LIG    1        8.603   3.519   0.746  0.00  0.00    +0.240 A 
ATOM     26  C   LIG    1        7.524   4.188   1.323  0.00  0.00    -0.100 A 
ATOM     27  C   LIG    1        6.370   3.673   0.773  0.00  0.00    +0.100 A 
ENDBRANCH   1  27
TORSDOF 2
