REMARK  Name = ZINCpk000005Plh7.0
REMARK                            x       y       z     vdW  Elec       q    Type
REMARK                         _______ _______ _______ _____ _____    ______ ____
ROOT
ATOM      1  N   LIG    1       -4.876   0.446  -0.020  0.00  0.00    -0.480 N 
ATOM      2  C   LIG    1       -4.853  -0.371   1.202  0.00  0.00    +0.170 C 
ATOM      3  C   LIG    1       -3.507  -1.093   1.302  0.00  0.00    +0.240 C 
ATOM      4  O   LIG    1       -2.451  -0.129   1.276  0.00  0.00    -0.370 OA
ATOM      5  C   LIG    1       -2.443   0.684   0.099  0.00  0.00    +0.170 C 
ATOM      6  C   LIG    1       -3.778   1.424  -0.013  0.00  0.00    +0.190 C 
ENDROOT
BRANCH   1  14
ATOM      7  C   LIG    1       -6.458  -0.182  -2.336  0.00  0.00    +0.120 C 
ATOM      8  C   LIG    1       -6.904   0.801  -1.284  0.00  0.00    -0.170 A 
ATOM      9  C   LIG    1       -8.118   1.450  -1.390  0.00  0.00    +0.320 A 
ATOM     10  N   LIG    1       -8.474   2.312  -0.448  0.00  0.00    -0.520 NA
ATOM     11  C   LIG    1       -7.692   2.553   0.584  0.00  0.00    +0.320 A 
ATOM     12  N   LIG    1       -6.528   1.952   0.728  0.00  0.00    -0.540 NA
ATOM     13  C   LIG    1       -8.141   3.541   1.629  0.00  0.00    +0.170 C 
ATOM     14  C   LIG    1       -6.100   1.075  -0.175  0.00  0.00    +0.340 A 
ENDBRANCH   1  14
BRANCH   5  15
ATOM     15  C   LIG    1       -1.302   1.699   0.188  0.00  0.00    +0.300 C 
BRANCH  15  16
ATOM     16  N   LIG    1       -0.018   0.994   0.175  0.00  0.00    -0.720 N 
ATOM     17  H   LIG    1        0.003   0.026   0.117  0.00  0.00    +0.400 HD
ATOM     18  C   LIG    1        1.134   1.690   0.239  0.00  0.00    +0.520 C 
ATOM     19  O   LIG    1        1.108   2.900   0.312  0.00  0.00    -0.520 OA
BRANCH  18  20
ATOM     20  C   LIG    1        2.455   0.964   0.220  0.00  0.00    +0.160 C 
ATOM     21  C   LIG    1        2.633   0.265  -1.129  0.00  0.00    +0.040 C 
BRANCH  20  22
ATOM     22  O   LIG    1        3.516   1.901   0.414  0.00  0.00    -0.350 OA
BRANCH  22  23
ATOM     23  C   LIG    1        4.662   1.354   1.069  0.00  0.00    +0.160 C 
BRANCH  23  24
ATOM     24  C   LIG    1        5.729   2.440   1.223  0.00  0.00    -0.010 C 
ATOM     25  C   LIG    1        7.001   1.826   1.810  0.00  0.00    +0.030 C 
ATOM     26  C   LIG    1        5.211   3.534   2.160  0.00  0.00    +0.020 C 
ENDBRANCH  23  24
ENDBRANCH  22  23
ENDBRANCH  20  22
ENDBRANCH  18  20
ENDBRANCH  15  16
ENDBRANCH   5  15
TORSDOF 7
