REMARK  Name = ZINCqH0000004gxf.0
REMARK                            x       y       z     vdW  Elec       q    Type
REMARK                         _______ _______ _______ _____ _____    ______ ____
ROOT
ATOM      1  C   LIG    1        2.558   4.141   0.854  0.00  0.00    +0.520 C 
ATOM      2  N   LIG    1        1.668   3.304   1.423  0.00  0.00    -0.670 N 
ATOM      3  H   LIG    1        0.719   3.497   1.372  0.00  0.00    +0.410 HD
ATOM      4  O   LIG    1        3.740   3.871   0.870  0.00  0.00    -0.510 OA
ENDROOT
BRANCH   2   5
ATOM      5  C   LIG    1        2.113   2.155   2.086  0.00  0.00    +0.130 A 
ATOM      6  C   LIG    1        3.256   1.498   1.649  0.00  0.00    +0.080 A 
ATOM      7  C   LIG    1        3.693   0.365   2.307  0.00  0.00    +0.020 A 
ATOM      8  C   LIG    1        2.993  -0.117   3.398  0.00  0.00    +0.100 A 
ATOM      9  C   LIG    1        1.855   0.535   3.835  0.00  0.00    -0.660 A 
ATOM     10  C   LIG    1        1.413   1.669   3.183  0.00  0.00    +0.090 A 
BRANCH   9  11
ATOM     11  S   LIG    1        0.967  -0.083   5.226  0.00  0.00    +2.690 S 
ATOM     12  O   LIG    1        0.244   1.018   5.761  0.00  0.00    -0.950 OA
ATOM     13  O   LIG    1        1.893  -0.847   5.986  0.00  0.00    -0.950 OA
BRANCH  11  14
ATOM     14  N   LIG    1       -0.162  -1.150   4.653  0.00  0.00    -1.010 NA
ATOM     15  C   LIG    1       -1.498  -0.675   4.286  0.00  0.00    +0.300 C 
ATOM     16  C   LIG    1        0.176  -2.569   4.514  0.00  0.00    +0.300 C 
ENDBRANCH  11  14
ENDBRANCH   9  11
ENDBRANCH   2   5
BRANCH   1  17
ATOM     17  C   LIG    1        2.083   5.412   0.199  0.00  0.00    +0.050 C 
BRANCH  17  18
ATOM     18  C   LIG    1        3.252   6.111  -0.447  0.00  0.00    -0.070 A 
ATOM     19  C   LIG    1        4.437   6.262   0.248  0.00  0.00    +0.050 A 
ATOM     20  C   LIG    1        5.511   6.899  -0.346  0.00  0.00    -0.010 A 
ATOM     21  C   LIG    1        5.397   7.392  -1.632  0.00  0.00    +0.000 A 
ATOM     22  C   LIG    1        4.210   7.245  -2.326  0.00  0.00    -0.010 A 
ATOM     23  C   LIG    1        3.138   6.605  -1.733  0.00  0.00    +0.010 A 
ENDBRANCH  17  18
BRANCH  17  24
ATOM     24  C   LIG    1        1.462   6.329   1.254  0.00  0.00    +0.000 C 
ATOM     25  C   LIG    1        2.450   6.526   2.405  0.00  0.00    +0.020 C 
BRANCH  24  27
ATOM     26  C   LIG    1        0.146   7.489  -0.525  0.00  0.00    +0.010 C 
ATOM     27  C   LIG    1        1.136   7.685   0.624  0.00  0.00    +0.020 C 
ENDBRANCH  24  27
ENDBRANCH  17  24
ENDBRANCH   1  17
TORSDOF 7
