REMARK  Name = ZINCrg000000sETu.0
REMARK                            x       y       z     vdW  Elec       q    Type
REMARK                         _______ _______ _______ _____ _____    ______ ____
ROOT
ATOM      1  C   LIG    1        1.078   3.702   0.118  0.00  0.00    +0.340 C 
ENDROOT
BRANCH   1   2
ATOM      2  N   LIG    1        1.396   2.276   0.014  0.00  0.00    -0.590 N 
ATOM      3  C   LIG    1        2.796   1.903  -0.133  0.00  0.00    +0.270 C 
ATOM      4  C   LIG    1        3.022   0.455   0.307  0.00  0.00    +0.320 C 
ATOM      5  N   LIG    1        1.972  -0.379  -0.302  0.00  0.00    -0.600 N 
ATOM      6  C   LIG    1        0.579  -0.082   0.061  0.00  0.00    +0.350 C 
ATOM      7  C   LIG    1        2.277  -1.374  -1.159  0.00  0.00    +0.660 C 
ATOM      8  O   LIG    1        3.437  -1.598  -1.442  0.00  0.00    -0.560 OA
ATOM      9  C   LIG    1        0.383   1.410   0.061  0.00  0.00    +0.520 C 
ATOM     10  O   LIG    1       -0.749   1.845   0.101  0.00  0.00    -0.530 OA
BRANCH   7  11
ATOM     11  O   LIG    1        1.296  -2.120  -1.701  0.00  0.00    -0.360 OA
BRANCH  11  12
ATOM     12  C   LIG    1        1.697  -3.174  -2.615  0.00  0.00    +0.140 C 
ATOM     13  C   LIG    1        2.451  -2.564  -3.798  0.00  0.00    +0.040 C 
ATOM     14  C   LIG    1        0.455  -3.908  -3.125  0.00  0.00    +0.080 C 
ATOM     15  C   LIG    1        2.609  -4.162  -1.884  0.00  0.00    +0.040 C 
ENDBRANCH  11  12
ENDBRANCH   7  11
ENDBRANCH   1   2
BRANCH   1  18
ATOM     16  N   LIG    1        0.833   5.394   1.905  0.00  0.00    -0.670 N 
ATOM     17  H   LIG    1        0.702   6.062   1.214  0.00  0.00    +0.410 HD
ATOM     18  C   LIG    1        1.098   4.117   1.567  0.00  0.00    +0.500 C 
ATOM     19  O   LIG    1        1.353   3.302   2.428  0.00  0.00    -0.510 OA
BRANCH  16  23
ATOM     20  C   LIG    1        2.347   8.160   5.570  0.00  0.00    +0.330 C 
ATOM     21  N   LIG    1        1.473   7.100   5.061  0.00  0.00    -0.490 N 
ATOM     22  C   LIG    1        1.547   6.739   3.752  0.00  0.00    +0.300 A 
ATOM     23  C   LIG    1        0.747   5.758   3.258  0.00  0.00    +0.040 A 
ATOM     24  C   LIG    1       -0.173   5.113   4.105  0.00  0.00    +0.160 A 
ATOM     25  C   LIG    1       -0.239   5.477   5.417  0.00  0.00    -0.150 A 
ATOM     26 CL   LIG    1       -1.360   4.695   6.488  0.00  0.00    -0.020 Cl
ATOM     27  C   LIG    1        0.605   6.496   5.894  0.00  0.00    +0.520 A 
ATOM     28  O   LIG    1        0.551   6.833   7.067  0.00  0.00    -0.520 OA
ENDBRANCH  16  23
ENDBRANCH   1  18
TORSDOF 5
