REMARK  Name = ZINCvU00000009Vz.0
REMARK                            x       y       z     vdW  Elec       q    Type
REMARK                         _______ _______ _______ _____ _____    ______ ____
ROOT
ATOM      1  N   LIG    1       -1.142  -2.375  -0.681  0.00  0.00    -0.660 N 
ATOM      2  H   LIG    1       -1.257  -1.414  -0.618  0.00  0.00    +0.420 HD
ATOM      3  C   LIG    1       -0.032  -2.955  -0.185  0.00  0.00    +0.560 C 
ATOM      4  O   LIG    1        0.172  -4.136  -0.373  0.00  0.00    -0.500 OA
ENDROOT
BRANCH   1   9
ATOM      5  C   LIG    1       -4.409  -3.472  -1.976  0.00  0.00    +0.170 A 
ATOM      6  C   LIG    1       -4.078  -4.718  -2.494  0.00  0.00    -0.030 A 
ATOM      7  C   LIG    1       -2.779  -5.180  -2.408  0.00  0.00    +0.050 A 
ATOM      8  C   LIG    1       -1.804  -4.403  -1.813  0.00  0.00    +0.000 A 
ATOM      9  C   LIG    1       -2.129  -3.159  -1.288  0.00  0.00    +0.170 A 
ATOM     10  C   LIG    1       -3.433  -2.692  -1.373  0.00  0.00    -0.010 A 
BRANCH   5  13
ATOM     11  O   LIG    1       -5.045  -0.916  -2.377  0.00  0.00    -0.500 OA
ATOM     12  C   LIG    1       -5.965  -1.684  -2.184  0.00  0.00    +0.530 C 
ATOM     13  N   LIG    1       -5.725  -3.005  -2.062  0.00  0.00    -0.670 N 
ATOM     14  H   LIG    1       -6.465  -3.631  -2.034  0.00  0.00    +0.410 HD
BRANCH  12  15
ATOM     15  C   LIG    1       -7.374  -1.161  -2.082  0.00  0.00    +0.040 C 
ATOM     16  C   LIG    1       -7.551   0.086  -2.973  0.00  0.00    +0.070 C 
ATOM     17  C   LIG    1       -8.554   1.040  -2.301  0.00  0.00    +0.040 C 
ATOM     18  C   LIG    1       -8.131   1.165  -0.813  0.00  0.00    +0.130 C 
ATOM     19  S   LIG    1       -7.713  -0.569  -0.383  0.00  0.00    -0.240 S 
ENDBRANCH  12  15
ENDBRANCH   5  13
ENDBRANCH   1   9
BRANCH   3  20
ATOM     20  C   LIG    1        0.958  -2.136   0.604  0.00  0.00    -0.130 C 
ATOM     21  C   LIG    1        2.433  -2.534   0.518  0.00  0.00    +0.100 C 
ATOM     22  C   LIG    1        1.940  -1.266  -0.182  0.00  0.00    +0.070 C 
BRANCH  20  23
ATOM     23  C   LIG    1        0.457  -1.604   1.922  0.00  0.00    -0.010 A 
ATOM     24  C   LIG    1        0.951  -0.412   2.418  0.00  0.00    +0.010 A 
ATOM     25  C   LIG    1        0.493   0.079   3.627  0.00  0.00    +0.070 A 
ATOM     26  C   LIG    1       -0.460  -0.620   4.341  0.00  0.00    -0.050 A 
ATOM     27  C   LIG    1       -0.958  -1.816   3.845  0.00  0.00    +0.110 A 
ATOM     28  C   LIG    1       -0.497  -2.307   2.632  0.00  0.00    +0.020 A 
BRANCH  27  29
ATOM     29  O   LIG    1       -1.900  -2.503   4.543  0.00  0.00    -0.310 OA
BRANCH  29  30
ATOM     30  C   LIG    1       -2.328  -1.938   5.784  0.00  0.00    +0.600 C 
ATOM     31  F   LIG    1       -1.232  -1.821   6.646  0.00  0.00    -0.160 F 
ATOM     32  F   LIG    1       -3.293  -2.768   6.366  0.00  0.00    -0.130 F 
ATOM     33  F   LIG    1       -2.879  -0.672   5.555  0.00  0.00    -0.160 F 
ENDBRANCH  29  30
ENDBRANCH  27  29
ENDBRANCH  20  23
ENDBRANCH   3  20
TORSDOF 7
