REMARK  Name = ZINCpk00000y6xbE.0
REMARK                            x       y       z     vdW  Elec       q    Type
REMARK                         _______ _______ _______ _____ _____    ______ ____
ROOT
ATOM      1  C   LIG    1       -1.754  -1.248   2.340  0.00  0.00    +0.280 C 
ATOM      2  C   LIG    1       -1.558  -2.378   1.326  0.00  0.00    +0.170 C 
ATOM      3  N   LIG    1       -0.713  -3.423   1.922  0.00  0.00    -0.510 NA
ATOM      4  C   LIG    1       -1.322  -3.948   3.152  0.00  0.00    +0.170 C 
ATOM      5  C   LIG    1       -1.520  -2.802   4.147  0.00  0.00    +0.240 C 
ATOM      6  O   LIG    1       -2.318  -1.782   3.540  0.00  0.00    -0.360 OA
ENDROOT
BRANCH   3   7
ATOM      7  C   LIG    1       -0.453  -4.503   0.960  0.00  0.00    +0.190 C 
ATOM      8  C   LIG    1       -1.776  -5.185   0.544  0.00  0.00    +0.020 C 
ATOM      9  C   LIG    1       -1.516  -5.494  -0.948  0.00  0.00    +0.280 C 
ATOM     10  N   LIG    1       -0.519  -4.508  -1.383  0.00  0.00    -0.560 N 
ATOM     11  C   LIG    1        0.097  -3.940  -0.332  0.00  0.00    +0.520 C 
ATOM     12  O   LIG    1        0.967  -3.098  -0.408  0.00  0.00    -0.490 OA
BRANCH  10  13
ATOM     13  C   LIG    1       -0.246  -4.199  -2.720  0.00  0.00    +0.160 A 
ATOM     14  C   LIG    1        0.791  -3.331  -3.035  0.00  0.00    -0.010 A 
ATOM     15  C   LIG    1        1.061  -3.031  -4.356  0.00  0.00    +0.040 A 
ATOM     16  C   LIG    1        0.294  -3.587  -5.364  0.00  0.00    -0.020 A 
ATOM     17  C   LIG    1       -0.742  -4.449  -5.052  0.00  0.00    +0.040 A 
ATOM     18  C   LIG    1       -1.014  -4.756  -3.734  0.00  0.00    -0.030 A 
ENDBRANCH  10  13
ENDBRANCH   3   7
BRANCH   1  23
ATOM     19  N   LIG    1       -2.332   1.005   1.282  0.00  0.00    -0.470 N 
ATOM     20  C   LIG    1       -3.483   1.595   0.878  0.00  0.00    +0.380 A 
ATOM     21  N   LIG    1       -4.453   0.753   1.109  0.00  0.00    -0.300 NA
ATOM     22  N   LIG    1       -3.979  -0.319   1.638  0.00  0.00    -0.260 NA
ATOM     23  C   LIG    1       -2.684  -0.211   1.764  0.00  0.00    +0.170 A 
BRANCH  19  25
ATOM     24  C   LIG    1       -0.291   1.093  -0.063  0.00  0.00    +0.060 C 
ATOM     25  C   LIG    1       -0.982   1.570   1.216  0.00  0.00    +0.300 C 
ENDBRANCH  19  25
ENDBRANCH   1  23
TORSDOF 4
