REMARK  Name = ZINCrD00000hQ5Cz.0
REMARK                            x       y       z     vdW  Elec       q    Type
REMARK                         _______ _______ _______ _____ _____    ______ ____
ROOT
ATOM      1  C   LIG    1       -0.277   1.278   8.752  0.00  0.00    +0.320 C 
ENDROOT
BRANCH   1   2
ATOM      2  C   LIG    1        0.565   0.701   9.861  0.00  0.00    -0.120 A 
ATOM      3  C   LIG    1        1.629   1.423  10.368  0.00  0.00    +0.040 A 
ATOM      4  C   LIG    1        2.401   0.893  11.386  0.00  0.00    +0.010 A 
ATOM      5  C   LIG    1        2.109  -0.358  11.895  0.00  0.00    +0.040 A 
ATOM      6  C   LIG    1        1.045  -1.080  11.388  0.00  0.00    -0.090 A 
ATOM      7  C   LIG    1        0.270  -0.549  10.375  0.00  0.00    +0.040 A 
BRANCH   6   8
ATOM      8  C   LIG    1        0.727  -2.444  11.944  0.00  0.00    +0.220 C 
BRANCH   8   9
ATOM      9  O   LIG    1       -0.190  -2.313  13.033  0.00  0.00    -0.370 OA
BRANCH   9  10
ATOM     10  C   LIG    1       -0.559  -3.555  13.634  0.00  0.00    +0.180 C 
BRANCH  10  11
ATOM     11  C   LIG    1       -1.538  -3.295  14.781  0.00  0.00    +0.160 C 
ATOM     12  C   LIG    1       -1.994  -4.634  15.413  0.00  0.00    +0.020 C 
ATOM     13  C   LIG    1       -2.389  -4.167  16.841  0.00  0.00    +0.000 C 
ATOM     14  C   LIG    1       -1.369  -3.040  17.111  0.00  0.00    +0.190 C 
ATOM     15  O   LIG    1       -0.884  -2.583  15.843  0.00  0.00    -0.370 OA
ENDBRANCH  10  11
ENDBRANCH   9  10
ENDBRANCH   8   9
ENDBRANCH   6   8
ENDBRANCH   1   2
BRANCH   1  17
ATOM     16  C   LIG    1       -0.304   1.293   6.316  0.00  0.00    +0.520 C 
ATOM     17  N   LIG    1        0.287   0.889   7.458  0.00  0.00    -0.730 N 
ATOM     18  H   LIG    1        1.086   0.340   7.422  0.00  0.00    +0.400 HD
ATOM     19  O   LIG    1       -1.303   1.980   6.361  0.00  0.00    -0.530 OA
BRANCH  16  20
ATOM     20  C   LIG    1        0.277   0.893   4.984  0.00  0.00    +0.050 C 
BRANCH  20  21
ATOM     21  C   LIG    1       -0.578   1.479   3.859  0.00  0.00    +0.130 C 
BRANCH  21  22
ATOM     22  C   LIG    1        0.011   1.072   2.506  0.00  0.00    +0.040 C 
ATOM     23  N   LIG    1        1.454   0.835   2.413  0.00  0.00    -0.120 NA
ATOM     24  N   LIG    1        0.751  -0.189   2.414  0.00  0.00    -0.120 NA
BRANCH  22  25
ATOM     25  C   LIG    1       -0.729   1.579   1.267  0.00  0.00    +0.120 C 
BRANCH  25  26
ATOM     26  C   LIG    1       -0.013   1.086   0.008  0.00  0.00    +0.160 C 
BRANCH  26  28
ATOM     27  C   LIG    1       -1.292   1.962  -2.136  0.00  0.00    +0.030 C 
ATOM     28  C   LIG    1       -0.725   1.573  -1.185  0.00  0.00    -0.190 C 
ENDBRANCH  26  28
ENDBRANCH  25  26
ENDBRANCH  22  25
ENDBRANCH  21  22
ENDBRANCH  20  21
ENDBRANCH  16  20
ENDBRANCH   1  17
TORSDOF 12
