REMARK  Name = ZINCrH000004qjO1.0
REMARK                            x       y       z     vdW  Elec       q    Type
REMARK                         _______ _______ _______ _____ _____    ______ ____
ROOT
ATOM      1  C   LIG    1        2.983   0.699   0.455  0.00  0.00    +0.150 C 
ATOM      2  C   LIG    1        1.727   1.520   0.317  0.00  0.00    +0.130 A 
ATOM      3  C   LIG    1        1.799   2.870   0.389  0.00  0.00    -0.090 A 
ATOM      4  C   LIG    1        0.594   3.607   0.255  0.00  0.00    +0.380 A 
ATOM      5  C   LIG    1       -0.644   2.839   0.046  0.00  0.00    -0.050 A 
ATOM      6  N   LIG    1       -0.573   1.525   0.000  0.00  0.00    -0.150 NA
ATOM      7  O   LIG    1        0.584   4.827   0.310  0.00  0.00    -0.450 OA
ATOM      8  N   LIG    1        0.538   0.898   0.122  0.00  0.00    -0.270 N 
ENDROOT
BRANCH   8   9
ATOM      9  C   LIG    1        0.523  -0.500   0.056  0.00  0.00    +0.110 A 
ATOM     10  C   LIG    1        0.980  -1.253   1.130  0.00  0.00    +0.020 A 
ATOM     11  C   LIG    1        0.958  -2.632   1.063  0.00  0.00    +0.040 A 
ATOM     12  C   LIG    1        0.492  -3.264  -0.075  0.00  0.00    +0.030 A 
ATOM     13  C   LIG    1        0.041  -2.517  -1.148  0.00  0.00    +0.040 A 
ATOM     14  C   LIG    1        0.055  -1.137  -1.086  0.00  0.00    +0.040 A 
ENDBRANCH   8   9
BRANCH   5  15
ATOM     15  C   LIG    1       -1.941   3.528  -0.103  0.00  0.00    +0.590 C 
ATOM     16  N   LIG    1       -3.084   2.815  -0.131  0.00  0.00    -0.560 N 
ATOM     17  O   LIG    1       -1.978   4.739  -0.201  0.00  0.00    -0.490 OA
BRANCH  16  18
ATOM     18  C   LIG    1       -3.054   1.373   0.124  0.00  0.00    +0.240 C 
ATOM     19  C   LIG    1       -2.515   1.115   1.533  0.00  0.00    +0.000 C 
ATOM     20  C   LIG    1       -3.424   1.795   2.559  0.00  0.00    +0.010 C 
ATOM     21  C   LIG    1       -4.840   1.226   2.442  0.00  0.00    -0.020 C 
ATOM     22  C   LIG    1       -5.378   1.484   1.033  0.00  0.00    +0.000 C 
ATOM     23  C   LIG    1       -5.749   1.906   3.468  0.00  0.00    +0.010 C 
ATOM     24  C   LIG    1       -4.469   0.804   0.007  0.00  0.00    +0.020 C 
ENDBRANCH  16  18
BRANCH  16  25
ATOM     25  C   LIG    1       -4.357   3.482  -0.415  0.00  0.00    +0.210 C 
ATOM     26  C   LIG    1       -4.299   4.871  -1.054  0.00  0.00    +0.030 C 
ATOM     27  C   LIG    1       -4.707   4.719   0.414  0.00  0.00    +0.010 C 
ENDBRANCH  16  25
ENDBRANCH   5  15
TORSDOF 4
