REMARK  Name = ZINC550000002nnS.0
REMARK                            x       y       z     vdW  Elec       q    Type
REMARK                         _______ _______ _______ _____ _____    ______ ____
ROOT
ATOM      1  C   LIG    1       -0.699   1.479   1.216  0.00  0.00    +0.280 C 
ENDROOT
BRANCH   1   2
ATOM      2  N   LIG    1       -0.012   1.005   0.008  0.00  0.00    -0.640 N 
ATOM      3  H   LIG    1       -0.500   1.339  -0.810  0.00  0.00    +0.440 HD
ATOM      4  H   LIG    1        0.935   1.354   0.000  0.00  0.00    +0.440 HD
ATOM      5  H   LIG    1        0.002  -0.004   0.002  0.00  0.00    +0.440 HD
ENDBRANCH   1   2
BRANCH   1   6
ATOM      6  C   LIG    1       -2.135   0.949   1.227  0.00  0.00    +0.200 C 
BRANCH   6   8
ATOM      7  C   LIG    1       -3.373   1.802   3.404  0.00  0.00    +0.110 C 
ATOM      8  C   LIG    1       -2.824   1.424   2.438  0.00  0.00    -0.250 C 
ENDBRANCH   6   8
ENDBRANCH   1   6
TORSDOF 3
