REMARK  Name = ZINCqH00000505RW.0
REMARK                            x       y       z     vdW  Elec       q    Type
REMARK                         _______ _______ _______ _____ _____    ______ ____
ROOT
ATOM      1  O   LIG    1        0.079   2.934   6.475  0.00  0.00    -0.300 OA
ENDROOT
BRANCH   1  10
ATOM      2  C   LIG    1       -0.253   0.592  11.052  0.00  0.00    +0.130 C 
ATOM      3  C   LIG    1       -0.261   2.085  11.254  0.00  0.00    +0.030 A 
ATOM      4  C   LIG    1       -0.347   2.619  12.498  0.00  0.00    -0.070 A 
ATOM      5  C   LIG    1       -0.353   4.022  12.660  0.00  0.00    +0.510 A 
ATOM      6  O   LIG    1       -0.275   4.853  11.610  0.00  0.00    -0.270 OA
ATOM      7  C   LIG    1       -0.187   4.386  10.345  0.00  0.00    +0.120 A 
ATOM      8  C   LIG    1       -0.108   5.263   9.271  0.00  0.00    +0.060 A 
ATOM      9  C   LIG    1       -0.019   4.772   7.986  0.00  0.00    +0.000 A 
ATOM     10  C   LIG    1       -0.008   3.401   7.749  0.00  0.00    +0.110 A 
ATOM     11  C   LIG    1       -0.092   2.513   8.804  0.00  0.00    +0.060 A 
ATOM     12  O   LIG    1       -0.430   4.489  13.782  0.00  0.00    -0.460 OA
ATOM     13  C   LIG    1       -0.176   3.000  10.111  0.00  0.00    -0.110 A 
ENDBRANCH   1  10
BRANCH   1  14
ATOM     14  C   LIG    1        0.157   3.907   5.431  0.00  0.00    +0.390 C 
BRANCH  14  15
ATOM     15  C   LIG    1        0.247   3.208   4.099  0.00  0.00    +0.180 A 
ATOM     16  N   LIG    1       -0.756   2.856   3.333  0.00  0.00    -0.440 NA
ATOM     17  C   LIG    1       -0.201   2.266   2.258  0.00  0.00    +0.190 A 
ATOM     18  N   LIG    1        1.088   2.297   2.420  0.00  0.00    -0.360 NA
ATOM     19  O   LIG    1        1.366   2.834   3.471  0.00  0.00    +0.100 OA
BRANCH  17  20
ATOM     20  C   LIG    1       -0.939   1.683   1.080  0.00  0.00    +0.010 C 
ATOM     21  C   LIG    1       -0.013   1.086   0.008  0.00  0.00    +0.080 C 
ATOM     22  C   LIG    1       -0.959   1.695  -1.040  0.00  0.00    +0.260 C 
ATOM     23  F   LIG    1       -2.009   0.846  -1.407  0.00  0.00    -0.170 F 
ATOM     24  F   LIG    1       -0.295   2.248  -2.140  0.00  0.00    -0.180 F 
ATOM     25  C   LIG    1       -2.079   0.751   1.494  0.00  0.00    +0.090 C 
ATOM     26  C   LIG    1       -1.349   2.730   0.028  0.00  0.00    +0.070 C 
ENDBRANCH  17  20
ENDBRANCH  14  15
ENDBRANCH   1  14
TORSDOF 4
