REMARK  Name = ZINCqH00000093P5.1
REMARK                            x       y       z     vdW  Elec       q    Type
REMARK                         _______ _______ _______ _____ _____    ______ ____
ROOT
ATOM      1  C   LIG    1       -4.702   0.345  -1.156  0.00  0.00    +0.040 C 
ATOM      2  C   LIG    1       -4.807   1.304   0.032  0.00  0.00    +0.260 C 
ENDROOT
BRANCH   2   3
ATOM      3  N   LIG    1       -4.824   0.536   1.280  0.00  0.00    -0.710 N 
ATOM      4  H   LIG    1       -4.000   0.389   1.769  0.00  0.00    +0.410 HD
ATOM      5  C   LIG    1       -5.984   0.035   1.747  0.00  0.00    +0.610 C 
ATOM      6  O   LIG    1       -7.018   0.220   1.133  0.00  0.00    -0.530 OA
BRANCH   5   7
ATOM      7  C   LIG    1       -6.001  -0.737   3.002  0.00  0.00    -0.000 A 
ATOM      8  N   LIG    1       -4.969  -1.021   3.767  0.00  0.00    -0.200 NA
ATOM      9  N   LIG    1       -5.308  -1.710   4.796  0.00  0.00    -0.410 N 
ATOM     10  H   LIG    1       -4.691  -2.014   5.479  0.00  0.00    +0.450 HD
ATOM     11  C   LIG    1       -6.655  -1.962   4.802  0.00  0.00    +0.060 A 
ATOM     12  C   LIG    1       -7.519  -2.643   5.654  0.00  0.00    +0.010 A 
ATOM     13  C   LIG    1       -8.862  -2.707   5.354  0.00  0.00    +0.050 A 
ATOM     14  C   LIG    1       -9.364  -2.099   4.211  0.00  0.00    -0.010 A 
ATOM     15  C   LIG    1       -8.533  -1.425   3.361  0.00  0.00    +0.090 A 
ATOM     16  C   LIG    1       -7.173  -1.348   3.645  0.00  0.00    -0.110 A 
ENDBRANCH   5   7
ENDBRANCH   2   3
BRANCH   2  17
ATOM     17  C   LIG    1       -3.605   2.251   0.031  0.00  0.00    +0.220 C 
BRANCH  17  18
ATOM     18  O   LIG    1       -2.398   1.487   0.021  0.00  0.00    -0.300 OA
BRANCH  18  19
ATOM     19  C   LIG    1       -1.229   2.181   0.020  0.00  0.00    +0.180 A 
ATOM     20  C   LIG    1       -1.244   3.568   0.034  0.00  0.00    -0.070 A 
ATOM     21  C   LIG    1       -0.055   4.271   0.026  0.00  0.00    +0.090 A 
ATOM     22  C   LIG    1        1.150   3.593   0.010  0.00  0.00    -0.020 A 
ATOM     23  C   LIG    1        1.168   2.210   0.003  0.00  0.00    +0.110 A 
ATOM     24  C   LIG    1       -0.018   1.503   0.010  0.00  0.00    -0.220 A 
BRANCH  24  25
ATOM     25  C   LIG    1        0.002  -0.004   0.002  0.00  0.00    +0.520 C 
ATOM     26  F   LIG    1       -0.662  -0.473  -1.137  0.00  0.00    -0.170 F 
ATOM     27  F   LIG    1       -0.640  -0.485   1.148  0.00  0.00    -0.170 F 
ATOM     28  F   LIG    1        1.327  -0.452  -0.013  0.00  0.00    -0.180 F 
ENDBRANCH  24  25
ENDBRANCH  18  19
ENDBRANCH  17  18
ENDBRANCH   2  17
TORSDOF 6
