REMARK  Name = ZINCqH00000093P5.0
REMARK                            x       y       z     vdW  Elec       q    Type
REMARK                         _______ _______ _______ _____ _____    ______ ____
ROOT
ATOM      1  C   LIG    1       -4.702   0.345  -1.156  0.00  0.00    +0.040 C 
ATOM      2  C   LIG    1       -4.807   1.304   0.032  0.00  0.00    +0.270 C 
ENDROOT
BRANCH   2   3
ATOM      3  N   LIG    1       -4.824   0.536   1.280  0.00  0.00    -0.720 N 
ATOM      4  H   LIG    1       -4.000   0.389   1.769  0.00  0.00    +0.400 HD
ATOM      5  C   LIG    1       -5.984   0.035   1.747  0.00  0.00    +0.600 C 
ATOM      6  O   LIG    1       -7.019   0.220   1.132  0.00  0.00    -0.510 OA
BRANCH   5   7
ATOM      7  C   LIG    1       -6.001  -0.732   2.994  0.00  0.00    -0.040 A 
ATOM      8  C   LIG    1       -7.119  -1.310   3.610  0.00  0.00    -0.090 A 
ATOM      9  C   LIG    1       -8.490  -1.404   3.340  0.00  0.00    +0.070 A 
ATOM     10  C   LIG    1       -9.297  -2.081   4.201  0.00  0.00    +0.010 A 
ATOM     11  C   LIG    1       -8.791  -2.691   5.350  0.00  0.00    +0.030 A 
ATOM     12  C   LIG    1       -7.471  -2.640   5.666  0.00  0.00    +0.050 A 
ATOM     13  C   LIG    1       -6.579  -1.955   4.817  0.00  0.00    +0.050 A 
ATOM     14  N   LIG    1       -5.280  -1.713   4.815  0.00  0.00    -0.260 NA
ATOM     15  N   LIG    1       -4.934  -1.021   3.789  0.00  0.00    -0.320 N 
ATOM     16  H   LIG    1       -4.024  -0.740   3.604  0.00  0.00    +0.450 HD
ENDBRANCH   5   7
ENDBRANCH   2   3
BRANCH   2  17
ATOM     17  C   LIG    1       -3.605   2.251   0.031  0.00  0.00    +0.220 C 
BRANCH  17  18
ATOM     18  O   LIG    1       -2.398   1.487   0.021  0.00  0.00    -0.310 OA
BRANCH  18  19
ATOM     19  C   LIG    1       -1.229   2.181   0.020  0.00  0.00    +0.180 A 
ATOM     20  C   LIG    1       -1.244   3.568   0.034  0.00  0.00    -0.070 A 
ATOM     21  C   LIG    1       -0.055   4.271   0.026  0.00  0.00    +0.090 A 
ATOM     22  C   LIG    1        1.150   3.593   0.010  0.00  0.00    -0.020 A 
ATOM     23  C   LIG    1        1.168   2.210   0.003  0.00  0.00    +0.120 A 
ATOM     24  C   LIG    1       -0.018   1.503   0.010  0.00  0.00    -0.220 A 
BRANCH  24  25
ATOM     25  C   LIG    1        0.002  -0.004   0.002  0.00  0.00    +0.520 C 
ATOM     26  F   LIG    1       -0.662  -0.473  -1.137  0.00  0.00    -0.170 F 
ATOM     27  F   LIG    1       -0.640  -0.485   1.148  0.00  0.00    -0.180 F 
ATOM     28  F   LIG    1        1.327  -0.452  -0.013  0.00  0.00    -0.180 F 
ENDBRANCH  24  25
ENDBRANCH  18  19
ENDBRANCH  17  18
ENDBRANCH   2  17
TORSDOF 6
