REMARK  Name = ZINCqH0000008JiI.0
REMARK                            x       y       z     vdW  Elec       q    Type
REMARK                         _______ _______ _______ _____ _____    ______ ____
ROOT
ATOM      1  C   LIG    1       -2.681  -0.962  -3.918  0.00  0.00    +0.060 C 
ATOM      2  C   LIG    1       -3.333  -1.995  -2.997  0.00  0.00    +0.190 C 
ATOM      3  C   LIG    1       -4.852  -1.791  -2.986  0.00  0.00    +0.220 C 
ATOM      4  O   LIG    1       -5.433  -2.634  -1.987  0.00  0.00    -0.370 OA
ATOM      5  C   LIG    1       -5.006  -2.341  -0.654  0.00  0.00    +0.200 C 
ATOM      6  C   LIG    1       -3.491  -2.578  -0.547  0.00  0.00    +0.270 C 
ATOM      7  N   LIG    1       -2.831  -1.823  -1.624  0.00  0.00    -0.610 N 
ATOM      8  C   LIG    1       -1.795  -1.002  -1.363  0.00  0.00    +0.520 C 
ATOM      9  O   LIG    1       -1.197  -0.470  -2.274  0.00  0.00    -0.510 OA
ENDROOT
BRANCH   5  10
ATOM     10  C   LIG    1       -5.725  -3.244   0.314  0.00  0.00    -0.080 A 
ATOM     11  C   LIG    1       -6.173  -2.744   1.522  0.00  0.00    +0.030 A 
ATOM     12  C   LIG    1       -6.833  -3.572   2.412  0.00  0.00    +0.030 A 
ATOM     13  C   LIG    1       -7.046  -4.899   2.093  0.00  0.00    +0.040 A 
ATOM     14  C   LIG    1       -6.599  -5.400   0.883  0.00  0.00    -0.040 A 
ATOM     15 CL   LIG    1       -6.866  -7.068   0.481  0.00  0.00    -0.060 Cl
ATOM     16  C   LIG    1       -5.943  -4.570  -0.009  0.00  0.00    +0.060 A 
ENDBRANCH   5  10
BRANCH   8  17
ATOM     17  C   LIG    1       -1.379  -0.745   0.063  0.00  0.00    +0.150 C 
BRANCH  17  18
ATOM     18  C   LIG    1       -0.205   0.200   0.081  0.00  0.00    +0.130 A 
ATOM     19  C   LIG    1       -0.271   1.580   0.041  0.00  0.00    -0.190 A 
ATOM     20  C   LIG    1       -1.317   2.525  -0.019  0.00  0.00    +0.080 A 
ATOM     21  C   LIG    1       -1.023   3.849  -0.050  0.00  0.00    -0.030 A 
ATOM     22  C   LIG    1        0.296   4.309  -0.013  0.00  0.00    +0.050 A 
ATOM     23  C   LIG    1        1.349   3.456   0.050  0.00  0.00    +0.030 A 
ATOM     24  C   LIG    1        1.118   2.064   0.080  0.00  0.00    +0.110 A 
ATOM     25  N   LIG    1        1.892   0.996   0.138  0.00  0.00    -0.300 NA
ATOM     26  N   LIG    1        1.088  -0.149   0.139  0.00  0.00    -0.420 N 
ATOM     27  H   LIG    1        1.417  -1.061   0.176  0.00  0.00    +0.440 HD
ENDBRANCH  17  18
ENDBRANCH   8  17
TORSDOF 3
