REMARK  Name = ZINCvU0000000BEV.0
REMARK                            x       y       z     vdW  Elec       q    Type
REMARK                         _______ _______ _______ _____ _____    ______ ____
ROOT
ATOM      1  C   LIG    1       -0.065   8.121   1.000  0.00  0.00    -0.100 A 
ATOM      2  C   LIG    1       -0.615   6.848   1.047  0.00  0.00    +0.440 A 
ATOM      3  N   LIG    1       -0.401   6.192  -0.131  0.00  0.00    -0.410 N 
ATOM      4  C   LIG    1        0.290   6.995  -1.017  0.00  0.00    +0.300 A 
ATOM      5  N   LIG    1        0.721   6.826  -2.249  0.00  0.00    -0.430 NA
ATOM      6  C   LIG    1        1.377   7.815  -2.867  0.00  0.00    +0.120 A 
ATOM      7  C   LIG    1        1.840   7.643  -4.185  0.00  0.00    +0.050 A 
ATOM      8  C   LIG    1        2.508   8.653  -4.806  0.00  0.00    +0.050 A 
ATOM      9  C   LIG    1        2.743   9.863  -4.155  0.00  0.00    +0.040 A 
ATOM     10  C   LIG    1        2.311  10.067  -2.881  0.00  0.00    +0.060 A 
ATOM     11  C   LIG    1        1.617   9.046  -2.206  0.00  0.00    +0.090 A 
ATOM     12  N   LIG    1        1.187   9.235  -0.953  0.00  0.00    -0.390 NA
ATOM     13  C   LIG    1        0.538   8.268  -0.335  0.00  0.00    +0.140 A 
ENDROOT
BRANCH   3  14
ATOM     14  C   LIG    1       -0.829   4.886  -0.405  0.00  0.00    +0.120 A 
ATOM     15  C   LIG    1        0.102   3.889  -0.662  0.00  0.00    +0.070 A 
ATOM     16  C   LIG    1       -0.322   2.603  -0.932  0.00  0.00    +0.070 A 
ATOM     17  C   LIG    1       -1.673   2.308  -0.946  0.00  0.00    -0.080 A 
ATOM     18  C   LIG    1       -2.604   3.301  -0.695  0.00  0.00    +0.070 A 
ATOM     19 BR   LIG    1       -2.251   0.545  -1.315  0.00  0.00    -0.030 Br
ATOM     20  C   LIG    1       -2.184   4.587  -0.419  0.00  0.00    +0.040 A 
ENDBRANCH   3  14
BRANCH   2  21
ATOM     21  N   LIG    1       -1.280   6.319   2.131  0.00  0.00    -0.660 N 
ATOM     22  H   LIG    1       -2.072   6.759   2.475  0.00  0.00    +0.440 HD
ATOM     23  C   LIG    1       -0.829   5.190   2.713  0.00  0.00    +0.620 C 
ATOM     24  O   LIG    1        0.190   4.661   2.308  0.00  0.00    -0.470 OA
BRANCH  23  25
ATOM     25  C   LIG    1       -1.565   4.600   3.833  0.00  0.00    -0.070 A 
ATOM     26  C   LIG    1       -1.221   3.464   4.510  0.00  0.00    +0.090 A 
ATOM     27  C   LIG    1       -2.198   3.270   5.497  0.00  0.00    +0.010 A 
ATOM     28  C   LIG    1       -3.087   4.284   5.381  0.00  0.00    +0.010 A 
ATOM     29 BR   LIG    1       -4.621   4.533   6.459  0.00  0.00    +0.080 Br
ATOM     30  O   LIG    1       -2.699   5.086   4.381  0.00  0.00    -0.150 OA
ENDBRANCH  23  25
ENDBRANCH   2  21
BRANCH   1  32
ATOM     31  N   LIG    1       -0.101   9.879   2.871  0.00  0.00    -0.400 NA
ATOM     32  C   LIG    1       -0.085   9.101   2.043  0.00  0.00    +0.280 C 
ENDBRANCH   1  32
TORSDOF 4
