REMARK  Name = ZINCrH000004sOKI.0
REMARK                            x       y       z     vdW  Elec       q    Type
REMARK                         _______ _______ _______ _____ _____    ______ ____
ROOT
ATOM      1  N   LIG    1        3.162   4.738   1.308  0.00  0.00    -0.740 N 
ATOM      2  H   LIG    1        2.882   5.362   0.619  0.00  0.00    +0.400 HD
ATOM      3  C   LIG    1        3.939   5.161   2.324  0.00  0.00    +0.710 C 
ATOM      4  N   LIG    1        4.328   6.450   2.384  0.00  0.00    -0.630 N 
ATOM      5  C   LIG    1        3.906   7.392   1.343  0.00  0.00    +0.280 C 
ATOM      6  O   LIG    1        4.289   4.380   3.188  0.00  0.00    -0.580 OA
ENDROOT
BRANCH   4   7
ATOM      7  C   LIG    1        5.173   6.910   3.489  0.00  0.00    +0.270 C 
ATOM      8  C   LIG    1        6.489   7.459   2.932  0.00  0.00    +0.000 C 
ATOM      9  C   LIG    1        7.341   7.992   4.088  0.00  0.00    +0.050 C 
ATOM     10  C   LIG    1        6.554   9.068   4.840  0.00  0.00    +0.180 C 
ATOM     11  N   LIG    1        5.304   8.493   5.354  0.00  0.00    -0.500 N 
ATOM     12  C   LIG    1        4.449   8.017   4.259  0.00  0.00    +0.180 C 
BRANCH  11  13
ATOM     13  C   LIG    1        4.624   9.411   6.157  0.00  0.00    +0.090 A 
ATOM     14  C   LIG    1        4.280   9.074   7.460  0.00  0.00    +0.040 A 
ATOM     15  C   LIG    1        3.611   9.986   8.254  0.00  0.00    +0.020 A 
ATOM     16  C   LIG    1        3.276  11.229   7.749  0.00  0.00    +0.000 A 
ATOM     17  C   LIG    1        3.613  11.565   6.450  0.00  0.00    +0.010 A 
ATOM     18  C   LIG    1        4.286  10.660   5.653  0.00  0.00    -0.030 A 
ENDBRANCH  11  13
ENDBRANCH   4   7
BRANCH   1  19
ATOM     19  C   LIG    1        2.738   3.337   1.243  0.00  0.00    +0.280 C 
BRANCH  19  20
ATOM     20  C   LIG    1        1.871   3.123   0.001  0.00  0.00    +0.070 C 
ATOM     21  C   LIG    1        2.715   3.350  -1.256  0.00  0.00    +0.030 C 
BRANCH  20  28
ATOM     22  C   LIG    1       -1.234   2.184   0.020  0.00  0.00    +0.160 C 
ATOM     23  C   LIG    1       -0.016   1.298   0.009  0.00  0.00    +0.030 A 
ATOM     24  N   LIG    1        0.002  -0.004   0.002  0.00  0.00    -0.360 NA
ATOM     25  O   LIG    1        1.132  -0.434  -0.011  0.00  0.00    +0.100 OA
ATOM     26  C   LIG    1        2.036   0.556  -0.014  0.00  0.00    -0.020 A 
ATOM     27  C   LIG    1        3.536   0.408  -0.030  0.00  0.00    +0.190 C 
ATOM     28  C   LIG    1        1.335   1.715  -0.002  0.00  0.00    -0.200 A 
ENDBRANCH  20  28
ENDBRANCH  19  20
ENDBRANCH   1  19
TORSDOF 5
