REMARK  Name = ZINCpk000000ooYi.0
REMARK                            x       y       z     vdW  Elec       q    Type
REMARK                         _______ _______ _______ _____ _____    ______ ____
ROOT
ATOM      1  C   LIG    1        1.982   2.598  -2.152  0.00  0.00    +0.520 C 
ATOM      2  N   LIG    1        3.023   3.407  -2.433  0.00  0.00    -0.720 N 
ATOM      3  H   LIG    1        3.277   3.568  -3.355  0.00  0.00    +0.400 HD
ATOM      4  O   LIG    1        1.664   2.398  -0.998  0.00  0.00    -0.540 OA
ENDROOT
BRANCH   1   9
ATOM      5  N   LIG    1       -0.185   1.712  -2.865  0.00  0.00    -1.000 NA
ATOM      6  C   LIG    1       -0.636   0.434  -3.435  0.00  0.00    +0.260 C 
ATOM      7  C   LIG    1        0.556  -0.170  -4.207  0.00  0.00    +0.040 C 
ATOM      8  C   LIG    1        1.780   0.527  -3.555  0.00  0.00    +0.050 C 
ATOM      9  C   LIG    1        1.214   1.942  -3.270  0.00  0.00    +0.240 C 
BRANCH   5  10
ATOM     10  S   LIG    1       -1.098   2.727  -1.929  0.00  0.00    +2.620 S 
ATOM     11  O   LIG    1       -0.375   3.951  -1.930  0.00  0.00    -0.950 OA
ATOM     12  O   LIG    1       -2.401   2.646  -2.491  0.00  0.00    -0.960 OA
BRANCH  10  13
ATOM     13  C   LIG    1       -1.069   1.972  -0.280  0.00  0.00    -0.340 C 
BRANCH  13  15
ATOM     14  C   LIG    1       -1.724   2.270   2.113  0.00  0.00    +0.040 C 
ATOM     15  C   LIG    1       -1.749   2.907   0.722  0.00  0.00    +0.040 C 
ENDBRANCH  13  15
ENDBRANCH  10  13
ENDBRANCH   5  10
ENDBRANCH   1   9
BRANCH   2  16
ATOM     16  C   LIG    1        3.770   4.045  -1.346  0.00  0.00    +0.270 C 
BRANCH  16  17
ATOM     17  C   LIG    1        4.891   4.904  -1.933  0.00  0.00    +0.070 C 
BRANCH  17  18
ATOM     18  C   LIG    1        5.660   5.560  -0.815  0.00  0.00    -0.110 A 
ATOM     19  C   LIG    1        5.276   6.802  -0.345  0.00  0.00    +0.050 A 
ATOM     20  C   LIG    1        5.976   7.407   0.679  0.00  0.00    -0.010 A 
ATOM     21  C   LIG    1        7.082   6.775   1.242  0.00  0.00    +0.110 A 
ATOM     22  O   LIG    1        7.914   7.191   2.235  0.00  0.00    -0.300 OA
ATOM     23  C   LIG    1        8.622   6.059   2.767  0.00  0.00    +0.240 C 
ATOM     24  C   LIG    1        8.666   5.086   1.565  0.00  0.00    +0.070 C 
ATOM     25  C   LIG    1        7.457   5.526   0.762  0.00  0.00    -0.170 A 
ATOM     26  C   LIG    1        6.755   4.923  -0.258  0.00  0.00    +0.070 A 
ENDBRANCH  17  18
ENDBRANCH  16  17
ENDBRANCH   2  16
TORSDOF 7
