REMARK  Name = ZINCvU0000000IqU.0
REMARK                            x       y       z     vdW  Elec       q    Type
REMARK                         _______ _______ _______ _____ _____    ______ ____
ROOT
ATOM      1  N   LIG    1       -0.067   1.120  -2.437  0.00  0.00    -0.600 N 
ATOM      2  C   LIG    1        0.915   1.767  -3.090  0.00  0.00    +0.600 C 
ATOM      3  C   LIG    1        1.359   0.986  -4.249  0.00  0.00    -0.060 A 
ATOM      4  C   LIG    1        0.613  -0.175  -4.309  0.00  0.00    -0.180 A 
ATOM      5  C   LIG    1        1.076  -0.870  -5.431  0.00  0.00    +0.120 A 
ATOM      6  N   LIG    1        2.032  -0.144  -5.977  0.00  0.00    -0.220 NA
ATOM      7  N   LIG    1        2.217   0.940  -5.311  0.00  0.00    -0.330 N 
ATOM      8  H   LIG    1        2.870   1.624  -5.530  0.00  0.00    +0.450 HD
ATOM      9  O   LIG    1        1.372   2.846  -2.763  0.00  0.00    -0.510 OA
ATOM     10  C   LIG    1       -0.338  -0.138  -3.144  0.00  0.00    +0.370 C 
ENDROOT
BRANCH  10  11
ATOM     11  C   LIG    1       -0.086  -1.311  -2.231  0.00  0.00    -0.080 A 
ATOM     12  C   LIG    1       -0.939  -2.398  -2.251  0.00  0.00    +0.060 A 
ATOM     13  C   LIG    1       -0.708  -3.474  -1.414  0.00  0.00    +0.060 A 
ATOM     14  C   LIG    1        0.377  -3.463  -0.557  0.00  0.00    -0.020 A 
ATOM     15  C   LIG    1        1.232  -2.374  -0.537  0.00  0.00    -0.030 A 
ATOM     16 CL   LIG    1        2.594  -2.359   0.539  0.00  0.00    -0.040 Cl
ATOM     17 CL   LIG    1        0.667  -4.814   0.494  0.00  0.00    -0.040 Cl
ATOM     18  C   LIG    1        1.002  -1.300  -1.378  0.00  0.00    +0.070 A 
ENDBRANCH  10  11
BRANCH   5  19
ATOM     19  C   LIG    1        0.583  -2.182  -5.918  0.00  0.00    -0.040 A 
ATOM     20  C   LIG    1       -0.434  -2.844  -5.235  0.00  0.00    +0.040 A 
ATOM     21  C   LIG    1       -0.893  -4.062  -5.694  0.00  0.00    +0.000 A 
ATOM     22  C   LIG    1       -0.338  -4.634  -6.825  0.00  0.00    +0.040 A 
ATOM     23  C   LIG    1        0.676  -3.988  -7.507  0.00  0.00    -0.020 A 
ATOM     24  C   LIG    1        1.142  -2.763  -7.060  0.00  0.00    +0.130 A 
BRANCH  24  25
ATOM     25  O   LIG    1        2.139  -2.127  -7.729  0.00  0.00    -0.480 OA
ATOM     26  H   LIG    1        3.027  -2.354  -7.420  0.00  0.00    +0.390 HD
ENDBRANCH  24  25
ENDBRANCH   5  19
BRANCH   1  27
ATOM     27  C   LIG    1       -0.753   1.593  -1.232  0.00  0.00    +0.330 C 
BRANCH  27  28
ATOM     28  C   LIG    1       -0.013   1.086   0.008  0.00  0.00    +0.010 C 
BRANCH  28  29
ATOM     29  C   LIG    1       -0.729   1.579   1.267  0.00  0.00    +0.170 C 
BRANCH  29  30
ATOM     30  O   LIG    1       -0.038   1.106   2.425  0.00  0.00    -0.380 OA
BRANCH  30  32
ATOM     31  C   LIG    1       -1.655   0.469   4.103  0.00  0.00    +0.010 C 
ATOM     32  C   LIG    1       -0.628   1.513   3.661  0.00  0.00    +0.140 C 
ATOM     33  C   LIG    1        0.461   1.641   4.728  0.00  0.00    +0.040 C 
ENDBRANCH  30  32
ENDBRANCH  29  30
ENDBRANCH  28  29
ENDBRANCH  27  28
ENDBRANCH   1  27
TORSDOF 8
