REMARK  Name = ZINCvU0000000IqU.1
REMARK                            x       y       z     vdW  Elec       q    Type
REMARK                         _______ _______ _______ _____ _____    ______ ____
ROOT
ATOM      1  N   LIG    1        1.356   2.033   0.000  0.00  0.00    -0.600 N 
ATOM      2  C   LIG    1        2.096   2.303   1.089  0.00  0.00    +0.610 C 
ATOM      3  C   LIG    1        3.430   2.792   0.695  0.00  0.00    -0.040 A 
ATOM      4  N   LIG    1        4.598   3.219   1.131  0.00  0.00    -0.200 NA
ATOM      5  N   LIG    1        5.368   3.512   0.144  0.00  0.00    -0.370 N 
ATOM      6  H   LIG    1        6.276   3.845   0.226  0.00  0.00    +0.450 HD
ATOM      7  C   LIG    1        4.720   3.283  -1.036  0.00  0.00    +0.110 A 
ATOM      8  C   LIG    1        3.482   2.824  -0.717  0.00  0.00    -0.180 A 
ATOM      9  O   LIG    1        1.720   2.161   2.236  0.00  0.00    -0.500 OA
ATOM     10  C   LIG    1        2.144   2.334  -1.201  0.00  0.00    +0.380 C 
ENDROOT
BRANCH  10  11
ATOM     11  C   LIG    1        2.318   1.089  -2.031  0.00  0.00    -0.080 A 
ATOM     12  C   LIG    1        2.237   1.161  -3.409  0.00  0.00    +0.060 A 
ATOM     13  C   LIG    1        2.397   0.020  -4.173  0.00  0.00    +0.050 A 
ATOM     14  C   LIG    1        2.638  -1.195  -3.558  0.00  0.00    -0.020 A 
ATOM     15  C   LIG    1        2.719  -1.268  -2.177  0.00  0.00    -0.030 A 
ATOM     16 CL   LIG    1        3.022  -2.792  -1.404  0.00  0.00    -0.040 Cl
ATOM     17 CL   LIG    1        2.838  -2.629  -4.516  0.00  0.00    -0.050 Cl
ATOM     18  C   LIG    1        2.564  -0.124  -1.415  0.00  0.00    +0.070 A 
ENDBRANCH  10  11
BRANCH   7  19
ATOM     19  C   LIG    1        5.260   3.494  -2.396  0.00  0.00    -0.070 A 
ATOM     20  C   LIG    1        6.338   2.734  -2.848  0.00  0.00    +0.050 A 
ATOM     21  C   LIG    1        6.836   2.932  -4.120  0.00  0.00    +0.010 A 
ATOM     22  C   LIG    1        6.275   3.889  -4.946  0.00  0.00    +0.040 A 
ATOM     23  C   LIG    1        5.209   4.653  -4.507  0.00  0.00    +0.000 A 
ATOM     24  C   LIG    1        4.696   4.462  -3.235  0.00  0.00    +0.140 A 
BRANCH  24  25
ATOM     25  O   LIG    1        3.649   5.212  -2.803  0.00  0.00    -0.490 OA
ATOM     26  H   LIG    1        3.908   6.032  -2.361  0.00  0.00    +0.390 HD
ENDBRANCH  24  25
ENDBRANCH   7  19
BRANCH   1  27
ATOM     27  C   LIG    1       -0.019   1.526   0.010  0.00  0.00    +0.330 C 
BRANCH  27  28
ATOM     28  C   LIG    1        0.002  -0.004   0.002  0.00  0.00    +0.010 C 
BRANCH  28  29
ATOM     29  C   LIG    1       -1.433  -0.534   0.013  0.00  0.00    +0.170 C 
BRANCH  29  30
ATOM     30  O   LIG    1       -1.414  -1.962   0.005  0.00  0.00    -0.380 OA
BRANCH  30  32
ATOM     31  C   LIG    1       -3.188  -2.767  -1.425  0.00  0.00    +0.010 C 
ATOM     32  C   LIG    1       -2.711  -2.561   0.014  0.00  0.00    +0.140 C 
ATOM     33  C   LIG    1       -2.644  -3.913   0.728  0.00  0.00    +0.040 C 
ENDBRANCH  30  32
ENDBRANCH  29  30
ENDBRANCH  28  29
ENDBRANCH  27  28
ENDBRANCH   1  27
TORSDOF 8
