REMARK  Name = ZINCrD000000BjRx.0
REMARK                            x       y       z     vdW  Elec       q    Type
REMARK                         _______ _______ _______ _____ _____    ______ ____
ROOT
ATOM      1  O   LIG    1        2.088   5.369   0.288  0.00  0.00    -0.570 OA
ATOM      2  C   LIG    1        1.028   5.942   0.128  0.00  0.00    +0.710 C 
ATOM      3  N   LIG    1       -0.115   5.234   0.041  0.00  0.00    -0.690 N 
ATOM      4  H   LIG    1       -0.967   5.693  -0.021  0.00  0.00    +0.410 HD
ATOM      5  N   LIG    1        0.997   7.286   0.036  0.00  0.00    -0.740 N 
ATOM      6  H   LIG    1        0.151   7.744  -0.092  0.00  0.00    +0.400 HD
ENDROOT
BRANCH   3   7
ATOM      7  C   LIG    1       -0.073   3.835   0.040  0.00  0.00    +0.180 A 
ATOM      8  C   LIG    1        0.867   3.167   0.814  0.00  0.00    +0.040 A 
ATOM      9  C   LIG    1        0.908   1.786   0.814  0.00  0.00    +0.050 A 
ATOM     10  C   LIG    1        0.015   1.066   0.043  0.00  0.00    +0.010 A 
ATOM     11  C   LIG    1       -0.922   1.728  -0.737  0.00  0.00    +0.110 A 
ATOM     12  C   LIG    1       -0.970   3.113  -0.735  0.00  0.00    -0.010 A 
BRANCH  11  13
ATOM     13  O   LIG    1       -1.796   1.019  -1.499  0.00  0.00    -0.230 OA
BRANCH  13  14
ATOM     14  C   LIG    1       -1.571   0.955  -2.833  0.00  0.00    +0.490 A 
ATOM     15  N   LIG    1       -0.473   1.502  -3.329  0.00  0.00    -0.550 NA
ATOM     16  C   LIG    1       -0.220   1.454  -4.627  0.00  0.00    +0.360 A 
ATOM     17  C   LIG    1       -1.126   0.830  -5.469  0.00  0.00    -0.110 A 
ATOM     18  C   LIG    1       -2.268   0.273  -4.916  0.00  0.00    +0.370 A 
ATOM     19  N   LIG    1       -2.457   0.352  -3.609  0.00  0.00    -0.520 NA
ENDBRANCH  13  14
ENDBRANCH  11  13
ENDBRANCH   3   7
BRANCH   5  20
ATOM     20  C   LIG    1        2.240   8.056   0.131  0.00  0.00    +0.310 C 
BRANCH  20  21
ATOM     21  C   LIG    1        1.927   9.548  -0.003  0.00  0.00    +0.170 C 
ATOM     22  C   LIG    1        3.230  10.381  -0.036  0.00  0.00    +0.100 C 
ATOM     23  C   LIG    1        2.876  11.478  -1.022  0.00  0.00    -0.170 A 
ATOM     24  C   LIG    1        3.458  12.694  -1.300  0.00  0.00    +0.060 A 
ATOM     25  C   LIG    1        2.901  13.525  -2.256  0.00  0.00    -0.020 A 
ATOM     26  C   LIG    1        1.761  13.128  -2.930  0.00  0.00    +0.050 A 
ATOM     27  C   LIG    1        1.178  11.908  -2.656  0.00  0.00    -0.010 A 
ATOM     28  C   LIG    1        1.734  11.065  -1.698  0.00  0.00    +0.100 A 
ATOM     29  O   LIG    1        1.334   9.832  -1.281  0.00  0.00    -0.300 OA
ENDBRANCH  20  21
ENDBRANCH   5  20
TORSDOF 5
