REMARK  Name = ZINCvU00000007cm.0
REMARK                            x       y       z     vdW  Elec       q    Type
REMARK                         _______ _______ _______ _____ _____    ______ ____
ROOT
ATOM      1  N   LIG    1        3.125   0.692  -1.606  0.00  0.00    -0.930 N 
ATOM      2  C   LIG    1        3.919   1.602  -2.438  0.00  0.00    +0.590 C 
ATOM      3  N   LIG    1        4.014   0.967  -3.757  0.00  0.00    -0.540 N 
ATOM      4  C   LIG    1        3.319  -0.234  -3.691  0.00  0.00    +0.340 A 
ATOM      5  N   LIG    1        3.119  -1.155  -4.617  0.00  0.00    -0.450 NA
ATOM      6  C   LIG    1        2.406  -2.252  -4.328  0.00  0.00    +0.110 A 
ATOM      7  C   LIG    1        2.182  -3.243  -5.296  0.00  0.00    +0.050 A 
ATOM      8  C   LIG    1        1.453  -4.348  -4.977  0.00  0.00    +0.050 A 
ATOM      9  C   LIG    1        0.925  -4.512  -3.700  0.00  0.00    +0.040 A 
ATOM     10  C   LIG    1        1.123  -3.570  -2.735  0.00  0.00    +0.070 A 
ATOM     11  C   LIG    1        1.870  -2.418  -3.028  0.00  0.00    +0.080 A 
ATOM     12  N   LIG    1        2.079  -1.477  -2.098  0.00  0.00    -0.420 NA
ATOM     13  C   LIG    1        2.788  -0.403  -2.392  0.00  0.00    +0.320 A 
ENDROOT
BRANCH   3  14
ATOM     14  C   LIG    1        4.681   1.477  -4.875  0.00  0.00    +0.210 A 
ATOM     15  C   LIG    1        5.332   2.701  -4.798  0.00  0.00    -0.010 A 
ATOM     16  C   LIG    1        5.994   3.202  -5.903  0.00  0.00    +0.090 A 
ATOM     17  C   LIG    1        6.001   2.489  -7.088  0.00  0.00    -0.060 A 
ATOM     18  C   LIG    1        5.348   1.270  -7.170  0.00  0.00    +0.010 A 
ATOM     19 CL   LIG    1        5.357   0.379  -8.660  0.00  0.00    -0.040 Cl
ATOM     20 CL   LIG    1        6.829   3.123  -8.476  0.00  0.00    -0.050 Cl
ATOM     21  C   LIG    1        4.688   0.763  -6.067  0.00  0.00    +0.030 A 
ENDBRANCH   3  14
BRANCH   1  23
ATOM     22  O   LIG    1        3.678   1.814   0.521  0.00  0.00    -0.930 OA
ATOM     23  S   LIG    1        2.713   0.922  -0.019  0.00  0.00    +2.690 S 
ATOM     24  O   LIG    1        2.457  -0.367   0.521  0.00  0.00    -0.900 OA
BRANCH  23  25
ATOM     25  C   LIG    1        1.175   1.783   0.000  0.00  0.00    -0.680 A 
ATOM     26  C   LIG    1       -0.013   1.076   0.008  0.00  0.00    +0.160 A 
ATOM     27  C   LIG    1       -1.219   1.750   0.017  0.00  0.00    +0.020 A 
ATOM     28  C   LIG    1       -1.237   3.134   0.030  0.00  0.00    +0.020 A 
ATOM     29  C   LIG    1       -0.048   3.841   0.022  0.00  0.00    +0.020 A 
ATOM     30 CL   LIG    1       -2.752   3.982   0.049  0.00  0.00    -0.050 Cl
ATOM     31  C   LIG    1        1.157   3.165   0.008  0.00  0.00    +0.140 A 
ENDBRANCH  23  25
ENDBRANCH   1  23
TORSDOF 3
