REMARK  Name = ZINCnE000001PkWo.0
REMARK                            x       y       z     vdW  Elec       q    Type
REMARK                         _______ _______ _______ _____ _____    ______ ____
ROOT
ATOM      1  C   LIG    1        6.026   6.223  -0.031  0.00  0.00    +0.090 C 
ATOM      2  C   LIG    1        4.745   5.428  -0.029  0.00  0.00    -0.110 A 
ATOM      3  C   LIG    1        4.791   4.047  -0.046  0.00  0.00    +0.030 A 
ATOM      4  C   LIG    1        3.621   3.313  -0.045  0.00  0.00    +0.000 A 
ATOM      5  C   LIG    1        2.390   3.965  -0.027  0.00  0.00    -0.050 A 
ATOM      6  C   LIG    1        2.342   5.357  -0.015  0.00  0.00    +0.040 A 
ATOM      7  C   LIG    1        3.521   6.086  -0.011  0.00  0.00    +0.160 A 
ENDROOT
BRANCH   5   8
ATOM      8  C   LIG    1        1.132   3.178  -0.027  0.00  0.00    +0.010 A 
ATOM      9  C   LIG    1        1.159   1.781  -0.044  0.00  0.00    -0.030 A 
ATOM     10  C   LIG    1       -0.034   1.088  -0.044  0.00  0.00    +0.250 A 
ATOM     11  N   LIG    1       -1.188   1.727  -0.032  0.00  0.00    -0.490 NA
ATOM     12  C   LIG    1       -1.258   3.044  -0.010  0.00  0.00    +0.260 A 
ATOM     13  C   LIG    1       -0.113   3.814  -0.009  0.00  0.00    -0.020 A 
ENDBRANCH   5   8
BRANCH   7  14
ATOM     14  N   LIG    1        3.479   7.485   0.006  0.00  0.00    -0.680 N 
ATOM     15  H   LIG    1        4.225   7.997  -0.344  0.00  0.00    +0.410 HD
ATOM     16  C   LIG    1        2.402   8.120   0.509  0.00  0.00    +0.510 C 
ATOM     17  O   LIG    1        1.515   7.484   1.038  0.00  0.00    -0.510 OA
BRANCH  16  18
ATOM     18  C   LIG    1        2.301   9.621   0.416  0.00  0.00    +0.080 C 
BRANCH  18  19
ATOM     19  C   LIG    1        0.992  10.085   1.058  0.00  0.00    -0.120 C 
ATOM     20  C   LIG    1        0.967   9.662   2.528  0.00  0.00    +0.030 C 
ATOM     21  C   LIG    1       -0.190   9.447   0.324  0.00  0.00    +0.010 C 
BRANCH  19  22
ATOM     22  C   LIG    1        0.890  11.585   0.964  0.00  0.00    +0.500 C 
ATOM     23  O   LIG    1        1.902  12.266   0.965  0.00  0.00    -0.700 OA
ATOM     24  O   LIG    1       -0.203  12.119   0.887  0.00  0.00    -0.690 OA
ENDBRANCH  19  22
ENDBRANCH  18  19
ENDBRANCH  16  18
ENDBRANCH   7  14
TORSDOF 5
