REMARK  Name = ZINCvU0000000CrT.0
REMARK                            x       y       z     vdW  Elec       q    Type
REMARK                         _______ _______ _______ _____ _____    ______ ____
ROOT
ATOM      1  N   LIG    1       -6.243   8.931   5.975  0.00  0.00    -0.690 N 
ATOM      2  H   LIG    1       -6.225   9.879   6.179  0.00  0.00    +0.410 HD
ATOM      3  C   LIG    1       -5.290   8.393   5.189  0.00  0.00    +0.710 C 
ATOM      4  N   LIG    1       -4.261   9.152   4.762  0.00  0.00    -0.620 N 
ATOM      5  C   LIG    1       -4.224  10.592   5.047  0.00  0.00    +0.270 C 
ATOM      6  C   LIG    1       -4.032  11.351   3.730  0.00  0.00    +0.020 C 
ATOM      7  C   LIG    1       -2.787  10.820   3.017  0.00  0.00    +0.060 C 
ATOM      8  C   LIG    1       -2.975   9.335   2.696  0.00  0.00    -0.020 C 
ATOM      9  C   LIG    1       -3.155   8.554   4.001  0.00  0.00    +0.320 C 
ATOM     10  O   LIG    1       -5.357   7.223   4.866  0.00  0.00    -0.570 OA
ENDROOT
BRANCH   1  16
ATOM     11  C   LIG    1       -9.308   7.833   9.659  0.00  0.00    +0.100 C 
ATOM     12  C   LIG    1       -8.764   7.568   8.279  0.00  0.00    -0.070 A 
ATOM     13  C   LIG    1       -9.270   6.524   7.526  0.00  0.00    -0.020 A 
ATOM     14  C   LIG    1       -8.773   6.277   6.259  0.00  0.00    +0.030 A 
ATOM     15  C   LIG    1       -7.773   7.076   5.740  0.00  0.00    +0.020 A 
ATOM     16  C   LIG    1       -7.259   8.123   6.496  0.00  0.00    +0.160 A 
ATOM     17  C   LIG    1       -7.761   8.368   7.768  0.00  0.00    -0.030 A 
ENDBRANCH   1  16
BRANCH   8  18
ATOM     18  C   LIG    1       -1.762   8.821   1.965  0.00  0.00    +0.520 C 
ATOM     19  N   LIG    1       -1.704   7.531   1.579  0.00  0.00    -0.720 N 
ATOM     20  H   LIG    1       -2.444   6.933   1.772  0.00  0.00    +0.400 HD
ATOM     21  O   LIG    1       -0.837   9.568   1.724  0.00  0.00    -0.530 OA
BRANCH  19  22
ATOM     22  C   LIG    1       -0.525   7.031   0.869  0.00  0.00    +0.280 C 
ATOM     23  C   LIG    1       -0.670   7.319  -0.627  0.00  0.00    +0.040 C 
BRANCH  22  24
ATOM     24  C   LIG    1       -0.401   5.544   1.084  0.00  0.00    -0.090 A 
ATOM     25  C   LIG    1        0.828   4.996   1.286  0.00  0.00    +0.040 A 
ATOM     26  C   LIG    1        0.947   3.610   1.487  0.00  0.00    -0.050 A 
ATOM     27  C   LIG    1        2.199   3.009   1.698  0.00  0.00    +0.020 A 
ATOM     28  C   LIG    1        2.276   1.663   1.890  0.00  0.00    +0.010 A 
ATOM     29  C   LIG    1        1.130   0.871   1.880  0.00  0.00    +0.010 A 
ATOM     30  C   LIG    1       -0.099   1.418   1.673  0.00  0.00    +0.020 A 
ATOM     31  C   LIG    1       -0.219   2.804   1.477  0.00  0.00    -0.050 A 
ATOM     32  C   LIG    1       -1.471   3.406   1.266  0.00  0.00    +0.030 A 
ATOM     33  C   LIG    1       -1.547   4.752   1.074  0.00  0.00    +0.010 A 
ENDBRANCH  22  24
ENDBRANCH  19  22
ENDBRANCH   8  18
TORSDOF 4
