REMARK  Name = ZINCpk00000y6u86.2
REMARK                            x       y       z     vdW  Elec       q    Type
REMARK                         _______ _______ _______ _____ _____    ______ ____
ROOT
ATOM      1  C   LIG    1       -0.752   1.593  -1.232  0.00  0.00    +0.130 C 
ATOM      2  C   LIG    1       -2.194   1.077  -1.207  0.00  0.00    +0.010 C 
ATOM      3  C   LIG    1       -2.872   1.544   0.085  0.00  0.00    +0.030 C 
ATOM      4  C   LIG    1       -2.071   1.038   1.287  0.00  0.00    +0.160 C 
ATOM      5  N   LIG    1       -0.700   1.559   1.216  0.00  0.00    -0.520 NA
ATOM      6  C   LIG    1       -0.013   1.086   0.008  0.00  0.00    +0.210 C 
ENDROOT
BRANCH   1   7
ATOM      7  O   LIG    1       -0.756   3.022  -1.235  0.00  0.00    -0.530 OA
ATOM      8  H   LIG    1       -1.209   3.412  -1.995  0.00  0.00    +0.370 HD
ENDBRANCH   1   7
BRANCH   5   9
ATOM      9  C   LIG    1        0.059   1.209   2.425  0.00  0.00    +0.260 C 
BRANCH   9  10
ATOM     10  C   LIG    1       -0.538   1.914   3.615  0.00  0.00    -0.220 A 
ATOM     11  C   LIG    1       -0.184   3.136   4.076  0.00  0.00    +0.260 A 
ATOM     12  N   LIG    1       -0.954   3.408   5.154  0.00  0.00    -0.320 N 
ATOM     13  N   LIG    1       -1.802   2.313   5.364  0.00  0.00    -0.290 NA
ATOM     14  C   LIG    1       -1.552   1.419   4.442  0.00  0.00    +0.250 A 
BRANCH  12  15
ATOM     15  C   LIG    1       -0.909   4.577   5.927  0.00  0.00    +0.160 A 
ATOM     16  C   LIG    1       -0.011   5.586   5.609  0.00  0.00    -0.010 A 
ATOM     17  C   LIG    1        0.028   6.739   6.369  0.00  0.00    +0.040 A 
ATOM     18  C   LIG    1       -0.819   6.883   7.452  0.00  0.00    +0.000 A 
ATOM     19  C   LIG    1       -1.710   5.877   7.775  0.00  0.00    +0.030 A 
ATOM     20  C   LIG    1       -1.758   4.724   7.016  0.00  0.00    +0.020 A 
ENDBRANCH  12  15
ENDBRANCH   9  10
ENDBRANCH   5   9
BRANCH   1  21
ATOM     21  C   LIG    1       -0.049   1.081  -2.491  0.00  0.00    +0.310 C 
BRANCH  21  22
ATOM     22  N   LIG    1       -0.758   1.566  -3.678  0.00  0.00    -0.290 N 
ATOM     23  C   LIG    1       -0.209   2.266  -4.698  0.00  0.00    +0.140 A 
ATOM     24  C   LIG    1       -1.214   2.507  -5.573  0.00  0.00    +0.140 A 
ATOM     25  N   LIG    1       -2.313   1.950  -5.052  0.00  0.00    -0.270 NA
ATOM     26  N   LIG    1       -2.008   1.396  -3.932  0.00  0.00    -0.080 NA
ENDBRANCH  21  22
ENDBRANCH   1  21
TORSDOF 6
