REMARK  Name = ZINCvU0000000DFH.0
REMARK                            x       y       z     vdW  Elec       q    Type
REMARK                         _______ _______ _______ _____ _____    ______ ____
ROOT
ATOM      1  C   LIG    1        1.117   1.703   0.007  0.00  0.00    +0.520 C 
ATOM      2  N   LIG    1       -0.011   0.966   0.007  0.00  0.00    -0.680 N 
ATOM      3  H   LIG    1        0.042  -0.003   0.004  0.00  0.00    +0.410 HD
ATOM      4  O   LIG    1        1.052   2.911  -0.073  0.00  0.00    -0.490 OA
ENDROOT
BRANCH   2   5
ATOM      5  C   LIG    1       -1.259   1.598   0.006  0.00  0.00    +0.150 A 
ATOM      6  C   LIG    1       -2.325   1.030   0.694  0.00  0.00    -0.010 A 
ATOM      7  C   LIG    1       -3.555   1.653   0.699  0.00  0.00    +0.040 A 
ATOM      8  C   LIG    1       -3.732   2.849   0.004  0.00  0.00    -0.030 A 
ATOM      9  C   LIG    1       -2.663   3.414  -0.690  0.00  0.00    +0.060 A 
ATOM     10  C   LIG    1       -1.433   2.789  -0.687  0.00  0.00    +0.020 A 
BRANCH   8  11
ATOM     11  C   LIG    1       -5.056   3.518   0.002  0.00  0.00    +0.090 A 
ATOM     12  C   LIG    1       -6.171   3.077   0.632  0.00  0.00    +0.150 A 
ATOM     13  N   LIG    1       -7.182   3.995   0.375  0.00  0.00    -0.420 N 
ATOM     14  C   LIG    1       -8.511   4.182   0.680  0.00  0.00    +0.220 A 
ATOM     15  C   LIG    1       -9.128   5.249   0.204  0.00  0.00    +0.010 A 
ATOM     16  S   LIG    1       -7.907   6.127  -0.734  0.00  0.00    +0.160 S 
ATOM     17  C   LIG    1       -6.619   4.957  -0.407  0.00  0.00    +0.160 A 
ATOM     18  N   LIG    1       -5.357   4.674  -0.623  0.00  0.00    -0.440 NA
ENDBRANCH   8  11
ENDBRANCH   2   5
BRANCH   1  19
ATOM     19  C   LIG    1        2.460   1.025   0.106  0.00  0.00    +0.160 C 
BRANCH  19  22
ATOM     20  C   LIG    1        4.633   3.803  -0.802  0.00  0.00    +0.130 A 
ATOM     21  N   LIG    1        3.656   2.945  -0.885  0.00  0.00    -0.440 NA
ATOM     22  C   LIG    1        3.550   2.065   0.085  0.00  0.00    +0.090 A 
ATOM     23  C   LIG    1        4.473   2.146   1.049  0.00  0.00    -0.070 A 
ATOM     24  S   LIG    1        5.559   3.480   0.662  0.00  0.00    +0.090 S 
BRANCH  20  28
ATOM     25  C   LIG    1        5.465   6.873  -3.618  0.00  0.00    +0.150 A 
ATOM     26  C   LIG    1        6.274   6.722  -2.499  0.00  0.00    -0.010 A 
ATOM     27  C   LIG    1        6.007   5.727  -1.583  0.00  0.00    +0.070 A 
ATOM     28  C   LIG    1        4.922   4.871  -1.781  0.00  0.00    -0.070 A 
ATOM     29  C   LIG    1        4.114   5.023  -2.909  0.00  0.00    +0.120 A 
ATOM     30  C   LIG    1        4.385   6.024  -3.818  0.00  0.00    -0.070 A 
BRANCH  25  32
ATOM     31  C   LIG    1        4.859   7.954  -5.646  0.00  0.00    +0.240 C 
ATOM     32  O   LIG    1        5.731   7.855  -4.519  0.00  0.00    -0.310 OA
ENDBRANCH  25  32
ENDBRANCH  20  28
ENDBRANCH  19  22
ENDBRANCH   1  19
TORSDOF 6
