REMARK  Name = ZINCpk00000xI6we.0
REMARK                            x       y       z     vdW  Elec       q    Type
REMARK                         _______ _______ _______ _____ _____    ______ ____
ROOT
ATOM      1  S   LIG    1        2.890   1.794  -0.044  0.00  0.00    +2.710 S 
ATOM      2  O   LIG    1        3.088   0.477   0.451  0.00  0.00    -0.950 OA
ATOM      3  O   LIG    1        3.498   2.942   0.535  0.00  0.00    -0.960 OA
ENDROOT
BRANCH   1   4
ATOM      4  C   LIG    1        1.152   2.082  -0.012  0.00  0.00    -0.750 A 
ATOM      5  C   LIG    1        0.545   3.292   0.039  0.00  0.00    +0.330 A 
ATOM      6  N   LIG    1       -0.798   3.109   0.049  0.00  0.00    -0.400 N 
ATOM      7  C   LIG    1       -1.058   1.758  -0.002  0.00  0.00    -0.060 A 
ATOM      8  C   LIG    1       -1.805   4.171   0.100  0.00  0.00    +0.350 C 
ATOM      9  C   LIG    1        0.155   1.103  -0.035  0.00  0.00    +0.120 A 
BRANCH   7  10
ATOM     10  C   LIG    1       -2.383   1.130  -0.017  0.00  0.00    +0.600 C 
ATOM     11  O   LIG    1       -3.383   1.820  -0.089  0.00  0.00    -0.550 OA
ATOM     12  N   LIG    1       -2.494  -0.211   0.051  0.00  0.00    -0.840 N 
ATOM     13  H   LIG    1       -3.365  -0.631  -0.032  0.00  0.00    +0.410 HD
ATOM     14  H   LIG    1       -1.703  -0.757   0.183  0.00  0.00    +0.410 HD
ENDBRANCH   7  10
ENDBRANCH   1   4
BRANCH   1  15
ATOM     15  N   LIG    1        3.354   1.771  -1.633  0.00  0.00    -0.980 NA
BRANCH  15  16
ATOM     16  C   LIG    1        3.767   3.012  -2.294  0.00  0.00    +0.310 C 
ATOM     17  C   LIG    1        5.195   2.866  -2.862  0.00  0.00    +0.050 C 
ATOM     18  C   LIG    1        5.126   3.710  -4.152  0.00  0.00    +0.090 C 
ATOM     19  C   LIG    1        3.670   3.685  -4.564  0.00  0.00    -0.090 A 
ATOM     20  C   LIG    1        3.075   3.990  -5.777  0.00  0.00    +0.010 A 
ATOM     21  C   LIG    1        1.705   3.894  -5.923  0.00  0.00    +0.010 A 
ATOM     22  C   LIG    1        0.924   3.493  -4.855  0.00  0.00    -0.010 A 
ATOM     23  C   LIG    1        1.516   3.189  -3.644  0.00  0.00    +0.030 A 
ATOM     24  C   LIG    1        2.889   3.284  -3.496  0.00  0.00    -0.110 A 
ENDBRANCH  15  16
BRANCH  15  25
ATOM     25  C   LIG    1        3.351   0.510  -2.379  0.00  0.00    +0.450 C 
BRANCH  25  27
ATOM     26  C   LIG    1        1.070   0.270  -3.697  0.00  0.00    +0.030 C 
ATOM     27  C   LIG    1        2.082   0.376  -3.112  0.00  0.00    -0.210 C 
ENDBRANCH  25  27
ENDBRANCH  15  25
ENDBRANCH   1  15
TORSDOF 6
