REMARK  Name = ZINCpe000000TtlA.0
REMARK                            x       y       z     vdW  Elec       q    Type
REMARK                         _______ _______ _______ _____ _____    ______ ____
ROOT
ATOM      1  N   LIG    1        6.612  -0.479   3.081  0.00  0.00    -1.010 NA
ATOM      2  C   LIG    1        7.255  -0.592   1.763  0.00  0.00    +0.300 C 
ATOM      3  C   LIG    1        6.599   0.416   0.814  0.00  0.00    +0.170 C 
ATOM      4  N   LIG    1        5.145   0.209   0.814  0.00  0.00    -0.520 NA
ATOM      5  C   LIG    1        4.570   0.466   2.141  0.00  0.00    +0.180 C 
ATOM      6  C   LIG    1        5.143  -0.540   3.145  0.00  0.00    +0.310 C 
ENDROOT
BRANCH   1   7
ATOM      7  S   LIG    1        7.516  -0.289   4.455  0.00  0.00    +2.780 S 
ATOM      8  O   LIG    1        6.629   0.193   5.455  0.00  0.00    -0.970 OA
ATOM      9  O   LIG    1        8.697   0.398   4.067  0.00  0.00    -0.970 OA
BRANCH   7  10
ATOM     10  N   LIG    1        7.992  -1.799   4.942  0.00  0.00    -1.010 NA
BRANCH  10  12
ATOM     11  C   LIG    1       10.364  -2.087   5.459  0.00  0.00    +0.020 C 
ATOM     12  C   LIG    1        9.250  -2.365   4.449  0.00  0.00    +0.280 C 
ENDBRANCH  10  12
BRANCH  10  13
ATOM     13  C   LIG    1        7.154  -2.570   5.865  0.00  0.00    +0.280 C 
ATOM     14  C   LIG    1        6.252  -3.514   5.068  0.00  0.00    +0.020 C 
ENDBRANCH  10  13
ENDBRANCH   7  10
ENDBRANCH   1   7
BRANCH   4  15
ATOM     15  C   LIG    1        4.495   1.037  -0.210  0.00  0.00    +0.200 C 
BRANCH  15  16
ATOM     16  C   LIG    1        3.052   0.624  -0.350  0.00  0.00    +0.510 C 
ATOM     17  N   LIG    1        2.255   1.250  -1.238  0.00  0.00    -0.730 N 
ATOM     18  H   LIG    1        2.609   1.968  -1.786  0.00  0.00    +0.400 HD
ATOM     19  O   LIG    1        2.610  -0.273   0.336  0.00  0.00    -0.520 OA
BRANCH  17  20
ATOM     20  C   LIG    1        0.852   0.849  -1.373  0.00  0.00    +0.240 C 
ATOM     21  C   LIG    1        0.010   1.576  -0.324  0.00  0.00    +0.000 C 
ATOM     22  C   LIG    1       -1.455   1.156  -0.465  0.00  0.00    +0.010 C 
ATOM     23  C   LIG    1       -1.957   1.520  -1.864  0.00  0.00    +0.000 C 
ATOM     24  C   LIG    1       -1.114   0.793  -2.914  0.00  0.00    +0.030 C 
ATOM     25  C   LIG    1        0.351   1.212  -2.772  0.00  0.00    -0.030 C 
ATOM     26  C   LIG    1        1.194   0.485  -3.821  0.00  0.00    +0.020 C 
ENDBRANCH  17  20
ENDBRANCH  15  16
ENDBRANCH   4  15
TORSDOF 7
