REMARK  Name = ZINCpe00000MJJsX.0
REMARK                            x       y       z     vdW  Elec       q    Type
REMARK                         _______ _______ _______ _____ _____    ______ ____
ROOT
ATOM      1  C   LIG    1        1.385  -1.810  -0.848  0.00  0.00    +0.180 C 
ATOM      2  C   LIG    1        1.390  -0.515  -0.014  0.00  0.00    +0.220 C 
ATOM      3  N   LIG    1        0.002  -0.004   0.002  0.00  0.00    -0.450 N 
ATOM      4  C   LIG    1       -0.640  -0.538  -1.226  0.00  0.00    +0.190 C 
ATOM      5  C   LIG    1       -0.077  -1.978  -1.323  0.00  0.00    +0.200 C 
ENDROOT
BRANCH   3   6
ATOM      6  C   LIG    1       -0.017   1.381   0.010  0.00  0.00    +0.370 A 
ATOM      7  C   LIG    1       -1.230   2.073   0.019  0.00  0.00    -0.120 A 
ATOM      8  C   LIG    1       -1.200   3.454   0.032  0.00  0.00    +0.360 A 
ATOM      9  N   LIG    1       -0.031   4.078   0.024  0.00  0.00    -0.570 NA
ATOM     10  C   LIG    1        1.105   3.395   0.010  0.00  0.00    +0.520 A 
ATOM     11  N   LIG    1        1.119   2.071   0.003  0.00  0.00    -0.560 NA
BRANCH  10  12
ATOM     12  N   LIG    1        2.305   4.084   0.003  0.00  0.00    -0.460 N 
ATOM     13  C   LIG    1        3.155   3.671   1.126  0.00  0.00    +0.200 C 
ATOM     14  C   LIG    1        4.526   4.341   1.004  0.00  0.00    +0.040 C 
ATOM     15  C   LIG    1        4.346   5.862   1.008  0.00  0.00    +0.000 C 
ATOM     16  C   LIG    1        3.418   6.261  -0.143  0.00  0.00    +0.030 C 
ATOM     17  C   LIG    1        2.080   5.535   0.012  0.00  0.00    +0.210 C 
ENDBRANCH  10  12
ENDBRANCH   3   6
BRANCH   5  18
ATOM     18  O   LIG    1       -0.118  -2.447  -2.672  0.00  0.00    -0.550 OA
ATOM     19  H   LIG    1       -1.013  -2.570  -3.019  0.00  0.00    +0.390 HD
ENDBRANCH   5  18
BRANCH   1  20
ATOM     20  O   LIG    1        1.776  -2.922  -0.039  0.00  0.00    -0.290 OA
BRANCH  20  24
ATOM     21  C   LIG    1        6.010  -5.125   0.993  0.00  0.00    +0.370 C 
ATOM     22  N   LIG    1        5.009  -4.211   0.439  0.00  0.00    -0.370 N 
ATOM     23  C   LIG    1        3.673  -4.240   0.689  0.00  0.00    +0.200 A 
ATOM     24  C   LIG    1        3.103  -3.232  -0.015  0.00  0.00    -0.030 A 
ATOM     25  C   LIG    1        4.119  -2.562  -0.709  0.00  0.00    +0.180 A 
ATOM     26  N   LIG    1        5.258  -3.147  -0.438  0.00  0.00    -0.270 NA
ENDBRANCH  20  24
ENDBRANCH   1  20
TORSDOF 5
