REMARK  Name = ZINCvU0000000ErO.0
REMARK                            x       y       z     vdW  Elec       q    Type
REMARK                         _______ _______ _______ _____ _____    ______ ____
ROOT
ATOM      1  O   LIG    1        1.441   5.547  -1.177  0.00  0.00    -0.500 OA
ATOM      2  C   LIG    1        2.433   5.074  -0.662  0.00  0.00    +0.520 C 
ATOM      3  N   LIG    1        2.355   3.904   0.001  0.00  0.00    -0.660 N 
ATOM      4  H   LIG    1        3.133   3.558   0.467  0.00  0.00    +0.420 HD
ENDROOT
BRANCH   3   5
ATOM      5  C   LIG    1        1.152   3.186   0.018  0.00  0.00    +0.170 A 
ATOM      6  C   LIG    1       -0.059   3.860   0.036  0.00  0.00    +0.090 A 
ATOM      7  C   LIG    1       -1.246   3.150   0.052  0.00  0.00    -0.170 A 
ATOM      8  C   LIG    1       -1.229   1.768   0.046  0.00  0.00    +0.060 A 
ATOM      9  C   LIG    1       -0.026   1.087   0.034  0.00  0.00    +0.010 A 
ATOM     10  C   LIG    1        1.169   1.791   0.017  0.00  0.00    +0.090 A 
BRANCH  10  11
ATOM     11  N   LIG    1        2.388   1.105  -0.002  0.00  0.00    -0.500 N 
ATOM     12  C   LIG    1        2.535   0.328  -1.239  0.00  0.00    +0.180 C 
ATOM     13  C   LIG    1        3.934  -0.290  -1.291  0.00  0.00    +0.020 C 
ATOM     14  C   LIG    1        4.133  -1.195  -0.072  0.00  0.00    +0.010 C 
ATOM     15  C   LIG    1        3.926  -0.372   1.203  0.00  0.00    +0.020 C 
ATOM     16  C   LIG    1        2.527   0.248   1.183  0.00  0.00    +0.180 C 
ENDBRANCH  10  11
BRANCH   7  17
ATOM     17  C   LIG    1       -2.561   3.885   0.072  0.00  0.00    +0.510 C 
ATOM     18  F   LIG    1       -2.402   5.109   0.730  0.00  0.00    -0.180 F 
ATOM     19  F   LIG    1       -3.516   3.115   0.744  0.00  0.00    -0.180 F 
ATOM     20  F   LIG    1       -2.987   4.114  -1.241  0.00  0.00    -0.170 F 
ENDBRANCH   7  17
ENDBRANCH   3   5
BRANCH   2  21
ATOM     21  C   LIG    1        3.752   5.796  -0.765  0.00  0.00    +0.180 C 
BRANCH  21  22
ATOM     22  C   LIG    1        3.567   7.069  -1.551  0.00  0.00    +0.080 A 
ATOM     23  C   LIG    1        3.923   8.264  -1.063  0.00  0.00    -0.060 A 
ATOM     24  S   LIG    1        3.550   9.487  -2.276  0.00  0.00    +0.110 S 
ATOM     25  C   LIG    1        2.936   8.230  -3.347  0.00  0.00    +0.110 A 
ATOM     26  N   LIG    1        3.054   7.074  -2.758  0.00  0.00    -0.400 NA
BRANCH  25  27
ATOM     27  C   LIG    1        2.381   8.450  -4.700  0.00  0.00    +0.190 A 
ATOM     28  C   LIG    1        2.310   9.745  -5.216  0.00  0.00    -0.010 A 
ATOM     29  C   LIG    1        1.793   9.934  -6.486  0.00  0.00    +0.070 A 
ATOM     30  C   LIG    1        1.353   8.825  -7.194  0.00  0.00    -0.020 A 
ATOM     31  C   LIG    1        1.448   7.571  -6.620  0.00  0.00    +0.270 A 
ATOM     32  N   LIG    1        1.949   7.416  -5.412  0.00  0.00    -0.440 NA
ENDBRANCH  25  27
ENDBRANCH  21  22
ENDBRANCH   2  21
TORSDOF 6
