REMARK  Name = ZINC9l0000002jrJ.0
REMARK                            x       y       z     vdW  Elec       q    Type
REMARK                         _______ _______ _______ _____ _____    ______ ____
ROOT
ATOM      1  C   LIG    1       -2.707  -0.129  -0.217  0.00  0.00    +0.080 C 
ATOM      2  C   LIG    1       -2.486   1.355  -0.080  0.00  0.00    -0.140 C 
ATOM      3  C   LIG    1       -1.295   1.936   0.013  0.00  0.00    -0.180 C 
ATOM      4  C   LIG    1       -1.439   3.436   0.132  0.00  0.00    +0.050 C 
ATOM      5  C   LIG    1       -2.916   3.661   0.530  0.00  0.00    -0.010 C 
ATOM      6  C   LIG    1       -3.589   2.386  -0.026  0.00  0.00    +0.030 C 
ENDROOT
BRANCH   3   7
ATOM      7  C   LIG    1       -0.014   1.221  -0.004  0.00  0.00    +0.530 C 
ATOM      8  O   LIG    1        1.037   1.847  -0.017  0.00  0.00    -0.690 OA
ATOM      9  O   LIG    1        0.003  -0.003  -0.011  0.00  0.00    -0.680 OA
ENDBRANCH   3   7
TORSDOF 1
