REMARK  Name = ZINCqH00000509Mu.0
REMARK                            x       y       z     vdW  Elec       q    Type
REMARK                         _______ _______ _______ _____ _____    ______ ____
ROOT
ATOM      1  N   LIG    1        1.306  -0.394  -0.013  0.00  0.00    -0.340 N 
ATOM      2  N   LIG    1        2.098   0.761  -0.014  0.00  0.00    -0.280 NA
ATOM      3  C   LIG    1        1.308   1.804  -0.001  0.00  0.00    +0.100 A 
ATOM      4  C   LIG    1       -0.016   1.357   0.009  0.00  0.00    -0.080 A 
ATOM      5  C   LIG    1        1.751   3.245   0.003  0.00  0.00    +0.170 C 
ATOM      6  C   LIG    1        0.002  -0.004   0.002  0.00  0.00    +0.310 A 
ENDROOT
BRANCH   1  12
ATOM      7  C   LIG    1        0.796  -5.077   1.402  0.00  0.00    +0.100 C 
ATOM      8  C   LIG    1        1.545  -4.004   0.654  0.00  0.00    -0.050 A 
ATOM      9  C   LIG    1        2.694  -4.324  -0.046  0.00  0.00    +0.000 A 
ATOM     10  C   LIG    1        3.383  -3.343  -0.735  0.00  0.00    -0.050 A 
ATOM     11  C   LIG    1        2.926  -2.040  -0.726  0.00  0.00    +0.020 A 
ATOM     12  C   LIG    1        1.773  -1.716  -0.024  0.00  0.00    +0.170 A 
ATOM     13  C   LIG    1        4.635  -3.696  -1.496  0.00  0.00    +0.100 C 
ATOM     14  C   LIG    1        1.086  -2.702   0.672  0.00  0.00    -0.040 A 
ENDBRANCH   1  12
BRANCH   6  15
ATOM     15  N   LIG    1       -1.110  -0.844   0.009  0.00  0.00    -0.650 N 
ATOM     16  H   LIG    1       -0.991  -1.806   0.003  0.00  0.00    +0.410 HD
ATOM     17  C   LIG    1       -2.351  -0.319   0.023  0.00  0.00    +0.560 C 
ATOM     18  O   LIG    1       -2.500   0.888   0.031  0.00  0.00    -0.490 OA
BRANCH  17  19
ATOM     19  C   LIG    1       -3.530  -1.209   0.030  0.00  0.00    -0.100 A 
ATOM     20  C   LIG    1       -3.362  -2.595   0.016  0.00  0.00    +0.020 A 
ATOM     21  C   LIG    1       -4.468  -3.421   0.029  0.00  0.00    +0.080 A 
ATOM     22  C   LIG    1       -5.740  -2.878   0.044  0.00  0.00    -0.440 A 
ATOM     23  C   LIG    1       -5.914  -1.506   0.052  0.00  0.00    +0.100 A 
ATOM     24  C   LIG    1       -4.817  -0.669   0.045  0.00  0.00    +0.080 A 
BRANCH  22  25
ATOM     25  S   LIG    1       -7.146  -3.940   0.053  0.00  0.00    +1.340 S 
ATOM     26  O   LIG    1       -6.633  -5.146   0.602  0.00  0.00    -0.850 OA
ATOM     27  C   LIG    1       -7.490  -4.178  -1.712  0.00  0.00    -0.200 C 
ENDBRANCH  22  25
ENDBRANCH  17  19
ENDBRANCH   6  15
TORSDOF 4
