REMARK  Name = ZINCrD00000rNfqw.0
REMARK                            x       y       z     vdW  Elec       q    Type
REMARK                         _______ _______ _______ _____ _____    ______ ____
ROOT
ATOM      1  C   LIG    1        8.400   3.378   0.706  0.00  0.00    -0.010 C 
ATOM      2  C   LIG    1        8.299   1.855   0.807  0.00  0.00    +0.060 C 
ATOM      3  C   LIG    1        7.346   1.337  -0.276  0.00  0.00    +0.280 C 
ATOM      4  N   LIG    1        6.061   2.037  -0.148  0.00  0.00    -0.610 N 
ATOM      5  C   LIG    1        6.053   3.506  -0.147  0.00  0.00    +0.280 C 
ATOM      6  C   LIG    1        4.910   1.345  -0.039  0.00  0.00    +0.550 C 
ATOM      7  O   LIG    1        4.936   0.131   0.050  0.00  0.00    -0.540 OA
ATOM      8  C   LIG    1        7.021   3.999   0.939  0.00  0.00    +0.030 C 
ENDROOT
BRANCH   1  10
ATOM      9  O   LIG    1        9.914   3.109   2.496  0.00  0.00    -0.530 OA
ATOM     10  C   LIG    1        9.363   3.888   1.747  0.00  0.00    +0.520 C 
ATOM     11  N   LIG    1        9.611   5.209   1.847  0.00  0.00    -0.730 N 
ATOM     12  H   LIG    1        9.171   5.832   1.247  0.00  0.00    +0.400 HD
BRANCH  11  13
ATOM     13  C   LIG    1       10.547   5.704   2.859  0.00  0.00    +0.320 C 
BRANCH  13  14
ATOM     14  C   LIG    1       10.647   7.204   2.760  0.00  0.00    -0.110 A 
ATOM     15  C   LIG    1       11.598   7.781   1.940  0.00  0.00    +0.020 A 
ATOM     16  C   LIG    1       11.687   9.157   1.845  0.00  0.00    +0.010 A 
ATOM     17  C   LIG    1       10.830   9.957   2.579  0.00  0.00    +0.010 A 
ATOM     18  C   LIG    1        9.882   9.380   3.403  0.00  0.00    +0.000 A 
ATOM     19  C   LIG    1        9.791   8.004   3.494  0.00  0.00    +0.020 A 
ENDBRANCH  13  14
ENDBRANCH  11  13
ENDBRANCH   1  10
BRANCH   6  20
ATOM     20  C   LIG    1        3.628   2.051  -0.027  0.00  0.00    -0.080 C 
ATOM     21  C   LIG    1        2.473   1.355  -0.020  0.00  0.00    +0.120 C 
BRANCH  21  22
ATOM     22  C   LIG    1        1.186   2.065  -0.008  0.00  0.00    -0.110 A 
ATOM     23  C   LIG    1        1.154   3.463  -0.006  0.00  0.00    +0.070 A 
ATOM     24  C   LIG    1       -0.057   4.122   0.005  0.00  0.00    +0.000 A 
ATOM     25  C   LIG    1       -1.241   3.405   0.013  0.00  0.00    +0.060 A 
ATOM     26  C   LIG    1       -1.221   2.022   0.004  0.00  0.00    -0.020 A 
ATOM     27  C   LIG    1       -0.016   1.345  -0.000  0.00  0.00    +0.120 A 
ATOM     28  F   LIG    1        0.003  -0.006  -0.003  0.00  0.00    -0.130 F 
ENDBRANCH  21  22
ENDBRANCH   6  20
TORSDOF 5
