REMARK  Name = ZINCtV000002qbOk.0
REMARK                            x       y       z     vdW  Elec       q    Type
REMARK                         _______ _______ _______ _____ _____    ______ ____
ROOT
ATOM      1  C   LIG    1       -4.622   1.181  -4.085  0.00  0.00    +0.030 A 
ATOM      2  N   LIG    1       -4.456   2.301  -4.763  0.00  0.00    -0.200 NA
ATOM      3  N   LIG    1       -5.280   2.349  -5.746  0.00  0.00    -0.210 N 
ATOM      4  C   LIG    1       -6.058   1.232  -5.759  0.00  0.00    -0.020 A 
ATOM      5  C   LIG    1       -7.183   0.556  -6.510  0.00  0.00    +0.130 C 
ATOM      6  C   LIG    1       -7.720  -0.522  -5.542  0.00  0.00    +0.060 C 
ATOM      7  C   LIG    1       -6.485  -0.799  -4.654  0.00  0.00    +0.120 C 
ATOM      8  C   LIG    1       -5.668   0.468  -4.716  0.00  0.00    -0.140 A 
ENDROOT
BRANCH   3   9
ATOM      9  C   LIG    1       -5.370   3.400  -6.669  0.00  0.00    +0.150 A 
ATOM     10  C   LIG    1       -6.301   3.345  -7.697  0.00  0.00    +0.050 A 
ATOM     11  C   LIG    1       -6.391   4.385  -8.602  0.00  0.00    +0.080 A 
ATOM     12  C   LIG    1       -5.546   5.475  -8.493  0.00  0.00    -0.030 A 
ATOM     13  C   LIG    1       -4.612   5.530  -7.473  0.00  0.00    +0.080 A 
ATOM     14 CL   LIG    1       -5.657   6.776  -9.636  0.00  0.00    -0.040 Cl
ATOM     15  C   LIG    1       -4.521   4.496  -6.561  0.00  0.00    -0.030 A 
ATOM     16 CL   LIG    1       -3.351   4.565  -5.281  0.00  0.00    -0.000 Cl
ENDBRANCH   3   9
BRANCH   1  17
ATOM     17  C   LIG    1       -3.866   0.757  -2.891  0.00  0.00    +0.560 C 
ATOM     18  O   LIG    1       -4.123  -0.302  -2.354  0.00  0.00    -0.490 OA
BRANCH  17  19
ATOM     19  O   LIG    1       -2.890   1.544  -2.397  0.00  0.00    -0.340 OA
BRANCH  19  23
ATOM     20  C   LIG    1       -0.729   1.579   1.267  0.00  0.00    -0.010 C 
ATOM     21  C   LIG    1       -0.013   1.086   0.008  0.00  0.00    +0.040 C 
ATOM     22  C   LIG    1       -0.753   1.593  -1.232  0.00  0.00    +0.030 C 
ATOM     23  C   LIG    1       -2.188   1.063  -1.221  0.00  0.00    +0.180 C 
ATOM     24  C   LIG    1       -2.904   1.556   0.038  0.00  0.00    +0.010 C 
ATOM     25  C   LIG    1       -2.164   1.050   1.278  0.00  0.00    +0.030 C 
BRANCH  20  27
ATOM     26  C   LIG    1        1.446   1.602   2.495  0.00  0.00    +0.020 C 
ATOM     27  C   LIG    1        0.011   1.072   2.506  0.00  0.00    -0.060 C 
ATOM     28  C   LIG    1        0.032  -0.457   2.498  0.00  0.00    +0.020 C 
ATOM     29  C   LIG    1       -0.705   1.566   3.765  0.00  0.00    +0.020 C 
ENDBRANCH  20  27
ENDBRANCH  19  23
ENDBRANCH  17  19
ENDBRANCH   1  17
TORSDOF 5
