REMARK  Name = ZINCrH00000tj0o2.0
REMARK                            x       y       z     vdW  Elec       q    Type
REMARK                         _______ _______ _______ _____ _____    ______ ____
ROOT
ATOM      1  N   LIG    1        2.890   1.455  -1.399  0.00  0.00    -0.570 N 
ATOM      2  C   LIG    1        2.564   0.374  -2.140  0.00  0.00    +0.500 C 
ATOM      3  C   LIG    1        3.213   0.595  -3.474  0.00  0.00    +0.510 C 
ATOM      4  N   LIG    1        3.855   1.778  -3.370  0.00  0.00    -0.570 N 
ATOM      5  O   LIG    1        3.172  -0.136  -4.441  0.00  0.00    -0.410 OA
ATOM      6  O   LIG    1        1.889  -0.574  -1.800  0.00  0.00    -0.390 OA
ATOM      7  C   LIG    1        3.655   2.274  -2.138  0.00  0.00    +0.710 C 
ATOM      8  O   LIG    1        4.109   3.329  -1.743  0.00  0.00    -0.470 OA
ENDROOT
BRANCH   1   9
ATOM      9  C   LIG    1        2.481   1.692  -0.013  0.00  0.00    +0.420 C 
BRANCH   9  13
ATOM     10  C   LIG    1       -2.521   1.651   0.023  0.00  0.00    +0.120 C 
ATOM     11  C   LIG    1       -1.214   2.400   0.021  0.00  0.00    -0.010 A 
ATOM     12  C   LIG    1       -0.021   1.732   0.012  0.00  0.00    -0.090 A 
ATOM     13  C   LIG    1        1.176   2.446   0.004  0.00  0.00    +0.140 A 
ATOM     14  N   LIG    1        1.197   3.757   0.010  0.00  0.00    -0.430 NA
ATOM     15  C   LIG    1        0.066   4.470   0.024  0.00  0.00    +0.130 A 
ATOM     16  C   LIG    1        0.096   5.875   0.031  0.00  0.00    +0.050 A 
ATOM     17  C   LIG    1       -1.072   6.575   0.045  0.00  0.00    +0.040 A 
ATOM     18  C   LIG    1       -2.302   5.921   0.053  0.00  0.00    +0.030 A 
ATOM     19  C   LIG    1       -2.370   4.561   0.048  0.00  0.00    +0.040 A 
ATOM     20 CL   LIG    1        0.002  -0.004   0.002  0.00  0.00    -0.020 Cl
ATOM     21  C   LIG    1       -1.186   3.807   0.033  0.00  0.00    -0.090 A 
ENDBRANCH   9  13
ENDBRANCH   1   9
BRANCH   4  22
ATOM     22  C   LIG    1        4.643   2.417  -4.428  0.00  0.00    +0.430 C 
BRANCH  22  23
ATOM     23  C   LIG    1        6.076   1.962  -4.331  0.00  0.00    -0.230 A 
ATOM     24  C   LIG    1        6.587   0.893  -4.943  0.00  0.00    +0.040 A 
ATOM     25  C   LIG    1        7.934   0.674  -4.708  0.00  0.00    +0.000 A 
ATOM     26  C   LIG    1        8.514   1.560  -3.897  0.00  0.00    -0.030 A 
ATOM     27  S   LIG    1        7.330   2.756  -3.386  0.00  0.00    +0.140 S 
ENDBRANCH  22  23
ENDBRANCH   4  22
TORSDOF 4
