REMARK  Name = ZINCqH0000001UyB.0
REMARK                            x       y       z     vdW  Elec       q    Type
REMARK                         _______ _______ _______ _____ _____    ______ ____
ROOT
ATOM      1  N   LIG    1        4.912   0.203  -0.722  0.00  0.00    -0.710 N 
ATOM      2  H   LIG    1        4.225  -0.333  -0.296  0.00  0.00    +0.400 HD
ATOM      3  C   LIG    1        4.774   1.541  -0.795  0.00  0.00    +0.560 C 
ATOM      4  O   LIG    1        5.586   2.202  -1.407  0.00  0.00    -0.530 OA
ENDROOT
BRANCH   1  10
ATOM      5  C   LIG    1        7.906  -4.979  -3.944  0.00  0.00    +0.030 C 
ATOM      6  C   LIG    1        7.691  -4.467  -2.518  0.00  0.00    +0.100 C 
ATOM      7  C   LIG    1        6.340  -3.725  -2.424  0.00  0.00    +0.030 C 
ATOM      8  C   LIG    1        6.737  -2.284  -2.075  0.00  0.00    -0.110 C 
ATOM      9  C   LIG    1        6.409  -1.817  -0.663  0.00  0.00    +0.040 C 
ATOM     10  C   LIG    1        6.100  -0.443  -1.287  0.00  0.00    +0.240 C 
ATOM     11  C   LIG    1        8.215  -2.204  -2.490  0.00  0.00    +0.230 C 
ATOM     12  C   LIG    1        5.828  -1.183  -2.611  0.00  0.00    +0.040 C 
ATOM     13  C   LIG    1        7.715  -5.639  -1.535  0.00  0.00    +0.050 C 
ATOM     14  O   LIG    1        8.722  -3.522  -2.178  0.00  0.00    -0.370 OA
ENDBRANCH   1  10
BRANCH   3  15
ATOM     15  C   LIG    1        3.610   2.217  -0.117  0.00  0.00    -0.130 C 
ATOM     16  C   LIG    1        3.739   2.515   1.378  0.00  0.00    +0.070 C 
ATOM     17  C   LIG    1        3.810   3.656   0.361  0.00  0.00    +0.090 C 
BRANCH  15  18
ATOM     18  C   LIG    1        2.247   1.839  -0.636  0.00  0.00    +0.010 A 
ATOM     19  C   LIG    1        1.474   0.924   0.022  0.00  0.00    -0.030 A 
ATOM     20  C   LIG    1        0.217   0.590  -0.476  0.00  0.00    +0.290 A 
ATOM     21  N   LIG    1       -0.258   1.131  -1.571  0.00  0.00    -0.470 NA
ATOM     22  C   LIG    1        0.447   2.032  -2.263  0.00  0.00    +0.130 A 
ATOM     23  C   LIG    1       -0.067   2.610  -3.437  0.00  0.00    +0.040 A 
ATOM     24  C   LIG    1        0.674   3.526  -4.119  0.00  0.00    +0.030 A 
ATOM     25  C   LIG    1        1.938   3.904  -3.673  0.00  0.00    +0.020 A 
ATOM     26  C   LIG    1        2.470   3.365  -2.541  0.00  0.00    +0.050 A 
ATOM     27  C   LIG    1        1.734   2.418  -1.812  0.00  0.00    -0.090 A 
ENDBRANCH  15  18
ENDBRANCH   3  15
TORSDOF 3
