REMARK  Name = ZINCqH00000032T8.0
REMARK                            x       y       z     vdW  Elec       q    Type
REMARK                         _______ _______ _______ _____ _____    ______ ____
ROOT
ATOM      1  C   LIG    1       -3.047   0.800   1.567  0.00  0.00    -0.660 A 
ATOM      2  C   LIG    1       -3.568   0.034   0.540  0.00  0.00    +0.110 A 
ATOM      3  C   LIG    1       -4.410  -1.026   0.823  0.00  0.00    +0.020 A 
ATOM      4  C   LIG    1       -4.741  -1.316   2.132  0.00  0.00    +0.050 A 
ATOM      5  C   LIG    1       -4.223  -0.546   3.165  0.00  0.00    +0.130 A 
ATOM      6  C   LIG    1       -3.374   0.514   2.878  0.00  0.00    +0.130 A 
ENDROOT
BRANCH   5   7
ATOM      7  N   LIG    1       -4.557  -0.838   4.492  0.00  0.00    -0.670 N 
ATOM      8  H   LIG    1       -4.709  -1.756   4.764  0.00  0.00    +0.420 HD
ATOM      9  C   LIG    1       -4.668   0.158   5.394  0.00  0.00    +0.530 C 
ATOM     10  O   LIG    1       -4.572   1.313   5.036  0.00  0.00    -0.490 OA
BRANCH   9  11
ATOM     11  C   LIG    1       -4.909  -0.163   6.846  0.00  0.00    +0.080 C 
BRANCH  11  12
ATOM     12  S   LIG    1       -5.010   1.377   7.798  0.00  0.00    -0.020 S 
BRANCH  12  13
ATOM     13  C   LIG    1       -5.290   0.810   9.443  0.00  0.00    -0.110 A 
ATOM     14  C   LIG    1       -5.377  -0.552   9.704  0.00  0.00    -0.010 A 
ATOM     15  C   LIG    1       -5.597  -0.993  10.994  0.00  0.00    +0.020 A 
ATOM     16  C   LIG    1       -5.731  -0.082  12.025  0.00  0.00    +0.010 A 
ATOM     17  C   LIG    1       -5.646   1.275  11.768  0.00  0.00    +0.030 A 
ATOM     18  C   LIG    1       -5.419   1.723  10.482  0.00  0.00    -0.060 A 
ATOM     19  C   LIG    1       -5.320   3.201  10.205  0.00  0.00    +0.100 C 
ENDBRANCH  12  13
ENDBRANCH  11  12
ENDBRANCH   9  11
ENDBRANCH   5   7
BRANCH   1  20
ATOM     20  S   LIG    1       -1.970   2.146   1.202  0.00  0.00    +2.690 S 
ATOM     21  O   LIG    1       -2.252   2.534  -0.136  0.00  0.00    -0.950 OA
ATOM     22  O   LIG    1       -2.055   3.038   2.304  0.00  0.00    -0.940 OA
BRANCH  20  23
ATOM     23  N   LIG    1       -0.425   1.550   1.200  0.00  0.00    -1.000 NA
BRANCH  23  25
ATOM     24  C   LIG    1       -0.036  -0.485  -0.099  0.00  0.00    +0.010 C 
ATOM     25  C   LIG    1        0.159   1.031  -0.040  0.00  0.00    +0.290 C 
ENDBRANCH  23  25
BRANCH  23  26
ATOM     26  C   LIG    1        0.359   1.543   2.438  0.00  0.00    +0.280 C 
ATOM     27  C   LIG    1        1.233   2.798   2.496  0.00  0.00    +0.010 C 
ENDBRANCH  23  26
ENDBRANCH  20  23
ENDBRANCH   1  20
TORSDOF 8
