REMARK  Name = ZINCrD000000fpK1.0
REMARK                            x       y       z     vdW  Elec       q    Type
REMARK                         _______ _______ _______ _____ _____    ______ ____
ROOT
ATOM      1  C   LIG    1       -1.190   1.606   0.239  0.00  0.00    +0.560 C 
ATOM      2  N   LIG    1       -0.013   0.952   0.197  0.00  0.00    -0.720 N 
ATOM      3  H   LIG    1        0.011  -0.012   0.301  0.00  0.00    +0.400 HD
ATOM      4  O   LIG    1       -1.219   2.815   0.109  0.00  0.00    -0.540 OA
ENDROOT
BRANCH   1   8
ATOM      5  C   LIG    1       -4.798  -0.560   0.829  0.00  0.00    +0.130 A 
ATOM      6  C   LIG    1       -3.585  -1.232   0.785  0.00  0.00    -0.040 A 
ATOM      7  C   LIG    1       -2.413  -0.533   0.594  0.00  0.00    +0.050 A 
ATOM      8  C   LIG    1       -2.444   0.856   0.444  0.00  0.00    -0.140 A 
ATOM      9  C   LIG    1       -3.666   1.533   0.494  0.00  0.00    +0.040 A 
ATOM     10  C   LIG    1       -4.837   0.826   0.680  0.00  0.00    +0.090 A 
BRANCH  10  11
ATOM     11  O   LIG    1       -6.028   1.481   0.724  0.00  0.00    -0.300 OA
ATOM     12  C   LIG    1       -5.993   2.901   0.564  0.00  0.00    +0.240 C 
ENDBRANCH  10  11
BRANCH   5  13
ATOM     13  O   LIG    1       -5.950  -1.254   1.017  0.00  0.00    -0.290 OA
BRANCH  13  14
ATOM     14  C   LIG    1       -5.838  -2.671   1.161  0.00  0.00    +0.220 C 
BRANCH  14  16
ATOM     15  C   LIG    1       -7.556  -4.344   0.701  0.00  0.00    +0.040 C 
ATOM     16  C   LIG    1       -7.208  -3.266   1.360  0.00  0.00    -0.040 C 
ENDBRANCH  14  16
ENDBRANCH  13  14
ENDBRANCH   5  13
ENDBRANCH   1   8
BRANCH   2  17
ATOM     17  C   LIG    1        1.232   1.697  -0.012  0.00  0.00    +0.320 C 
BRANCH  17  18
ATOM     18  C   LIG    1        2.394   0.738  -0.025  0.00  0.00    -0.130 A 
ATOM     19  C   LIG    1        3.051   0.434   1.153  0.00  0.00    +0.050 A 
ATOM     20  C   LIG    1        4.114  -0.448   1.145  0.00  0.00    -0.010 A 
ATOM     21  C   LIG    1        4.530  -1.021  -0.050  0.00  0.00    +0.170 A 
ATOM     22  C   LIG    1        3.872  -0.710  -1.232  0.00  0.00    +0.020 A 
ATOM     23  C   LIG    1        2.806   0.169  -1.216  0.00  0.00    +0.050 A 
BRANCH  21  24
ATOM     24  N   LIG    1        5.611  -1.910  -0.062  0.00  0.00    -0.650 N 
ATOM     25  H   LIG    1        5.767  -2.494   0.697  0.00  0.00    +0.420 HD
ATOM     26  C   LIG    1        6.434  -1.955  -1.128  0.00  0.00    +0.650 C 
ATOM     27  O   LIG    1        6.298  -1.159  -2.035  0.00  0.00    -0.550 OA
BRANCH  26  28
ATOM     28  O   LIG    1        7.409  -2.882  -1.187  0.00  0.00    -0.370 OA
ATOM     29  C   LIG    1        8.258  -2.872  -2.365  0.00  0.00    +0.300 C 
ENDBRANCH  26  28
ENDBRANCH  21  24
ENDBRANCH  17  18
ENDBRANCH   2  17
TORSDOF 9
