REMARK  Name = ZINCpe000027pHfV.0
REMARK                            x       y       z     vdW  Elec       q    Type
REMARK                         _______ _______ _______ _____ _____    ______ ____
ROOT
ATOM      1  C   LIG    1       -3.757  -0.677  -2.269  0.00  0.00    +0.610 C 
ATOM      2  N   LIG    1       -2.866   0.015  -1.531  0.00  0.00    -0.600 N 
ATOM      3  C   LIG    1       -1.899   0.915  -2.175  0.00  0.00    +0.280 C 
ATOM      4  C   LIG    1       -2.009   2.300  -1.530  0.00  0.00    +0.030 C 
ATOM      5  C   LIG    1       -1.833   2.168  -0.015  0.00  0.00    +0.250 C 
ATOM      6  C   LIG    1       -2.943   1.281   0.553  0.00  0.00    +0.160 C 
ATOM      7  C   LIG    1       -2.843  -0.116  -0.068  0.00  0.00    +0.260 C 
ATOM      8  O   LIG    1       -3.852  -0.466  -3.462  0.00  0.00    -0.530 OA
ENDROOT
BRANCH   1  16
ATOM      9  C   LIG    1       -4.327  -4.108   1.728  0.00  0.00    +0.060 C 
ATOM     10  C   LIG    1       -5.669  -3.700   1.119  0.00  0.00    +0.250 C 
ATOM     11  C   LIG    1       -6.511  -4.951   0.848  0.00  0.00    +0.050 C 
ATOM     12  C   LIG    1       -7.752  -4.569   0.035  0.00  0.00    +0.020 C 
ATOM     13  C   LIG    1       -7.319  -4.176  -1.383  0.00  0.00    +0.120 C 
ATOM     14  C   LIG    1       -6.171  -3.205  -1.273  0.00  0.00    +0.020 A 
ATOM     15  C   LIG    1       -5.688  -2.393  -2.234  0.00  0.00    -0.010 A 
ATOM     16  C   LIG    1       -4.617  -1.691  -1.627  0.00  0.00    -0.020 A 
ATOM     17  N   LIG    1       -4.539  -2.111  -0.380  0.00  0.00    -0.260 NA
ATOM     18  N   LIG    1       -5.440  -2.997  -0.152  0.00  0.00    -0.280 N 
ENDBRANCH   1  16
BRANCH   5  19
ATOM     19  N   LIG    1       -0.530   1.566   0.274  0.00  0.00    -0.710 N 
ATOM     20  H   LIG    1       -0.458   0.609   0.416  0.00  0.00    +0.400 HD
ATOM     21  C   LIG    1        0.571   2.340   0.338  0.00  0.00    +0.550 C 
ATOM     22  O   LIG    1        0.482   3.537   0.161  0.00  0.00    -0.540 OA
BRANCH  21  23
ATOM     23  C   LIG    1        1.913   1.720   0.630  0.00  0.00    -0.080 C 
ATOM     24  C   LIG    1        2.563   2.041   1.977  0.00  0.00    +0.050 C 
ATOM     25  C   LIG    1        3.125   2.652   0.691  0.00  0.00    +0.060 C 
ENDBRANCH  21  23
ENDBRANCH   5  19
BRANCH   6  26
ATOM     26  O   LIG    1       -2.796   1.183   1.972  0.00  0.00    -0.550 OA
ATOM     27  H   LIG    1       -3.467   0.634   2.400  0.00  0.00    +0.380 HD
ENDBRANCH   6  26
TORSDOF 4
