REMARK  Name = ZINCrD00000l0aa0.0
REMARK                            x       y       z     vdW  Elec       q    Type
REMARK                         _______ _______ _______ _____ _____    ______ ____
ROOT
ATOM      1  C   LIG    1        1.008  -2.153   1.348  0.00  0.00    +0.050 C 
ATOM      2  C   LIG    1        0.991  -0.634   1.163  0.00  0.00    +0.160 C 
ATOM      3  C   LIG    1       -0.088  -0.252   0.141  0.00  0.00    +0.070 C 
ATOM      4  C   LIG    1       -0.212   1.273   0.135  0.00  0.00    +0.040 C 
ATOM      5  C   LIG    1        1.160   1.893   0.059  0.00  0.00    -0.120 A 
ATOM      6  C   LIG    1        1.254   3.233  -0.282  0.00  0.00    +0.020 A 
ATOM      7  C   LIG    1        2.486   3.852  -0.361  0.00  0.00    -0.020 A 
ATOM      8  C   LIG    1        3.636   3.132  -0.098  0.00  0.00    +0.030 A 
ATOM      9  C   LIG    1        3.551   1.798   0.240  0.00  0.00    +0.000 A 
ATOM     10  C   LIG    1        2.309   1.167   0.319  0.00  0.00    +0.140 A 
ATOM     11  N   LIG    1        2.291  -0.185   0.660  0.00  0.00    -0.480 N 
ENDROOT
BRANCH   4  12
ATOM     12  C   LIG    1       -0.898   1.726   1.398  0.00  0.00    +0.530 C 
ATOM     13  O   LIG    1       -1.252   0.909   2.222  0.00  0.00    -0.540 OA
ATOM     14  N   LIG    1       -1.117   3.038   1.613  0.00  0.00    -0.850 N 
ATOM     15  H   LIG    1       -1.559   3.329   2.426  0.00  0.00    +0.400 HD
ATOM     16  H   LIG    1       -0.834   3.691   0.954  0.00  0.00    +0.400 HD
ENDBRANCH   4  12
BRANCH  11  17
ATOM     17  C   LIG    1        3.362  -0.502   1.614  0.00  0.00    +0.340 C 
BRANCH  17  18
ATOM     18  C   LIG    1        3.153   0.282   2.883  0.00  0.00    +0.050 A 
ATOM     19  N   LIG    1        3.546   1.512   3.099  0.00  0.00    -0.260 NA
ATOM     20  N   LIG    1        3.160   1.874   4.396  0.00  0.00    -0.320 N 
ATOM     21  C   LIG    1        2.521   0.819   4.949  0.00  0.00    +0.230 A 
ATOM     22  C   LIG    1        2.499  -0.176   4.032  0.00  0.00    -0.090 A 
BRANCH  20  23
ATOM     23  C   LIG    1        3.394   3.112   5.011  0.00  0.00    +0.200 A 
ATOM     24  C   LIG    1        4.066   4.114   4.324  0.00  0.00    +0.010 A 
ATOM     25  C   LIG    1        4.296   5.333   4.931  0.00  0.00    +0.080 A 
ATOM     26  C   LIG    1        3.858   5.557   6.223  0.00  0.00    -0.020 A 
ATOM     27  C   LIG    1        3.187   4.560   6.912  0.00  0.00    +0.130 A 
ATOM     28  F   LIG    1        2.759   4.782   8.174  0.00  0.00    -0.130 F 
ATOM     29  C   LIG    1        2.950   3.340   6.306  0.00  0.00    -0.040 A 
ENDBRANCH  20  23
ENDBRANCH  17  18
ENDBRANCH  11  17
TORSDOF 4
