REMARK  Name = ZINCrD00000F5LyB.0
REMARK                            x       y       z     vdW  Elec       q    Type
REMARK                         _______ _______ _______ _____ _____    ______ ____
ROOT
ATOM      1  N   LIG    1       -0.026   1.447   0.009  0.00  0.00    -0.600 N 
ATOM      2  C   LIG    1        1.132   2.135  -0.007  0.00  0.00    +0.560 C 
ATOM      3  O   LIG    1        1.117   3.352  -0.009  0.00  0.00    -0.530 OA
ATOM      4  C   LIG    1       -0.008  -0.018   0.011  0.00  0.00    +0.310 C 
ENDROOT
BRANCH   2   5
ATOM      5  C   LIG    1        2.409   1.419  -0.024  0.00  0.00    -0.060 C 
ATOM      6  C   LIG    1        3.568   2.108  -0.041  0.00  0.00    +0.130 C 
BRANCH   6   7
ATOM      7  C   LIG    1        4.852   1.388  -0.057  0.00  0.00    -0.070 A 
ATOM      8  C   LIG    1        4.874  -0.010  -0.055  0.00  0.00    +0.090 A 
ATOM      9  C   LIG    1        6.081  -0.677  -0.071  0.00  0.00    +0.040 A 
ATOM     10  C   LIG    1        7.268   0.033  -0.088  0.00  0.00    +0.110 A 
ATOM     11  C   LIG    1        7.255   1.417  -0.091  0.00  0.00    -0.040 A 
ATOM     12  C   LIG    1        6.056   2.099  -0.081  0.00  0.00    +0.130 A 
BRANCH  11  13
ATOM     13  N   LIG    1        8.530   2.168  -0.111  0.00  0.00    +0.030 N 
ATOM     14  O   LIG    1        8.521   3.386  -0.113  0.00  0.00    -0.150 OA
ATOM     15  O   LIG    1        9.590   1.568  -0.125  0.00  0.00    -0.150 OA
ENDBRANCH  11  13
ENDBRANCH   6   7
ENDBRANCH   2   5
BRANCH   1  16
ATOM     16  C   LIG    1       -1.304   2.163   0.020  0.00  0.00    +0.340 C 
BRANCH  16  19
ATOM     17  N   LIG    1       -2.883   3.059   1.700  0.00  0.00    -0.670 N 
ATOM     18  H   LIG    1       -3.399   3.436   0.970  0.00  0.00    +0.410 HD
ATOM     19  C   LIG    1       -1.730   2.411   1.444  0.00  0.00    +0.500 C 
ATOM     20  O   LIG    1       -1.034   2.027   2.360  0.00  0.00    -0.510 OA
BRANCH  17  26
ATOM     21  C   LIG    1       -2.963   1.404   6.328  0.00  0.00    +0.100 C 
ATOM     22  C   LIG    1       -3.391   2.400   5.281  0.00  0.00    -0.070 A 
ATOM     23  C   LIG    1       -4.233   3.442   5.622  0.00  0.00    -0.010 A 
ATOM     24  C   LIG    1       -4.628   4.358   4.664  0.00  0.00    +0.030 A 
ATOM     25  C   LIG    1       -4.177   4.237   3.364  0.00  0.00    -0.120 A 
ATOM     26  C   LIG    1       -3.336   3.188   3.017  0.00  0.00    +0.150 A 
ATOM     27  C   LIG    1       -4.603   5.239   2.322  0.00  0.00    +0.080 C 
ATOM     28  C   LIG    1       -2.942   2.270   3.981  0.00  0.00    +0.010 A 
ENDBRANCH  17  26
ENDBRANCH  16  19
ENDBRANCH   1  16
TORSDOF 6
