REMARK  Name = ZINCrD00000F5Lyb.1
REMARK                            x       y       z     vdW  Elec       q    Type
REMARK                         _______ _______ _______ _____ _____    ______ ____
ROOT
ATOM      1  C   LIG    1       -0.013   1.086   0.008  0.00  0.00    +0.360 C 
ATOM      2  C   LIG    1       -0.681   1.556  -1.272  0.00  0.00    -0.140 C 
ATOM      3  C   LIG    1       -1.770   2.332  -1.156  0.00  0.00    +0.210 C 
ATOM      4  N   LIG    1       -2.272   2.687   0.053  0.00  0.00    -0.580 NA
ATOM      5  C   LIG    1       -1.760   2.324   1.204  0.00  0.00    +0.570 A 
ATOM      6  N   LIG    1       -2.125   2.583   2.479  0.00  0.00    -0.520 NA
ATOM      7  C   LIG    1       -1.305   2.002   3.312  0.00  0.00    +0.630 A 
ATOM      8  N   LIG    1       -0.351   1.326   2.614  0.00  0.00    -0.490 N 
ATOM      9  H   LIG    1        0.381   0.808   2.983  0.00  0.00    +0.450 HD
ATOM     10  N   LIG    1       -0.634   1.527   1.261  0.00  0.00    -0.460 N 
ENDROOT
BRANCH   1  13
ATOM     11  C   LIG    1        3.739   1.171  -0.438  0.00  0.00    +0.150 A 
ATOM     12  C   LIG    1        2.425   0.729  -0.427  0.00  0.00    -0.080 A 
ATOM     13  C   LIG    1        1.414   1.571  -0.003  0.00  0.00    -0.040 A 
ATOM     14  C   LIG    1        1.708   2.858   0.406  0.00  0.00    -0.080 A 
ATOM     15  C   LIG    1        3.020   3.306   0.402  0.00  0.00    +0.150 A 
ATOM     16  C   LIG    1        4.039   2.463  -0.023  0.00  0.00    +0.030 A 
BRANCH  11  18
ATOM     17  C   LIG    1        4.351  -0.973  -1.267  0.00  0.00    +0.250 C 
ATOM     18  O   LIG    1        4.733   0.341  -0.855  0.00  0.00    -0.300 OA
ENDBRANCH  11  18
BRANCH  15  19
ATOM     19  O   LIG    1        3.309   4.571   0.810  0.00  0.00    -0.300 OA
ATOM     20  C   LIG    1        2.211   5.383   1.234  0.00  0.00    +0.250 C 
ENDBRANCH  15  19
BRANCH  16  21
ATOM     21  O   LIG    1        5.328   2.900  -0.032  0.00  0.00    -0.310 OA
ATOM     22  C   LIG    1        5.792   3.527  -1.229  0.00  0.00    +0.230 C 
ENDBRANCH  16  21
ENDBRANCH   1  13
BRANCH   3  23
ATOM     23  C   LIG    1       -2.447   2.812  -2.386  0.00  0.00    -0.050 A 
ATOM     24  C   LIG    1       -1.948   2.466  -3.640  0.00  0.00    +0.020 A 
ATOM     25  C   LIG    1       -2.585   2.910  -4.781  0.00  0.00    -0.010 A 
ATOM     26  C   LIG    1       -3.711   3.708  -4.681  0.00  0.00    +0.010 A 
ATOM     27  C   LIG    1       -4.208   4.059  -3.439  0.00  0.00    -0.010 A 
ATOM     28  C   LIG    1       -3.582   3.616  -2.292  0.00  0.00    +0.060 A 
ENDBRANCH   3  23
TORSDOF 5
