REMARK  Name = ZINCpk00000y6yOs.0
REMARK                            x       y       z     vdW  Elec       q    Type
REMARK                         _______ _______ _______ _____ _____    ______ ____
ROOT
ATOM      1  C   LIG    1        1.421   1.955   0.015  0.00  0.00    +0.180 C 
ATOM      2  C   LIG    1        2.227   0.638   0.013  0.00  0.00    +0.180 C 
ATOM      3  N   LIG    1        1.310  -0.360  -0.596  0.00  0.00    -0.460 N 
ATOM      4  C   LIG    1       -0.023  -0.023  -0.034  0.00  0.00    +0.210 C 
ATOM      5  C   LIG    1       -0.058   1.520  -0.015  0.00  0.00    +0.120 C 
ENDROOT
BRANCH   3   6
ATOM      6  C   LIG    1        1.683  -1.651  -0.253  0.00  0.00    +0.330 A 
ATOM      7  N   LIG    1        1.368  -2.116   0.938  0.00  0.00    -0.510 NA
ATOM      8  C   LIG    1        1.702  -3.357   1.309  0.00  0.00    +0.140 A 
ATOM      9  C   LIG    1        1.359  -3.849   2.579  0.00  0.00    +0.030 A 
ATOM     10  C   LIG    1        1.716  -5.115   2.933  0.00  0.00    +0.030 A 
ATOM     11  C   LIG    1        2.420  -5.934   2.054  0.00  0.00    +0.010 A 
ATOM     12  C   LIG    1        2.771  -5.491   0.815  0.00  0.00    +0.040 A 
ATOM     13  C   LIG    1        2.418  -4.192   0.417  0.00  0.00    -0.110 A 
ATOM     14  C   LIG    1        2.763  -3.699  -0.858  0.00  0.00    +0.120 A 
ATOM     15  C   LIG    1        2.391  -2.429  -1.181  0.00  0.00    -0.120 A 
BRANCH  15  16
ATOM     16  C   LIG    1        2.739  -1.861  -2.533  0.00  0.00    +0.260 C 
BRANCH  16  17
ATOM     17  O   LIG    1        3.347  -2.876  -3.334  0.00  0.00    -0.580 OA
ATOM     18  H   LIG    1        3.598  -2.580  -4.220  0.00  0.00    +0.390 HD
ENDBRANCH  16  17
ENDBRANCH  15  16
ENDBRANCH   3   6
BRANCH   5  19
ATOM     19  C   LIG    1       -0.774   2.013   1.216  0.00  0.00    -0.010 A 
ATOM     20  C   LIG    1       -0.781   1.429   2.437  0.00  0.00    +0.150 A 
ATOM     21  N   LIG    1       -1.546   2.217   3.227  0.00  0.00    -0.290 N 
ATOM     22  N   LIG    1       -1.975   3.203   2.520  0.00  0.00    -0.080 NA
ATOM     23  C   LIG    1       -1.840   1.985   4.644  0.00  0.00    +0.370 C 
ATOM     24  N   LIG    1       -1.533   3.110   1.315  0.00  0.00    -0.260 NA
ENDBRANCH   5  19
BRANCH   1  26
ATOM     25  C   LIG    1        2.760   3.703  -0.932  0.00  0.00    +0.200 C 
ATOM     26  O   LIG    1        1.735   2.731  -1.144  0.00  0.00    -0.370 OA
ENDBRANCH   1  26
TORSDOF 5
