REMARK  Name = ZINCpk000005LfSW.0
REMARK                            x       y       z     vdW  Elec       q    Type
REMARK                         _______ _______ _______ _____ _____    ______ ____
ROOT
ATOM      1  N   LIG    1       -0.066   1.016   2.442  0.00  0.00    -0.740 N 
ATOM      2  H   LIG    1        0.592   1.531   2.934  0.00  0.00    +0.400 HD
ATOM      3  C   LIG    1       -0.430  -0.206   2.879  0.00  0.00    +0.710 C 
ATOM      4  N   LIG    1        0.121  -0.713   3.999  0.00  0.00    -0.620 N 
ATOM      5  C   LIG    1        1.116   0.065   4.743  0.00  0.00    +0.270 C 
ATOM      6  O   LIG    1       -1.255  -0.852   2.262  0.00  0.00    -0.590 OA
ENDROOT
BRANCH   1  14
ATOM      7  C   LIG    1       -1.159   2.533  -3.716  0.00  0.00    +0.100 C 
ATOM      8  C   LIG    1       -1.196   3.397  -2.482  0.00  0.00    -0.110 A 
ATOM      9  C   LIG    1       -1.536   4.731  -2.586  0.00  0.00    +0.040 A 
ATOM     10  C   LIG    1       -1.570   5.525  -1.454  0.00  0.00    -0.020 A 
ATOM     11  C   LIG    1       -1.262   4.984  -0.221  0.00  0.00    +0.030 A 
ATOM     12  C   LIG    1       -0.918   3.646  -0.111  0.00  0.00    -0.160 A 
ATOM     13  C   LIG    1       -0.580   3.094   1.250  0.00  0.00    +0.090 C 
ATOM     14  C   LIG    1       -0.665   1.566   1.223  0.00  0.00    +0.230 C 
ATOM     15  C   LIG    1        0.105   1.063  -0.004  0.00  0.00    +0.220 C 
ATOM     16  O   LIG    1       -0.561   1.531  -1.178  0.00  0.00    -0.300 OA
ATOM     17  C   LIG    1       -0.887   2.848  -1.241  0.00  0.00    +0.130 A 
ENDBRANCH   1  14
BRANCH   4  18
ATOM     18  C   LIG    1       -0.275  -2.045   4.476  0.00  0.00    +0.250 C 
ATOM     19  C   LIG    1       -0.797  -1.939   5.902  0.00  0.00    -0.030 C 
ATOM     20  C   LIG    1       -0.904  -3.286   6.601  0.00  0.00    +0.220 C 
ATOM     21  N   LIG    1        0.266  -4.131   6.391  0.00  0.00    -0.540 NA
ATOM     22  C   LIG    1        1.466  -3.655   7.080  0.00  0.00    +0.210 C 
ATOM     23  C   LIG    1        1.997  -2.374   6.438  0.00  0.00    +0.160 C 
ATOM     24  O   LIG    1        2.061  -2.491   5.022  0.00  0.00    -0.360 OA
ATOM     25  C   LIG    1        0.527  -4.354   4.964  0.00  0.00    +0.210 C 
ATOM     26  C   LIG    1        0.909  -2.998   4.359  0.00  0.00    +0.160 C 
ENDBRANCH   4  18
TORSDOF 2
