REMARK  Name = ZINC650000002yQ5.0
REMARK                            x       y       z     vdW  Elec       q    Type
REMARK                         _______ _______ _______ _____ _____    ______ ____
ROOT
ATOM      1  C   LIG    1       -0.013   1.086   0.008  0.00  0.00    +0.290 C 
ENDROOT
BRANCH   1   2
ATOM      2  N   LIG    1       -0.700   1.560   1.217  0.00  0.00    -0.640 N 
ATOM      3  H   LIG    1       -0.714   2.568   1.222  0.00  0.00    +0.440 HD
ATOM      4  H   LIG    1       -0.212   1.225   2.034  0.00  0.00    +0.440 HD
ATOM      5  H   LIG    1       -1.647   1.210   1.224  0.00  0.00    +0.430 HD
ENDBRANCH   1   2
BRANCH   1   6
ATOM      6  C   LIG    1       -0.753   1.593  -1.232  0.00  0.00    +0.140 C 
ATOM      7  C   LIG    1       -0.111   0.998  -2.487  0.00  0.00    +0.060 C 
BRANCH   6   9
ATOM      8  C   LIG    1       -1.792   3.641  -1.916  0.00  0.00    +0.230 C 
ATOM      9  O   LIG    1       -0.672   3.018  -1.285  0.00  0.00    -0.390 OA
ENDBRANCH   6   9
ENDBRANCH   1   6
TORSDOF 3
