REMARK  Name = ZINCrH000004qYrb.1
REMARK                            x       y       z     vdW  Elec       q    Type
REMARK                         _______ _______ _______ _____ _____    ______ ____
ROOT
ATOM      1  C   LIG    1        6.826   8.677  -1.980  0.00  0.00    +0.110 C 
ATOM      2  C   LIG    1        5.896   7.495  -1.886  0.00  0.00    -0.080 A 
ATOM      3  C   LIG    1        5.672   6.890  -0.664  0.00  0.00    +0.040 A 
ATOM      4  C   LIG    1        4.818   5.810  -0.569  0.00  0.00    +0.070 A 
ATOM      5  C   LIG    1        4.185   5.319  -1.712  0.00  0.00    -0.020 A 
ATOM      6  C   LIG    1        4.410   5.929  -2.945  0.00  0.00    +0.070 A 
ATOM      7  C   LIG    1        5.266   7.016  -3.029  0.00  0.00    +0.140 A 
ENDROOT
BRANCH   5   8
ATOM      8  C   LIG    1        3.274   4.158  -1.614  0.00  0.00    +0.230 A 
ATOM      9  N   LIG    1        2.965   3.488  -0.518  0.00  0.00    -0.480 NA
ATOM     10  C   LIG    1        2.115   2.527  -0.912  0.00  0.00    +0.150 A 
ATOM     11  N   LIG    1        1.942   2.656  -2.194  0.00  0.00    -0.370 NA
ATOM     12  O   LIG    1        2.596   3.584  -2.620  0.00  0.00    +0.090 OA
BRANCH  10  13
ATOM     13  C   LIG    1        1.472   1.490  -0.027  0.00  0.00    +0.180 C 
ATOM     14  C   LIG    1       -0.065   1.553  -0.022  0.00  0.00    +0.050 C 
ATOM     15  C   LIG    1       -0.048   0.015  -0.030  0.00  0.00    +0.040 C 
ATOM     16  C   LIG    1        1.336   0.111  -0.693  0.00  0.00    +0.050 C 
BRANCH  13  17
ATOM     17  N   LIG    1        2.063   1.440   1.317  0.00  0.00    -0.800 NA
ATOM     18  H   LIG    1        1.759   2.223   1.875  0.00  0.00    +0.350 HD
ATOM     19  H   LIG    1        3.070   1.400   1.267  0.00  0.00    +0.350 HD
ENDBRANCH  13  17
ENDBRANCH  10  13
ENDBRANCH   5   8
BRANCH   7  20
ATOM     20  N   LIG    1        5.495   7.633  -4.264  0.00  0.00    -0.670 N 
ATOM     21  H   LIG    1        5.633   8.591  -4.309  0.00  0.00    +0.410 HD
ATOM     22  C   LIG    1        5.524   6.894  -5.391  0.00  0.00    +0.560 C 
ATOM     23  O   LIG    1        5.270   5.705  -5.345  0.00  0.00    -0.500 OA
BRANCH  22  24
ATOM     24  C   LIG    1        5.865   7.527  -6.680  0.00  0.00    -0.180 A 
ATOM     25  C   LIG    1        6.157   8.891  -6.737  0.00  0.00    +0.080 A 
ATOM     26  C   LIG    1        6.475   9.476  -7.944  0.00  0.00    +0.000 A 
ATOM     27  C   LIG    1        6.505   8.716  -9.101  0.00  0.00    +0.080 A 
ATOM     28  C   LIG    1        6.217   7.364  -9.055  0.00  0.00    -0.010 A 
ATOM     29  C   LIG    1        5.902   6.762  -7.851  0.00  0.00    +0.170 A 
ATOM     30  F   LIG    1        5.626   5.440  -7.806  0.00  0.00    -0.110 F 
ENDBRANCH  22  24
ENDBRANCH   7  20
TORSDOF 5
