REMARK  Name = ZINCkj00000dDf0T.0
REMARK                            x       y       z     vdW  Elec       q    Type
REMARK                         _______ _______ _______ _____ _____    ______ ____
ROOT
ATOM      1  N   LIG    1       -0.217   2.632   2.434  0.00  0.00    -0.310 N 
ATOM      2  N   LIG    1       -1.087   2.010   3.337  0.00  0.00    -0.240 NA
ATOM      3  C   LIG    1       -2.193   1.706   2.717  0.00  0.00    +0.290 A 
ATOM      4  C   LIG    1       -2.073   2.132   1.375  0.00  0.00    -0.250 A 
ATOM      5  C   LIG    1       -0.823   2.700   1.238  0.00  0.00    +0.050 A 
ENDROOT
BRANCH   4   6
ATOM      6  C   LIG    1       -3.092   1.993   0.318  0.00  0.00    +0.590 C 
ATOM      7  N   LIG    1       -4.394   2.186   0.607  0.00  0.00    -0.620 N 
ATOM      8  C   LIG    1       -4.761   2.647   1.962  0.00  0.00    +0.290 C 
ATOM      9  C   LIG    1       -5.870   3.718   1.896  0.00  0.00    +0.060 C 
ATOM     10  C   LIG    1       -5.612   4.644   0.729  0.00  0.00    +0.260 C 
ATOM     11  N   LIG    1       -6.341   4.161  -0.442  0.00  0.00    -0.490 N 
ATOM     12  C   LIG    1       -5.644   3.219  -1.231  0.00  0.00    +0.230 C 
ATOM     13  H   LIG    1       -7.200   3.737  -0.126  0.00  0.00    +0.420 HD
ATOM     14  H   LIG    1       -6.573   4.953  -1.022  0.00  0.00    +0.430 HD
ATOM     15  C   LIG    1       -5.383   1.929  -0.419  0.00  0.00    +0.330 C 
ATOM     16  O   LIG    1       -2.757   1.704  -0.815  0.00  0.00    -0.500 OA
ENDBRANCH   4   6
BRANCH   5  17
ATOM     17  C   LIG    1       -0.246   3.295  -0.021  0.00  0.00    +0.540 C 
ATOM     18  F   LIG    1       -1.280   3.808  -0.811  0.00  0.00    -0.160 F 
ATOM     19  F   LIG    1        0.640   4.325   0.313  0.00  0.00    -0.170 F 
ATOM     20  F   LIG    1        0.438   2.304  -0.734  0.00  0.00    -0.150 F 
ENDBRANCH   5  17
BRANCH   1  22
ATOM     21  C   LIG    1        1.044   4.581   3.203  0.00  0.00    +0.060 C 
ATOM     22  C   LIG    1        1.127   3.124   2.743  0.00  0.00    +0.340 C 
ENDBRANCH   1  22
TORSDOF 3
