REMARK  Name = ZINCrD00000756bi.0
REMARK                            x       y       z     vdW  Elec       q    Type
REMARK                         _______ _______ _______ _____ _____    ______ ____
ROOT
ATOM      1  C   LIG    1       -1.401   1.699   2.574  0.00  0.00    +0.160 C 
ATOM      2  C   LIG    1       -1.839   2.140   1.202  0.00  0.00    +0.120 A 
ATOM      3  N   LIG    1       -2.952   2.754   0.915  0.00  0.00    -0.270 NA
ATOM      4  N   LIG    1       -3.001   2.997  -0.462  0.00  0.00    -0.360 N 
ATOM      5  C   LIG    1       -1.874   2.516  -1.021  0.00  0.00    +0.300 A 
ATOM      6  C   LIG    1       -4.091   3.666  -1.175  0.00  0.00    +0.360 C 
ATOM      7  C   LIG    1       -1.113   1.959   0.001  0.00  0.00    -0.290 A 
ENDROOT
BRANCH   7   8
ATOM      8  C   LIG    1        0.198   1.312  -0.139  0.00  0.00    +0.610 C 
ATOM      9  N   LIG    1        1.325   2.046  -0.046  0.00  0.00    -0.730 N 
ATOM     10  H   LIG    1        1.270   3.000   0.117  0.00  0.00    +0.400 HD
ATOM     11  O   LIG    1        0.267   0.115  -0.344  0.00  0.00    -0.520 OA
BRANCH   9  12
ATOM     12  C   LIG    1        2.632   1.401  -0.191  0.00  0.00    +0.280 C 
BRANCH  12  13
ATOM     13  C   LIG    1        3.737   2.450  -0.044  0.00  0.00    +0.040 C 
BRANCH  13  14
ATOM     14  C   LIG    1        5.103   1.777  -0.196  0.00  0.00    -0.100 C 
ATOM     15  C   LIG    1        5.199   1.124  -1.576  0.00  0.00    +0.060 C 
ATOM     16  C   LIG    1        5.267   0.707   0.886  0.00  0.00    +0.060 C 
BRANCH  14  17
ATOM     17  C   LIG    1        6.207   2.825  -0.048  0.00  0.00    +0.460 C 
ATOM     18  F   LIG    1        6.057   3.803  -1.038  0.00  0.00    -0.180 F 
ATOM     19  F   LIG    1        7.456   2.210  -0.187  0.00  0.00    -0.180 F 
ATOM     20  F   LIG    1        6.119   3.421   1.214  0.00  0.00    -0.180 F 
ENDBRANCH  14  17
ENDBRANCH  13  14
ENDBRANCH  12  13
ENDBRANCH   9  12
ENDBRANCH   7   8
BRANCH   5  21
ATOM     21  O   LIG    1       -1.545   2.562  -2.333  0.00  0.00    -0.290 OA
BRANCH  21  22
ATOM     22  C   LIG    1       -0.878   3.739  -2.794  0.00  0.00    +0.220 C 
BRANCH  22  23
ATOM     23  C   LIG    1       -0.605   3.617  -4.294  0.00  0.00    +0.160 C 
ATOM     24  C   LIG    1        0.218   4.819  -4.763  0.00  0.00    +0.010 C 
ATOM     25  C   LIG    1        0.435   4.721  -6.276  0.00  0.00    +0.020 C 
ATOM     26  C   LIG    1       -0.927   4.642  -6.972  0.00  0.00    -0.010 C 
ATOM     27  C   LIG    1       -1.706   3.447  -6.418  0.00  0.00    +0.210 C 
ATOM     28  O   LIG    1       -1.846   3.586  -5.003  0.00  0.00    -0.370 OA
ENDBRANCH  22  23
ENDBRANCH  21  22
ENDBRANCH   5  21
TORSDOF 8
