REMARK  Name = ZINCkj00000cxSV3.0
REMARK                            x       y       z     vdW  Elec       q    Type
REMARK                         _______ _______ _______ _____ _____    ______ ____
ROOT
ATOM      1  C   LIG    1        7.154   0.074  -2.038  0.00  0.00    +0.240 C 
ATOM      2  C   LIG    1        6.625   0.270  -0.614  0.00  0.00    +0.070 C 
ATOM      3  C   LIG    1        5.311   1.053  -0.668  0.00  0.00    +0.260 C 
ATOM      4  N   LIG    1        4.325   0.308  -1.459  0.00  0.00    -0.380 N 
ATOM      5  C   LIG    1        4.795   0.180  -2.844  0.00  0.00    +0.270 C 
ATOM      6  H   LIG    1        4.201  -0.611  -1.061  0.00  0.00    +0.420 HD
ATOM      7  C   LIG    1        6.088  -0.638  -2.875  0.00  0.00    +0.060 C 
ENDROOT
BRANCH   1   8
ATOM      8  N   LIG    1        8.372  -0.740  -2.000  0.00  0.00    -1.120 NA
ATOM      9  H   LIG    1        8.460  -1.451  -1.347  0.00  0.00    +0.420 HD
BRANCH   8  11
ATOM     10  C   LIG    1       10.192   1.212  -2.640  0.00  0.00    -0.280 C 
ATOM     11  S   LIG    1        9.598  -0.446  -3.074  0.00  0.00    +2.610 S 
ATOM     12  O   LIG    1        8.957  -0.430  -4.342  0.00  0.00    -0.950 OA
ATOM     13  O   LIG    1       10.579  -1.425  -2.761  0.00  0.00    -0.940 OA
ENDBRANCH   8  11
ENDBRANCH   1   8
BRANCH   4  14
ATOM     14  C   LIG    1        3.043   1.025  -1.443  0.00  0.00    +0.260 C 
BRANCH  14  15
ATOM     15  C   LIG    1        2.490   1.047  -0.017  0.00  0.00    +0.100 C 
BRANCH  15  16
ATOM     16  C   LIG    1        1.175   1.783   0.000  0.00  0.00    -0.140 A 
ATOM     17  C   LIG    1       -0.013   1.076   0.008  0.00  0.00    +0.060 A 
ATOM     18  C   LIG    1       -1.219   1.750   0.017  0.00  0.00    +0.020 A 
ATOM     19  C   LIG    1       -1.240   3.133   0.031  0.00  0.00    +0.070 A 
ATOM     20  C   LIG    1       -0.053   3.842   0.023  0.00  0.00    -0.010 A 
ATOM     21  C   LIG    1        1.156   3.167   0.008  0.00  0.00    +0.100 A 
ATOM     22  F   LIG    1        2.316   3.859   0.001  0.00  0.00    -0.140 F 
ENDBRANCH  15  16
ENDBRANCH  14  15
ENDBRANCH   4  14
TORSDOF 5
