REMARK  Name = ZINCqH00000508ZZ.0
REMARK                            x       y       z     vdW  Elec       q    Type
REMARK                         _______ _______ _______ _____ _____    ______ ____
ROOT
ATOM      1  N   LIG    1       -0.278   1.164  -1.773  0.00  0.00    -0.720 N 
ATOM      2  H   LIG    1       -1.120   1.638  -1.690  0.00  0.00    +0.400 HD
ATOM      3  C   LIG    1       -0.212  -0.149  -1.479  0.00  0.00    +0.560 C 
ATOM      4  O   LIG    1        0.843  -0.744  -1.587  0.00  0.00    -0.530 OA
ENDROOT
BRANCH   3   5
ATOM      5  C   LIG    1       -1.422  -0.867  -1.025  0.00  0.00    -0.100 A 
ATOM      6  C   LIG    1       -2.634  -0.187  -0.900  0.00  0.00    +0.010 A 
ATOM      7  C   LIG    1       -3.762  -0.859  -0.476  0.00  0.00    +0.050 A 
ATOM      8  C   LIG    1       -3.696  -2.207  -0.174  0.00  0.00    +0.020 A 
ATOM      9  C   LIG    1       -2.494  -2.892  -0.294  0.00  0.00    +0.120 A 
ATOM     10  C   LIG    1       -1.358  -2.228  -0.725  0.00  0.00    +0.000 A 
BRANCH   9  11
ATOM     11  O   LIG    1       -2.435  -4.217   0.005  0.00  0.00    -0.260 OA
BRANCH  11  12
ATOM     12  C   LIG    1       -1.236  -4.844  -0.114  0.00  0.00    +0.080 A 
ATOM     13  C   LIG    1       -0.880  -5.441  -1.315  0.00  0.00    +0.010 A 
ATOM     14  C   LIG    1        0.342  -6.075  -1.435  0.00  0.00    +0.030 A 
ATOM     15  C   LIG    1        1.206  -6.123  -0.356  0.00  0.00    +0.020 A 
ATOM     16  C   LIG    1        0.852  -5.533   0.843  0.00  0.00    +0.020 A 
ATOM     17  C   LIG    1       -0.367  -4.894   0.967  0.00  0.00    +0.010 A 
ENDBRANCH  11  12
ENDBRANCH   9  11
ENDBRANCH   3   5
BRANCH   1  18
ATOM     18  C   LIG    1        0.922   1.875  -2.222  0.00  0.00    +0.350 C 
BRANCH  18  23
ATOM     19  C   LIG    1       -0.398   7.382  -3.268  0.00  0.00    +0.150 C 
ATOM     20  C   LIG    1       -0.051   5.942  -2.988  0.00  0.00    +0.180 A 
ATOM     21  C   LIG    1        0.458   5.598  -1.782  0.00  0.00    -0.090 A 
ATOM     22  C   LIG    1        0.779   4.260  -1.514  0.00  0.00    +0.050 A 
ATOM     23  C   LIG    1        0.581   3.320  -2.483  0.00  0.00    -0.260 A 
ATOM     24  C   LIG    1        0.051   3.712  -3.724  0.00  0.00    +0.530 A 
ATOM     25  O   LIG    1       -0.135   2.880  -4.598  0.00  0.00    -0.540 OA
ATOM     26  C   LIG    1        1.341   3.865  -0.173  0.00  0.00    +0.120 C 
ATOM     27  N   LIG    1       -0.251   5.005  -3.949  0.00  0.00    -0.610 N 
ATOM     28  H   LIG    1       -0.617   5.269  -4.808  0.00  0.00    +0.420 HD
ENDBRANCH  18  23
ENDBRANCH   1  18
TORSDOF 5
