REMARK  Name = ZINC650000002rw7.0
REMARK                            x       y       z     vdW  Elec       q    Type
REMARK                         _______ _______ _______ _____ _____    ______ ____
ROOT
ATOM      1  C   LIG    1       -1.358   3.943   2.593  0.00  0.00    +0.090 C 
ATOM      2  C   LIG    1       -0.754   3.448   1.277  0.00  0.00    +0.170 C 
ENDROOT
BRANCH   2   3
ATOM      3  N   LIG    1       -1.566   3.933   0.153  0.00  0.00    -0.640 N 
ATOM      4  H   LIG    1       -1.168   3.607  -0.715  0.00  0.00    +0.430 HD
ATOM      5  H   LIG    1       -1.580   4.942   0.158  0.00  0.00    +0.440 HD
ATOM      6  H   LIG    1       -2.508   3.583   0.243  0.00  0.00    +0.430 HD
ENDBRANCH   2   3
BRANCH   2   7
ATOM      7  C   LIG    1       -0.733   1.918   1.269  0.00  0.00    +0.070 C 
BRANCH   7   8
ATOM      8  C   LIG    1       -0.017   1.425   0.010  0.00  0.00    +0.160 C 
BRANCH   8   9
ATOM      9  O   LIG    1        0.002  -0.004   0.002  0.00  0.00    -0.560 OA
ATOM     10  H   LIG    1        0.442  -0.387  -0.769  0.00  0.00    +0.400 HD
ENDBRANCH   8   9
ENDBRANCH   7   8
ENDBRANCH   2   7
TORSDOF 4
