REMARK  Name = ZINCnE000001Tw8E.1
REMARK                            x       y       z     vdW  Elec       q    Type
REMARK                         _______ _______ _______ _____ _____    ______ ____
ROOT
ATOM      1  O   LIG    1       -3.379  -1.991  -1.190  0.00  0.00    -0.640 OA
ATOM      2  C   LIG    1       -2.286  -2.465  -1.436  0.00  0.00    +0.650 C 
ATOM      3  N   LIG    1       -1.180  -1.929  -0.884  0.00  0.00    -0.730 N 
ATOM      4  H   LIG    1       -0.308  -2.308  -1.080  0.00  0.00    +0.390 HD
ATOM      5  N   LIG    1       -2.183  -3.527  -2.260  0.00  0.00    -0.680 NA
ENDROOT
BRANCH   5   6
ATOM      6  C   LIG    1       -3.324  -4.080  -2.828  0.00  0.00    +0.370 A 
ATOM      7  N   LIG    1       -3.335  -5.093  -3.634  0.00  0.00    -0.570 NA
ATOM      8  C   LIG    1       -4.510  -5.503  -4.087  0.00  0.00    +0.120 A 
ATOM      9  C   LIG    1       -5.542  -4.769  -3.631  0.00  0.00    -0.410 A 
ATOM     10  C   LIG    1       -6.986  -5.016  -3.995  0.00  0.00    +0.310 C 
ATOM     11  O   LIG    1       -7.017  -5.893  -5.128  0.00  0.00    -0.380 OA
ATOM     12  C   LIG    1       -6.208  -7.063  -4.975  0.00  0.00    +0.210 C 
ATOM     13  C   LIG    1       -4.726  -6.676  -5.033  0.00  0.00    +0.090 C 
ATOM     14  S   LIG    1       -4.917  -3.516  -2.572  0.00  0.00    +0.050 S 
ENDBRANCH   5   6
BRANCH   3  15
ATOM     15  C   LIG    1       -1.293  -0.775   0.011  0.00  0.00    +0.320 C 
BRANCH  15  16
ATOM     16  C   LIG    1        0.002  -0.004   0.002  0.00  0.00    -0.080 A 
ATOM     17  C   LIG    1       -0.017   1.378   0.010  0.00  0.00    +0.010 A 
ATOM     18  C   LIG    1        1.171   2.086   0.002  0.00  0.00    +0.000 A 
ATOM     19  C   LIG    1        2.377   1.411  -0.015  0.00  0.00    -0.010 A 
ATOM     20  C   LIG    1        2.396   0.029  -0.022  0.00  0.00    +0.000 A 
ATOM     21  C   LIG    1        1.208  -0.679  -0.013  0.00  0.00    +0.010 A 
ENDBRANCH  15  16
BRANCH  15  22
ATOM     22  C   LIG    1       -1.588  -1.259   1.432  0.00  0.00    -0.070 C 
ATOM     23  C   LIG    1       -1.507  -2.764   1.697  0.00  0.00    +0.010 C 
ATOM     24  C   LIG    1       -2.869  -2.067   1.651  0.00  0.00    +0.030 C 
ENDBRANCH  15  22
ENDBRANCH   3  15
TORSDOF 4
