REMARK  Name = ZINCnE000001GQep.1
REMARK                            x       y       z     vdW  Elec       q    Type
REMARK                         _______ _______ _______ _____ _____    ______ ____
ROOT
ATOM      1  N   LIG    1       -1.025   6.558  -0.953  0.00  0.00    -0.680 NA
ATOM      2  H   LIG    1       -1.882   6.704  -0.440  0.00  0.00    +0.340 HD
ENDROOT
BRANCH   1   3
ATOM      3  C   LIG    1       -0.515   7.825  -1.494  0.00  0.00    +0.240 C 
BRANCH   3   8
ATOM      4  C   LIG    1       -3.420   9.789  -2.895  0.00  0.00    +0.080 A 
ATOM      5  C   LIG    1       -3.319   9.422  -4.229  0.00  0.00    +0.160 A 
ATOM      6  N   LIG    1       -2.372   8.597  -4.629  0.00  0.00    -0.450 NA
ATOM      7  C   LIG    1       -1.487   8.095  -3.790  0.00  0.00    +0.240 A 
ATOM      8  C   LIG    1       -1.527   8.410  -2.445  0.00  0.00    -0.080 A 
ATOM      9  C   LIG    1       -2.506   9.274  -1.981  0.00  0.00    +0.040 A 
BRANCH   4  10
ATOM     10  O   LIG    1       -4.398  10.639  -2.487  0.00  0.00    -0.310 OA
BRANCH  10  12
ATOM     11  C   LIG    1       -6.320  12.061  -2.844  0.00  0.00    +0.070 C 
ATOM     12  C   LIG    1       -5.296  11.124  -3.487  0.00  0.00    +0.170 C 
ENDBRANCH  10  12
ENDBRANCH   4  10
ENDBRANCH   3   8
ENDBRANCH   1   3
BRANCH   1  13
ATOM     13  C   LIG    1       -0.015   5.898  -0.115  0.00  0.00    +0.230 C 
BRANCH  13  14
ATOM     14  C   LIG    1       -0.227   4.407  -0.153  0.00  0.00    -0.040 A 
ATOM     15  C   LIG    1        0.860   3.556  -0.215  0.00  0.00    +0.090 A 
ATOM     16  C   LIG    1        0.666   2.188  -0.250  0.00  0.00    +0.010 A 
ATOM     17  C   LIG    1       -0.616   1.670  -0.223  0.00  0.00    -0.040 A 
ATOM     18  C   LIG    1       -1.704   2.523  -0.168  0.00  0.00    -0.010 A 
ATOM     19 CL   LIG    1       -0.861  -0.048  -0.267  0.00  0.00    -0.090 Cl
ATOM     20  C   LIG    1       -1.509   3.890  -0.126  0.00  0.00    +0.030 A 
ENDBRANCH  13  14
BRANCH  13  21
ATOM     21  C   LIG    1       -0.144   6.395   1.326  0.00  0.00    -0.090 C 
BRANCH  21  22
ATOM     22  C   LIG    1        0.993   5.849   2.150  0.00  0.00    +0.500 C 
ATOM     23  O   LIG    1        1.014   6.028   3.356  0.00  0.00    -0.700 OA
ATOM     24  O   LIG    1        1.893   5.227   1.610  0.00  0.00    -0.690 OA
ENDBRANCH  21  22
ENDBRANCH  13  21
ENDBRANCH   1  13
TORSDOF 8
