REMARK  Name = ZINCpk00000y6xnK.0
REMARK                            x       y       z     vdW  Elec       q    Type
REMARK                         _______ _______ _______ _____ _____    ______ ____
ROOT
ATOM      1  N   LIG    1        1.252   4.302   1.595  0.00  0.00    -1.110 NA
ATOM      2  H   LIG    1        0.504   4.797   1.963  0.00  0.00    +0.420 HD
ENDROOT
BRANCH   1   3
ATOM      3  C   LIG    1        2.404   3.980   2.441  0.00  0.00    +0.250 C 
ATOM      4  C   LIG    1        2.125   2.690   3.219  0.00  0.00    -0.010 C 
ATOM      5  C   LIG    1        3.300   2.405   4.157  0.00  0.00    +0.230 C 
ATOM      6  O   LIG    1        3.489   3.518   5.034  0.00  0.00    -0.360 OA
ATOM      7  C   LIG    1        3.800   4.741   4.365  0.00  0.00    +0.250 C 
ATOM      8  C   LIG    1        2.645   5.121   3.434  0.00  0.00    +0.020 C 
BRANCH   7   9
ATOM      9  C   LIG    1        4.005   5.833   5.383  0.00  0.00    -0.040 A 
ATOM     10  C   LIG    1        3.344   5.979   6.547  0.00  0.00    +0.180 A 
ATOM     11  N   LIG    1        3.822   7.071   7.162  0.00  0.00    -0.500 NA
ATOM     12  C   LIG    1        4.749   7.612   6.419  0.00  0.00    +0.400 A 
ATOM     13  N   LIG    1        4.894   6.870   5.300  0.00  0.00    -0.460 N 
ATOM     14  C   LIG    1        5.829   7.128   4.202  0.00  0.00    +0.320 C 
ENDBRANCH   7   9
ENDBRANCH   1   3
BRANCH   1  15
ATOM     15  S   LIG    1        1.228   3.820   0.011  0.00  0.00    +2.700 S 
ATOM     16  O   LIG    1       -0.019   4.248  -0.519  0.00  0.00    -0.950 OA
ATOM     17  O   LIG    1        2.479   4.200  -0.543  0.00  0.00    -0.950 OA
BRANCH  15  21
ATOM     18  C   LIG    1        1.224  -0.663  -0.013  0.00  0.00    +0.380 A 
ATOM     19  C   LIG    1        0.002  -0.004   0.002  0.00  0.00    -0.060 A 
ATOM     20  C   LIG    1       -0.017   1.380   0.010  0.00  0.00    +0.220 A 
ATOM     21  C   LIG    1        1.194   2.058   0.002  0.00  0.00    -0.780 A 
ATOM     22  C   LIG    1        2.372   1.338  -0.013  0.00  0.00    +0.420 A 
ATOM     23  N   LIG    1        2.358   0.019  -0.020  0.00  0.00    -0.550 NA
BRANCH  18  24
ATOM     24  O   LIG    1        1.256  -2.019  -0.021  0.00  0.00    -0.300 OA
BRANCH  24  26
ATOM     25  C   LIG    1        2.380  -4.159  -0.044  0.00  0.00    +0.060 C 
ATOM     26  C   LIG    1        2.544  -2.638  -0.037  0.00  0.00    +0.200 C 
ENDBRANCH  24  26
ENDBRANCH  18  24
ENDBRANCH  15  21
ENDBRANCH   1  15
TORSDOF 6
