REMARK  Name = ZINCpe00001atjZp.0
REMARK                            x       y       z     vdW  Elec       q    Type
REMARK                         _______ _______ _______ _____ _____    ______ ____
ROOT
ATOM      1  N   LIG    1       -1.034  -2.867  -4.799  0.00  0.00    -0.290 N 
ATOM      2  C   LIG    1       -0.258  -2.608  -3.720  0.00  0.00    +0.170 A 
ATOM      3  C   LIG    1       -1.107  -2.318  -2.707  0.00  0.00    -0.010 A 
ATOM      4  N   LIG    1       -2.344  -2.418  -3.206  0.00  0.00    -0.260 NA
ATOM      5  N   LIG    1       -2.266  -2.739  -4.449  0.00  0.00    -0.080 NA
ENDROOT
BRANCH   1   6
ATOM      6  C   LIG    1       -0.554  -3.229  -6.134  0.00  0.00    +0.370 C 
BRANCH   6  10
ATOM      7  C   LIG    1        1.011  -6.720  -8.194  0.00  0.00    +0.080 C 
ATOM      8  C   LIG    1       -0.460  -6.433  -7.886  0.00  0.00    -0.120 C 
ATOM      9  C   LIG    1       -0.749  -4.920  -7.997  0.00  0.00    +0.070 C 
ATOM     10  C   LIG    1       -1.201  -4.546  -6.569  0.00  0.00    +0.180 C 
ATOM     11  O   LIG    1       -0.737  -5.642  -5.725  0.00  0.00    -0.350 OA
ATOM     12  C   LIG    1       -1.366  -7.222  -8.834  0.00  0.00    +0.060 C 
ATOM     13  C   LIG    1       -0.775  -6.778  -6.445  0.00  0.00    +0.490 C 
ATOM     14  O   LIG    1       -1.018  -7.882  -6.016  0.00  0.00    -0.430 OA
ENDBRANCH   6  10
ENDBRANCH   1   6
BRANCH   3  15
ATOM     15  C   LIG    1       -0.732  -1.960  -1.292  0.00  0.00    +0.300 C 
BRANCH  15  16
ATOM     16  N   LIG    1       -0.688  -0.498  -1.152  0.00  0.00    -0.510 NA
BRANCH  16  17
ATOM     17  C   LIG    1        0.029  -0.107   0.069  0.00  0.00    +0.170 C 
ATOM     18  C   LIG    1        1.500  -0.552  -0.018  0.00  0.00    +0.020 C 
ATOM     19  C   LIG    1        1.736  -1.526   1.154  0.00  0.00    +0.000 C 
ATOM     20  C   LIG    1        0.645  -1.150   2.187  0.00  0.00    +0.020 C 
ATOM     21  C   LIG    1       -0.577  -0.828   1.291  0.00  0.00    -0.040 C 
ENDBRANCH  16  17
BRANCH  16  22
ATOM     22  C   LIG    1       -2.041   0.074  -1.174  0.00  0.00    +0.210 C 
BRANCH  22  23
ATOM     23  C   LIG    1       -1.962   1.536  -1.532  0.00  0.00    +0.520 C 
ATOM     24  O   LIG    1       -0.882   2.066  -1.684  0.00  0.00    -0.530 OA
ATOM     25  N   LIG    1       -3.092   2.255  -1.682  0.00  0.00    -0.860 N 
ATOM     26  H   LIG    1       -3.042   3.196  -1.912  0.00  0.00    +0.400 HD
ATOM     27  H   LIG    1       -3.956   1.831  -1.560  0.00  0.00    +0.400 HD
ENDBRANCH  22  23
ENDBRANCH  16  22
ENDBRANCH  15  16
ENDBRANCH   3  15
TORSDOF 7
