REMARK  Name = ZINCrD000000C0QR.0
REMARK                            x       y       z     vdW  Elec       q    Type
REMARK                         _______ _______ _______ _____ _____    ______ ____
ROOT
ATOM      1  O   LIG    1       -1.457  -0.452   1.352  0.00  0.00    -0.510 OA
ATOM      2  C   LIG    1       -2.434  -0.123   0.705  0.00  0.00    +0.600 C 
ATOM      3  N   LIG    1       -2.429   1.037   0.019  0.00  0.00    -0.650 N 
ATOM      4  H   LIG    1       -3.233   1.337  -0.433  0.00  0.00    +0.420 HD
ENDROOT
BRANCH   3   5
ATOM      5  C   LIG    1       -1.261   1.809  -0.042  0.00  0.00    +0.130 A 
ATOM      6  C   LIG    1       -1.346   3.195  -0.057  0.00  0.00    +0.040 A 
ATOM      7  C   LIG    1       -0.196   3.956  -0.124  0.00  0.00    +0.000 A 
ATOM      8  C   LIG    1        1.046   3.337  -0.170  0.00  0.00    +0.110 A 
ATOM      9  C   LIG    1        1.131   1.950  -0.150  0.00  0.00    -0.080 A 
ATOM     10 BR   LIG    1        2.821   1.105  -0.212  0.00  0.00    -0.030 Br
ATOM     11  C   LIG    1       -0.020   1.188  -0.083  0.00  0.00    +0.080 A 
BRANCH   8  12
ATOM     12  N   LIG    1        2.211   4.108  -0.238  0.00  0.00    -0.460 N 
ATOM     13  C   LIG    1        1.887   5.556  -0.311  0.00  0.00    +0.180 C 
ATOM     14  C   LIG    1        3.202   6.237   0.147  0.00  0.00    +0.050 C 
ATOM     15  C   LIG    1        3.711   5.292   1.260  0.00  0.00    -0.010 C 
ATOM     16  C   LIG    1        3.031   3.939   0.981  0.00  0.00    +0.200 C 
BRANCH  15  17
ATOM     17  C   LIG    1        5.232   5.149   1.179  0.00  0.00    +0.180 C 
BRANCH  17  18
ATOM     18  O   LIG    1        5.848   6.383   1.554  0.00  0.00    -0.570 OA
ATOM     19  H   LIG    1        6.814   6.365   1.526  0.00  0.00    +0.380 HD
ENDBRANCH  17  18
ENDBRANCH  15  17
ENDBRANCH   8  12
ENDBRANCH   3   5
BRANCH   2  20
ATOM     20  C   LIG    1       -3.622  -0.992   0.673  0.00  0.00    +0.010 A 
ATOM     21  C   LIG    1       -3.681  -2.165   1.342  0.00  0.00    -0.010 A 
ATOM     22  S   LIG    1       -5.205  -2.890   1.069  0.00  0.00    +0.200 S 
ATOM     23  C   LIG    1       -5.685  -1.541   0.046  0.00  0.00    +0.140 A 
ATOM     24  N   LIG    1       -4.715  -0.678  -0.012  0.00  0.00    -0.420 NA
BRANCH  23  25
ATOM     25  C   LIG    1       -6.990  -1.407  -0.635  0.00  0.00    +0.050 A 
ATOM     26  C   LIG    1       -8.016  -2.300  -0.586  0.00  0.00    +0.180 A 
ATOM     27  N   LIG    1       -9.023  -1.783  -1.350  0.00  0.00    -0.560 N 
ATOM     28  H   LIG    1       -9.890  -2.188  -1.508  0.00  0.00    +0.430 HD
ATOM     29  C   LIG    1       -8.586  -0.600  -1.851  0.00  0.00    +0.420 A 
ATOM     30  N   LIG    1       -7.375  -0.380  -1.422  0.00  0.00    -0.450 NA
ENDBRANCH  23  25
ENDBRANCH   2  20
TORSDOF 6
