REMARK  Name = ZINCvU0000000JAU.0
REMARK                            x       y       z     vdW  Elec       q    Type
REMARK                         _______ _______ _______ _____ _____    ______ ____
ROOT
ATOM      1  C   LIG    1       -3.767   3.457  -0.623  0.00  0.00    -0.220 A 
ATOM      2  C   LIG    1       -4.705   4.431  -0.336  0.00  0.00    +0.280 A 
ATOM      3  N   LIG    1       -4.110   5.360   0.435  0.00  0.00    -0.310 N 
ATOM      4  N   LIG    1       -2.779   5.000   0.663  0.00  0.00    -0.280 NA
ATOM      5  C   LIG    1       -2.526   3.869   0.044  0.00  0.00    +0.160 A 
ENDROOT
BRANCH   3   6
ATOM      6  C   LIG    1       -4.732   6.511   0.936  0.00  0.00    +0.150 A 
ATOM      7  C   LIG    1       -6.065   6.766   0.641  0.00  0.00    -0.010 A 
ATOM      8  C   LIG    1       -6.676   7.899   1.141  0.00  0.00    +0.050 A 
ATOM      9  C   LIG    1       -5.960   8.784   1.926  0.00  0.00    +0.010 A 
ATOM     10  C   LIG    1       -4.631   8.536   2.216  0.00  0.00    +0.040 A 
ATOM     11  C   LIG    1       -4.015   7.402   1.724  0.00  0.00    +0.020 A 
ENDBRANCH   3   6
BRANCH   5  12
ATOM     12  C   LIG    1       -1.234   3.143   0.029  0.00  0.00    -0.070 A 
ATOM     13  C   LIG    1       -1.216   1.748   0.017  0.00  0.00    +0.090 A 
ATOM     14  C   LIG    1       -0.013   1.076   0.008  0.00  0.00    -0.010 A 
ATOM     15  C   LIG    1        1.181   1.786   0.000  0.00  0.00    +0.140 A 
ATOM     16  C   LIG    1        1.166   3.174   0.007  0.00  0.00    -0.080 A 
ATOM     17  C   LIG    1       -0.034   3.853   0.022  0.00  0.00    +0.090 A 
BRANCH  15  18
ATOM     18  O   LIG    1        2.365   1.120  -0.014  0.00  0.00    -0.310 OA
ATOM     19  C   LIG    1        3.554   1.912  -0.021  0.00  0.00    +0.240 C 
ENDBRANCH  15  18
ENDBRANCH   5  12
BRANCH   1  21
ATOM     20  C   LIG    1       -5.182   2.006  -1.988  0.00  0.00    -0.140 C 
ATOM     21  C   LIG    1       -3.971   2.252  -1.434  0.00  0.00    +0.190 C 
BRANCH  20  22
ATOM     22  C   LIG    1       -5.379   0.843  -2.771  0.00  0.00    +0.430 C 
ATOM     23  O   LIG    1       -4.459   0.063  -2.945  0.00  0.00    -0.470 OA
BRANCH  22  27
ATOM     24  C   LIG    1       -9.177   0.072  -4.512  0.00  0.00    +0.160 A 
ATOM     25  C   LIG    1       -8.129  -0.819  -4.712  0.00  0.00    -0.020 A 
ATOM     26  C   LIG    1       -6.896  -0.573  -4.149  0.00  0.00    +0.120 A 
ATOM     27  C   LIG    1       -6.699   0.575  -3.377  0.00  0.00    -0.200 A 
ATOM     28  C   LIG    1       -7.757   1.465  -3.173  0.00  0.00    +0.100 A 
ATOM     29  C   LIG    1       -8.985   1.215  -3.744  0.00  0.00    -0.090 A 
BRANCH  24  31
ATOM     30  C   LIG    1      -11.422   0.783  -4.822  0.00  0.00    +0.240 C 
ATOM     31  O   LIG    1      -10.390  -0.174  -5.068  0.00  0.00    -0.310 OA
ENDBRANCH  24  31
ENDBRANCH  22  27
ENDBRANCH  20  22
ENDBRANCH   1  21
TORSDOF 7
