REMARK  Name = ZINCvU0000000Htl.0
REMARK                            x       y       z     vdW  Elec       q    Type
REMARK                         _______ _______ _______ _____ _____    ______ ____
ROOT
ATOM      1  C   LIG    1        2.825  -3.538  -1.200  0.00  0.00    +0.160 C 
ATOM      2  N   LIG    1        3.173  -3.462   0.039  0.00  0.00    -0.230 NA
ATOM      3  N   LIG    1        2.305  -2.713   0.830  0.00  0.00    -0.460 N 
ATOM      4  C   LIG    1        1.207  -2.211  -0.012  0.00  0.00    +0.260 C 
ATOM      5  C   LIG    1        2.446  -2.486   2.151  0.00  0.00    +0.590 C 
ATOM      6  O   LIG    1        1.679  -1.737   2.725  0.00  0.00    -0.490 OA
ATOM      7  C   LIG    1        1.542  -2.765  -1.411  0.00  0.00    +0.090 C 
ENDROOT
BRANCH   4   8
ATOM      8  C   LIG    1        1.196  -0.704  -0.026  0.00  0.00    -0.100 A 
ATOM      9  C   LIG    1       -0.006  -0.022  -0.010  0.00  0.00    +0.060 A 
ATOM     10  C   LIG    1       -0.017   1.360  -0.022  0.00  0.00    -0.010 A 
ATOM     11  C   LIG    1        1.176   2.061  -0.052  0.00  0.00    +0.100 A 
ATOM     12  C   LIG    1        2.380   1.377  -0.069  0.00  0.00    -0.010 A 
ATOM     13  F   LIG    1        1.166   3.412  -0.064  0.00  0.00    -0.140 F 
ATOM     14  C   LIG    1        2.389  -0.005  -0.056  0.00  0.00    +0.050 A 
ENDBRANCH   4   8
BRANCH   5  15
ATOM     15  C   LIG    1        3.534  -3.146   2.902  0.00  0.00    -0.140 A 
ATOM     16  C   LIG    1        4.493  -3.903   2.227  0.00  0.00    +0.130 A 
ATOM     17  C   LIG    1        5.509  -4.513   2.933  0.00  0.00    -0.010 A 
ATOM     18  C   LIG    1        5.573  -4.385   4.309  0.00  0.00    +0.050 A 
ATOM     19  C   LIG    1        4.623  -3.641   4.987  0.00  0.00    +0.010 A 
ATOM     20  C   LIG    1        3.604  -3.021   4.292  0.00  0.00    +0.020 A 
ATOM     21 CL   LIG    1        2.413  -2.087   5.143  0.00  0.00    -0.040 Cl
ENDBRANCH   5  15
BRANCH   1  25
ATOM     22  C   LIG    1        4.948  -5.636  -4.222  0.00  0.00    +0.190 A 
ATOM     23  C   LIG    1        3.776  -4.959  -4.537  0.00  0.00    -0.110 A 
ATOM     24  C   LIG    1        3.082  -4.281  -3.559  0.00  0.00    +0.130 A 
ATOM     25  C   LIG    1        3.561  -4.265  -2.247  0.00  0.00    -0.110 A 
ATOM     26  C   LIG    1        4.744  -4.949  -1.931  0.00  0.00    +0.210 A 
ATOM     27  C   LIG    1        5.430  -5.630  -2.920  0.00  0.00    -0.110 A 
BRANCH  22  29
ATOM     28  C   LIG    1        5.073  -6.272  -6.508  0.00  0.00    +0.240 C 
ATOM     29  O   LIG    1        5.624  -6.306  -5.191  0.00  0.00    -0.310 OA
ENDBRANCH  22  29
BRANCH  26  30
ATOM     30  O   LIG    1        5.215  -4.943  -0.657  0.00  0.00    -0.290 OA
ATOM     31  C   LIG    1        6.425  -5.661  -0.408  0.00  0.00    +0.240 C 
ENDBRANCH  26  30
ENDBRANCH   1  25
TORSDOF 5
