REMARK  Name = ZINCrg00000IZCUA.0
REMARK                            x       y       z     vdW  Elec       q    Type
REMARK                         _______ _______ _______ _____ _____    ______ ____
ROOT
ATOM      1  C   LIG    1       -5.018   4.465   1.185  0.00  0.00    +0.580 C 
ATOM      2  N   LIG    1       -5.892   5.177   0.447  0.00  0.00    -0.620 N 
ATOM      3  C   LIG    1       -5.933   5.228  -1.025  0.00  0.00    +0.270 C 
ATOM      4  C   LIG    1       -7.395   5.619  -1.366  0.00  0.00    +0.040 C 
ATOM      5  C   LIG    1       -7.718   6.625  -0.230  0.00  0.00    +0.060 C 
ATOM      6  C   LIG    1       -6.960   6.037   0.979  0.00  0.00    +0.360 C 
ATOM      7  O   LIG    1       -5.138   4.418   2.394  0.00  0.00    -0.520 OA
ENDROOT
BRANCH   1  15
ATOM      8  C   LIG    1       -0.315   0.057   0.139  0.00  0.00    +0.120 C 
ATOM      9  C   LIG    1       -0.067   0.765  -1.168  0.00  0.00    +0.520 C 
ATOM     10  N   LIG    1       -0.810   1.839  -1.504  0.00  0.00    -0.550 N 
ATOM     11  C   LIG    1       -0.662   2.607  -2.743  0.00  0.00    +0.280 C 
ATOM     12  C   LIG    1       -1.724   3.715  -2.662  0.00  0.00    +0.110 C 
ATOM     13  C   LIG    1       -2.414   3.481  -1.335  0.00  0.00    -0.140 A 
ATOM     14  C   LIG    1       -3.444   4.159  -0.723  0.00  0.00    +0.090 A 
ATOM     15  C   LIG    1       -3.914   3.741   0.525  0.00  0.00    -0.160 A 
ATOM     16  C   LIG    1       -3.330   2.632   1.143  0.00  0.00    +0.120 A 
ATOM     17  C   LIG    1       -2.303   1.960   0.526  0.00  0.00    -0.020 A 
ATOM     18  C   LIG    1       -1.831   2.378  -0.723  0.00  0.00    +0.180 A 
ATOM     19  O   LIG    1        0.801   0.370  -1.917  0.00  0.00    -0.510 OA
ENDBRANCH   1  15
BRANCH   6  20
ATOM     20  C   LIG    1       -7.899   5.223   1.831  0.00  0.00    +0.190 A 
ATOM     21  N   LIG    1       -8.374   5.558   3.004  0.00  0.00    -0.420 NA
ATOM     22  C   LIG    1       -9.165   4.529   3.382  0.00  0.00    +0.130 A 
ATOM     23  N   LIG    1       -9.125   3.639   2.427  0.00  0.00    -0.350 NA
ATOM     24  O   LIG    1       -8.408   4.024   1.528  0.00  0.00    +0.110 OA
BRANCH  22  25
ATOM     25  C   LIG    1       -9.936   4.430   4.647  0.00  0.00    +0.620 C 
ATOM     26  O   LIG    1       -9.889   5.332   5.460  0.00  0.00    -0.500 OA
ATOM     27  N   LIG    1      -10.688   3.339   4.894  0.00  0.00    -0.830 N 
ATOM     28  H   LIG    1      -11.191   3.274   5.721  0.00  0.00    +0.420 HD
ATOM     29  H   LIG    1      -10.725   2.619   4.246  0.00  0.00    +0.410 HD
ENDBRANCH  22  25
ENDBRANCH   6  20
TORSDOF 3
