REMARK  Name = ZINCtV00000L6kLr.0
REMARK                            x       y       z     vdW  Elec       q    Type
REMARK                         _______ _______ _______ _____ _____    ______ ____
ROOT
ATOM      1  N   LIG    1        4.392  -0.709  -0.046  0.00  0.00    -0.660 NA
ATOM      2  H   LIG    1        5.172  -1.286  -0.058  0.00  0.00    +0.380 HD
ATOM      3  C   LIG    1        4.539   0.585  -0.041  0.00  0.00    +0.400 C 
ATOM      4  S   LIG    1        6.077   1.466  -0.052  0.00  0.00    -0.080 S 
ATOM      5  C   LIG    1        5.298   3.115  -0.034  0.00  0.00    +0.070 C 
ATOM      6  C   LIG    1        3.818   2.808  -0.025  0.00  0.00    +0.530 C 
ATOM      7  O   LIG    1        2.967   3.672  -0.017  0.00  0.00    -0.410 OA
ATOM      8  N   LIG    1        3.531   1.518  -0.024  0.00  0.00    -0.460 N 
ENDROOT
BRANCH   8   9
ATOM      9  C   LIG    1        2.201   1.103  -0.013  0.00  0.00    +0.210 A 
ATOM     10  N   LIG    1        1.177   1.895   0.001  0.00  0.00    -0.460 NA
ATOM     11  C   LIG    1       -0.016   1.331   0.009  0.00  0.00    +0.250 A 
ATOM     12  C   LIG    1        0.002  -0.004   0.002  0.00  0.00    -0.260 A 
ATOM     13  S   LIG    1        1.684  -0.527  -0.017  0.00  0.00    +0.270 S 
BRANCH  12  14
ATOM     14  C   LIG    1       -1.205  -0.906   0.009  0.00  0.00    +0.200 C 
BRANCH  14  15
ATOM     15  C   LIG    1       -1.622  -1.199  -1.409  0.00  0.00    -0.060 A 
ATOM     16  C   LIG    1       -1.264  -2.395  -2.001  0.00  0.00    +0.040 A 
ATOM     17  C   LIG    1       -1.646  -2.665  -3.303  0.00  0.00    +0.040 A 
ATOM     18  C   LIG    1       -2.386  -1.739  -4.012  0.00  0.00    +0.040 A 
ATOM     19  C   LIG    1       -2.746  -0.541  -3.421  0.00  0.00    -0.030 A 
ATOM     20 CL   LIG    1       -3.675   0.624  -4.312  0.00  0.00    -0.050 Cl
ATOM     21  C   LIG    1       -2.367  -0.273  -2.116  0.00  0.00    -0.020 A 
ATOM     22 CL   LIG    1       -2.824   1.227  -1.371  0.00  0.00    -0.040 Cl
ENDBRANCH  14  15
ENDBRANCH  12  14
ENDBRANCH   8   9
BRANCH   5  23
ATOM     23  C   LIG    1        5.676   3.902  -1.290  0.00  0.00    +0.150 C 
BRANCH  23  24
ATOM     24  C   LIG    1        7.151   4.207  -1.267  0.00  0.00    -0.090 A 
ATOM     25  C   LIG    1        7.599   5.420  -0.779  0.00  0.00    +0.040 A 
ATOM     26  C   LIG    1        8.953   5.698  -0.752  0.00  0.00    +0.020 A 
ATOM     27  C   LIG    1        9.859   4.768  -1.225  0.00  0.00    +0.030 A 
ATOM     28  C   LIG    1        9.412   3.556  -1.718  0.00  0.00    +0.030 A 
ATOM     29  C   LIG    1        8.058   3.275  -1.740  0.00  0.00    -0.030 A 
ATOM     30 CL   LIG    1        7.496   1.754  -2.360  0.00  0.00    -0.040 Cl
ENDBRANCH  23  24
ENDBRANCH   5  23
TORSDOF 5
