REMARK  Name = ZINCpe00000gLHQm.0
REMARK                            x       y       z     vdW  Elec       q    Type
REMARK                         _______ _______ _______ _____ _____    ______ ____
ROOT
ATOM      1  C   LIG    1       -0.234   7.366  -1.399  0.00  0.00    +0.540 C 
ATOM      2  N   LIG    1       -1.447   7.925  -1.216  0.00  0.00    -0.650 N 
ATOM      3  C   LIG    1       -2.818   7.436  -1.006  0.00  0.00    +0.260 C 
ATOM      4  C   LIG    1       -3.111   8.748  -0.259  0.00  0.00    +0.250 C 
ATOM      5  C   LIG    1       -1.982   9.293  -1.146  0.00  0.00    +0.280 C 
ATOM      6  O   LIG    1        0.741   8.070  -1.556  0.00  0.00    -0.500 OA
ENDROOT
BRANCH   4   7
ATOM      7  N   LIG    1       -4.429   9.318  -0.547  0.00  0.00    -0.700 N 
ATOM      8  H   LIG    1       -4.620   9.678  -1.427  0.00  0.00    +0.410 HD
BRANCH   7   9
ATOM      9  C   LIG    1       -5.403   9.343   0.438  0.00  0.00    +0.440 A 
ATOM     10  C   LIG    1       -5.139   8.828   1.709  0.00  0.00    -0.150 A 
ATOM     11  C   LIG    1       -6.143   8.877   2.657  0.00  0.00    +0.350 A 
ATOM     12  N   LIG    1       -7.314   9.407   2.333  0.00  0.00    -0.560 NA
ATOM     13  C   LIG    1       -7.531   9.885   1.124  0.00  0.00    +0.540 A 
ATOM     14  N   LIG    1       -6.601   9.864   0.191  0.00  0.00    -0.580 NA
ENDBRANCH   7   9
ENDBRANCH   4   7
BRANCH   1  15
ATOM     15  C   LIG    1       -0.090   5.866  -1.407  0.00  0.00    +0.260 C 
BRANCH  15  18
ATOM     16  C   LIG    1        3.626   5.560  -2.275  0.00  0.00    +0.090 C 
ATOM     17  C   LIG    1        2.339   5.937  -1.588  0.00  0.00    +0.520 C 
ATOM     18  N   LIG    1        1.161   5.499  -2.075  0.00  0.00    -0.720 N 
ATOM     19  H   LIG    1        1.142   4.942  -2.869  0.00  0.00    +0.410 HD
ATOM     20  O   LIG    1        2.363   6.634  -0.596  0.00  0.00    -0.520 OA
ENDBRANCH  15  18
BRANCH  15  21
ATOM     21  C   LIG    1       -0.070   5.347   0.032  0.00  0.00    +0.090 C 
BRANCH  21  22
ATOM     22  C   LIG    1       -0.050   3.840   0.023  0.00  0.00    -0.080 A 
ATOM     23  C   LIG    1        1.156   3.165   0.008  0.00  0.00    +0.010 A 
ATOM     24  C   LIG    1        1.175   1.783   0.000  0.00  0.00    +0.000 A 
ATOM     25  C   LIG    1       -0.013   1.076   0.008  0.00  0.00    +0.000 A 
ATOM     26  C   LIG    1       -1.219   1.751   0.017  0.00  0.00    +0.000 A 
ATOM     27  C   LIG    1       -1.238   3.133   0.029  0.00  0.00    +0.000 A 
ENDBRANCH  21  22
ENDBRANCH  15  21
ENDBRANCH   1  15
TORSDOF 6
