REMARK  Name = ZINCpk00000y6wyE.0
REMARK                            x       y       z     vdW  Elec       q    Type
REMARK                         _______ _______ _______ _____ _____    ______ ____
ROOT
ATOM      1  C   LIG    1        1.725   3.217   0.003  0.00  0.00    +0.250 C 
ATOM      2  O   LIG    1        2.768   3.388  -0.959  0.00  0.00    -0.350 OA
ATOM      3  C   LIG    1        3.260   4.726  -1.056  0.00  0.00    +0.220 C 
ATOM      4  C   LIG    1        3.847   5.152   0.292  0.00  0.00    +0.000 C 
ATOM      5  C   LIG    1        2.769   5.024   1.373  0.00  0.00    +0.020 C 
ATOM      6  C   LIG    1        2.251   3.583   1.394  0.00  0.00    +0.240 C 
ENDROOT
BRANCH   1  11
ATOM      7  N   LIG    1       -0.017   1.365   0.009  0.00  0.00    -0.450 N 
ATOM      8  C   LIG    1        0.002  -0.004   0.002  0.00  0.00    +0.130 A 
ATOM      9  C   LIG    1        1.296  -0.376  -0.012  0.00  0.00    +0.140 A 
ATOM     10  N   LIG    1        2.047   0.735  -0.013  0.00  0.00    -0.460 NA
ATOM     11  C   LIG    1        1.268   1.782  -0.001  0.00  0.00    +0.210 A 
BRANCH   7  13
ATOM     12  C   LIG    1       -1.556   2.624  -1.413  0.00  0.00    +0.040 C 
ATOM     13  C   LIG    1       -1.207   2.218   0.020  0.00  0.00    +0.280 C 
ENDBRANCH   7  13
ENDBRANCH   1  11
BRANCH   6  14
ATOM     14  N   LIG    1        1.167   3.466   2.373  0.00  0.00    -0.720 N 
ATOM     15  H   LIG    1        0.244   3.553   2.087  0.00  0.00    +0.390 HD
ATOM     16  C   LIG    1        1.453   3.238   3.670  0.00  0.00    +0.510 C 
ATOM     17  O   LIG    1        2.607   3.130   4.027  0.00  0.00    -0.510 OA
BRANCH  16  18
ATOM     18  C   LIG    1        0.338   3.119   4.677  0.00  0.00    +0.320 C 
BRANCH  18  19
ATOM     19  N   LIG    1        0.904   2.873   6.006  0.00  0.00    -0.480 N 
ATOM     20  C   LIG    1        1.109   1.598   6.423  0.00  0.00    +0.300 A 
ATOM     21  C   LIG    1        1.636   1.347   7.644  0.00  0.00    -0.070 A 
ATOM     22  C   LIG    1        1.966   2.410   8.497  0.00  0.00    +0.020 A 
ATOM     23  C   LIG    1        1.754   3.691   8.077  0.00  0.00    -0.100 A 
ATOM     24  C   LIG    1        2.547   2.141   9.860  0.00  0.00    +0.100 C 
ATOM     25  C   LIG    1        1.211   3.916   6.801  0.00  0.00    +0.520 A 
ATOM     26  O   LIG    1        1.016   5.057   6.413  0.00  0.00    -0.550 OA
ENDBRANCH  18  19
ENDBRANCH  16  18
ENDBRANCH   6  14
TORSDOF 5
