REMARK  Name = ZINCkj000005k9Qi.1
REMARK                            x       y       z     vdW  Elec       q    Type
REMARK                         _______ _______ _______ _____ _____    ______ ____
ROOT
ATOM      1  C   LIG    1        3.711  -0.707  -0.039  0.00  0.00    +0.340 C 
ENDROOT
BRANCH   1   2
ATOM      2  C   LIG    1        2.396   0.029  -0.022  0.00  0.00    -0.080 A 
ATOM      3  C   LIG    1        1.208  -0.679  -0.014  0.00  0.00    +0.030 A 
ATOM      4  C   LIG    1        0.002  -0.004   0.002  0.00  0.00    +0.130 A 
ATOM      5  C   LIG    1       -0.017   1.378   0.010  0.00  0.00    -0.660 A 
ATOM      6  C   LIG    1        1.171   2.086   0.002  0.00  0.00    +0.130 A 
ATOM      7  C   LIG    1        2.377   1.411  -0.014  0.00  0.00    +0.030 A 
BRANCH   5   8
ATOM      8  S   LIG    1       -1.554   2.238   0.022  0.00  0.00    +2.700 S 
ATOM      9  O   LIG    1       -2.517   1.347  -0.523  0.00  0.00    -0.950 OA
ATOM     10  O   LIG    1       -1.297   3.528  -0.517  0.00  0.00    -0.950 OA
BRANCH   8  11
ATOM     11  N   LIG    1       -1.975   2.469   1.607  0.00  0.00    -1.250 NA
ATOM     12  H   LIG    1       -2.799   2.930   1.828  0.00  0.00    +0.430 HD
ATOM     13  H   LIG    1       -1.396   2.143   2.314  0.00  0.00    +0.420 HD
ENDBRANCH   8  11
ENDBRANCH   5   8
ENDBRANCH   1   2
BRANCH   1  14
ATOM     14  N   LIG    1        4.124  -0.938  -1.425  0.00  0.00    -0.650 NA
ATOM     15  H   LIG    1        3.566  -0.626  -2.155  0.00  0.00    +0.430 HD
BRANCH  14  19
ATOM     16  C   LIG    1        8.203  -3.219   0.117  0.00  0.00    +0.200 C 
ATOM     17  C   LIG    1        7.293  -2.711  -0.971  0.00  0.00    +0.230 C 
ATOM     18  C   LIG    1        6.121  -2.055  -0.651  0.00  0.00    -0.060 C 
ATOM     19  C   LIG    1        5.310  -1.602  -1.694  0.00  0.00    +0.490 C 
ATOM     20  N   LIG    1        5.691  -1.822  -2.948  0.00  0.00    -0.530 NA
ATOM     21  C   LIG    1        6.822  -2.448  -3.207  0.00  0.00    +0.440 C 
ATOM     22  C   LIG    1        7.222  -2.674  -4.643  0.00  0.00    +0.240 C 
ATOM     23  N   LIG    1        7.609  -2.888  -2.246  0.00  0.00    -0.540 NA
ATOM     24  H   LIG    1        8.431  -3.348  -2.475  0.00  0.00    +0.450 HD
ENDBRANCH  14  19
ENDBRANCH   1  14
TORSDOF 5
