REMARK  Name = ZINCpe000000V8U5.0
REMARK                            x       y       z     vdW  Elec       q    Type
REMARK                         _______ _______ _______ _____ _____    ______ ____
ROOT
ATOM      1  C   LIG    1        1.755  -1.025  -1.846  0.00  0.00    -0.460 C 
ATOM      2  C   LIG    1        1.924  -1.839  -3.156  0.00  0.00    +0.090 C 
ATOM      3  C   LIG    1        3.330  -2.459  -2.958  0.00  0.00    +0.280 C 
ATOM      4  N   LIG    1        3.403  -2.776  -1.520  0.00  0.00    -0.600 N 
ATOM      5  C   LIG    1        4.199  -3.710  -0.962  0.00  0.00    +0.670 C 
ATOM      6  O   LIG    1        4.176  -3.887   0.240  0.00  0.00    -0.560 OA
ATOM      7  C   LIG    1        2.465  -1.903  -0.794  0.00  0.00    +0.320 C 
ENDROOT
BRANCH   1   8
ATOM      8  S   LIG    1       -0.000  -0.824  -1.437  0.00  0.00    +2.620 S 
ATOM      9  O   LIG    1       -0.626   0.068  -2.348  0.00  0.00    -0.930 OA
ATOM     10  O   LIG    1       -0.586  -2.081  -1.123  0.00  0.00    -0.930 OA
BRANCH   8  11
ATOM     11  N   LIG    1        0.002  -0.004   0.002  0.00  0.00    -0.990 NA
ATOM     12  C   LIG    1       -0.018   1.461   0.010  0.00  0.00    +0.310 C 
BRANCH  11  13
ATOM     13  C   LIG    1        0.024  -0.743   1.267  0.00  0.00    +0.390 C 
BRANCH  13  14
ATOM     14  C   LIG    1       -1.384  -0.909   1.776  0.00  0.00    +0.440 C 
ATOM     15  O   LIG    1       -2.312  -0.456   1.147  0.00  0.00    -0.490 OA
BRANCH  14  17
ATOM     16  C   LIG    1       -2.991  -1.682   3.358  0.00  0.00    +0.270 C 
ATOM     17  O   LIG    1       -1.609  -1.560   2.929  0.00  0.00    -0.360 OA
ENDBRANCH  14  17
ENDBRANCH  13  14
ENDBRANCH  11  13
ENDBRANCH   8  11
ENDBRANCH   1   8
BRANCH   5  18
ATOM     18  O   LIG    1        5.019  -4.446  -1.735  0.00  0.00    -0.360 OA
BRANCH  18  19
ATOM     19  C   LIG    1        5.848  -5.432  -1.065  0.00  0.00    +0.290 C 
BRANCH  19  20
ATOM     20  C   LIG    1        6.692  -6.153  -2.084  0.00  0.00    -0.100 A 
ATOM     21  C   LIG    1        6.219  -7.305  -2.684  0.00  0.00    +0.040 A 
ATOM     22  C   LIG    1        6.992  -7.964  -3.621  0.00  0.00    +0.010 A 
ATOM     23  C   LIG    1        8.242  -7.477  -3.952  0.00  0.00    +0.020 A 
ATOM     24  C   LIG    1        8.718  -6.328  -3.348  0.00  0.00    +0.010 A 
ATOM     25  C   LIG    1        7.943  -5.666  -2.414  0.00  0.00    +0.030 A 
ENDBRANCH  19  20
ENDBRANCH  18  19
ENDBRANCH   5  18
TORSDOF 8
