REMARK  Name = ZINCrD00000F5Lxe.1
REMARK                            x       y       z     vdW  Elec       q    Type
REMARK                         _______ _______ _______ _____ _____    ______ ____
ROOT
ATOM      1  C   LIG    1       -0.138  -6.383  -1.225  0.00  0.00    +0.430 C 
ENDROOT
BRANCH   1   2
ATOM      2  C   LIG    1       -1.585  -6.796  -1.153  0.00  0.00    +0.270 A 
ATOM      3  N   LIG    1       -2.269  -6.925  -0.054  0.00  0.00    -0.450 NA
ATOM      4  C   LIG    1       -3.538  -7.310  -0.348  0.00  0.00    +0.040 A 
ATOM      5  C   LIG    1       -4.666  -7.586   0.428  0.00  0.00    +0.150 A 
ATOM      6  C   LIG    1       -5.833  -7.961  -0.175  0.00  0.00    -0.190 A 
ATOM      7  C   LIG    1       -5.912  -8.070  -1.556  0.00  0.00    +0.090 A 
ATOM      8  C   LIG    1       -4.811  -7.803  -2.343  0.00  0.00    +0.030 A 
ATOM      9  C   LIG    1       -3.618  -7.420  -1.747  0.00  0.00    +0.080 A 
ATOM     10  N   LIG    1       -2.368  -7.083  -2.228  0.00  0.00    -0.590 N 
ATOM     11  H   LIG    1       -2.098  -7.059  -3.159  0.00  0.00    +0.430 HD
BRANCH   6  12
ATOM     12  C   LIG    1       -7.046  -8.258   0.667  0.00  0.00    +0.510 C 
ATOM     13  F   LIG    1       -6.640  -8.751   1.912  0.00  0.00    -0.180 F 
ATOM     14  F   LIG    1       -7.838  -9.215   0.023  0.00  0.00    -0.180 F 
ATOM     15  F   LIG    1       -7.787  -7.086   0.849  0.00  0.00    -0.180 F 
ENDBRANCH   6  12
ENDBRANCH   1   2
BRANCH   1  17
ATOM     16  C   LIG    1       -0.069  -4.173  -2.471  0.00  0.00    +0.290 C 
ATOM     17  N   LIG    1       -0.046  -4.920  -1.211  0.00  0.00    -0.610 N 
ATOM     18  C   LIG    1        0.059  -4.263  -0.039  0.00  0.00    +0.570 C 
ATOM     19  O   LIG    1        0.157  -4.886   1.000  0.00  0.00    -0.500 OA
BRANCH  18  20
ATOM     20  C   LIG    1        0.054  -2.787  -0.018  0.00  0.00    -0.160 A 
ATOM     21  C   LIG    1        0.605  -2.070  -1.086  0.00  0.00    +0.100 A 
ATOM     22  C   LIG    1        0.600  -0.693  -1.075  0.00  0.00    -0.030 A 
ATOM     23  C   LIG    1        0.056  -0.004   0.001  0.00  0.00    +0.200 A 
ATOM     24  C   LIG    1       -0.501  -0.713   1.080  0.00  0.00    -0.230 A 
ATOM     25  C   LIG    1       -0.499  -2.109   1.065  0.00  0.00    +0.160 A 
BRANCH  24  26
ATOM     26  C   LIG    1       -1.083   0.012   2.217  0.00  0.00    +0.490 C 
ATOM     27  O   LIG    1       -1.083   1.225   2.227  0.00  0.00    -0.440 OA
ENDBRANCH  24  26
BRANCH  23  28
ATOM     28  O   LIG    1        0.058   1.351   0.008  0.00  0.00    -0.480 OA
ATOM     29  H   LIG    1        0.844   1.741   0.414  0.00  0.00    +0.400 HD
ENDBRANCH  23  28
ENDBRANCH  18  20
ENDBRANCH   1  17
TORSDOF 6
