REMARK  Name = ZINCrD00000F5LxE.0
REMARK                            x       y       z     vdW  Elec       q    Type
REMARK                         _______ _______ _______ _____ _____    ______ ____
ROOT
ATOM      1  C   LIG    1       -0.595   2.115  10.905  0.00  0.00    -0.710 A 
ATOM      2  C   LIG    1       -0.067   1.609   9.740  0.00  0.00    +0.210 A 
ATOM      3  C   LIG    1       -0.620   1.975   8.506  0.00  0.00    -0.140 A 
ATOM      4  C   LIG    1       -1.715   2.845   8.466  0.00  0.00    +0.140 A 
ATOM      5  C   LIG    1       -2.240   3.341   9.639  0.00  0.00    -0.080 A 
ATOM      6  C   LIG    1       -1.684   2.979  10.860  0.00  0.00    +0.240 A 
ENDROOT
BRANCH   1   7
ATOM      7  S   LIG    1        0.104   1.662  12.458  0.00  0.00    +2.700 S 
ATOM      8  O   LIG    1        1.205   0.811  12.169  0.00  0.00    -0.960 OA
ATOM      9  O   LIG    1       -0.981   1.274  13.289  0.00  0.00    -0.940 OA
BRANCH   7  10
ATOM     10  N   LIG    1        0.739   3.037  13.129  0.00  0.00    -1.110 NA
ATOM     11  H   LIG    1        1.696   3.111  13.267  0.00  0.00    +0.420 HD
BRANCH  10  13
ATOM     12  C   LIG    1        0.612   5.104  14.429  0.00  0.00    +0.030 C 
ATOM     13  C   LIG    1       -0.145   4.140  13.514  0.00  0.00    +0.270 C 
ENDBRANCH  10  13
ENDBRANCH   7  10
ENDBRANCH   1   7
BRANCH   3  14
ATOM     14  C   LIG    1       -0.055   1.442   7.258  0.00  0.00    +0.170 C 
ATOM     15  C   LIG    1       -0.594   1.792   6.070  0.00  0.00    -0.080 C 
BRANCH  15  16
ATOM     16  C   LIG    1       -0.050   1.278   4.866  0.00  0.00    +0.500 C 
ATOM     17  O   LIG    1        0.903   0.522   4.903  0.00  0.00    -0.510 OA
BRANCH  16  18
ATOM     18  O   LIG    1       -0.588   1.628   3.679  0.00  0.00    -0.350 OA
BRANCH  18  19
ATOM     19  C   LIG    1        0.011   1.072   2.506  0.00  0.00    +0.210 C 
BRANCH  19  20
ATOM     20  C   LIG    1       -0.729   1.579   1.267  0.00  0.00    +0.000 C 
ATOM     21  C   LIG    1       -2.164   1.050   1.278  0.00  0.00    +0.020 C 
ATOM     22  C   LIG    1       -2.904   1.556   0.038  0.00  0.00    +0.010 C 
ATOM     23  C   LIG    1       -2.188   1.063  -1.221  0.00  0.00    +0.000 C 
ATOM     24  C   LIG    1       -0.753   1.593  -1.232  0.00  0.00    -0.020 C 
ATOM     25  C   LIG    1       -0.773   3.123  -1.223  0.00  0.00    +0.010 C 
ATOM     26  C   LIG    1       -0.013   1.086   0.008  0.00  0.00    +0.030 C 
ENDBRANCH  19  20
ENDBRANCH  18  19
ENDBRANCH  16  18
ENDBRANCH  15  16
ENDBRANCH   3  14
BRANCH   6  27
ATOM     27  O   LIG    1       -2.205   3.471  12.013  0.00  0.00    -0.310 OA
ATOM     28  C   LIG    1       -3.323   4.353  11.895  0.00  0.00    +0.270 C 
ENDBRANCH   6  27
TORSDOF 9
