REMARK  Name = ZINCrH00000No4JO.0
REMARK                            x       y       z     vdW  Elec       q    Type
REMARK                         _______ _______ _______ _____ _____    ______ ____
ROOT
ATOM      1  C   LIG    1       -6.184   3.122   0.075  0.00  0.00    -0.100 A 
ATOM      2  C   LIG    1       -6.173   1.726   0.062  0.00  0.00    +0.040 A 
ATOM      3  C   LIG    1       -7.364   1.030   0.074  0.00  0.00    +0.120 A 
ATOM      4  C   LIG    1       -8.567   1.712   0.089  0.00  0.00    -0.650 A 
ATOM      5  C   LIG    1       -8.585   3.096   0.097  0.00  0.00    +0.120 A 
ATOM      6  C   LIG    1       -7.402   3.804   0.090  0.00  0.00    +0.050 A 
ENDROOT
BRANCH   4   7
ATOM      7  S   LIG    1      -10.084   0.815   0.099  0.00  0.00    +2.690 S 
ATOM      8  O   LIG    1      -11.060   1.684   0.657  0.00  0.00    -0.950 OA
ATOM      9  O   LIG    1       -9.788  -0.468   0.633  0.00  0.00    -0.950 OA
BRANCH   7  10
ATOM     10  N   LIG    1      -10.521   0.574  -1.480  0.00  0.00    -1.000 NA
ATOM     11  C   LIG    1      -11.367   1.551  -2.180  0.00  0.00    +0.290 C 
ATOM     12  C   LIG    1      -10.661   1.966  -3.480  0.00  0.00    +0.010 C 
ATOM     13  C   LIG    1      -10.335   0.716  -4.299  0.00  0.00    +0.020 C 
ATOM     14  C   LIG    1       -9.388  -0.185  -3.504  0.00  0.00    +0.010 C 
ATOM     15  C   LIG    1      -10.075  -0.623  -2.206  0.00  0.00    +0.290 C 
ENDBRANCH   7  10
ENDBRANCH   4   7
BRANCH   1  16
ATOM     16  C   LIG    1       -4.910   3.875   0.068  0.00  0.00    +0.420 C 
ATOM     17  O   LIG    1       -4.923   5.093   0.074  0.00  0.00    -0.450 OA
BRANCH  16  19
ATOM     18  C   LIG    1       -2.511   3.868   0.045  0.00  0.00    +0.160 C 
ATOM     19  C   LIG    1       -3.676   3.179   0.052  0.00  0.00    -0.130 C 
BRANCH  18  23
ATOM     20  C   LIG    1        1.183   1.786   0.000  0.00  0.00    +0.150 A 
ATOM     21  C   LIG    1       -0.013   1.076   0.008  0.00  0.00    -0.020 A 
ATOM     22  C   LIG    1       -1.214   1.746   0.017  0.00  0.00    +0.090 A 
ATOM     23  C   LIG    1       -1.232   3.147   0.030  0.00  0.00    -0.130 A 
ATOM     24  C   LIG    1       -0.025   3.857   0.023  0.00  0.00    +0.090 A 
ATOM     25  C   LIG    1        1.171   3.177   0.008  0.00  0.00    -0.080 A 
BRANCH  20  27
ATOM     26  C   LIG    1        3.555   1.911  -0.021  0.00  0.00    +0.240 C 
ATOM     27  O   LIG    1        2.365   1.120  -0.014  0.00  0.00    -0.310 OA
ENDBRANCH  20  27
ENDBRANCH  18  23
ENDBRANCH  16  19
ENDBRANCH   1  16
TORSDOF 6
