REMARK  Name = ZINCBI0000000bRR.1
REMARK                            x       y       z     vdW  Elec       q    Type
REMARK                         _______ _______ _______ _____ _____    ______ ____
ROOT
ATOM      1  C   LIG    1       -3.946   2.618   2.712  0.00  0.00    +0.620 C 
ATOM      2  N   LIG    1       -4.814   1.892   3.443  0.00  0.00    -0.630 N 
ATOM      3  O   LIG    1       -2.802   2.230   2.564  0.00  0.00    -0.510 OA
ENDROOT
BRANCH   1   9
ATOM      4  O   LIG    1       -0.428   5.780   0.275  0.00  0.00    -0.470 OA
ATOM      5  C   LIG    1       -1.624   5.796   0.497  0.00  0.00    +0.560 A 
ATOM      6  N   LIG    1       -2.215   4.787   1.172  0.00  0.00    -0.620 N 
ATOM      7  H   LIG    1       -1.676   4.043   1.483  0.00  0.00    +0.440 HD
ATOM      8  C   LIG    1       -3.568   4.797   1.426  0.00  0.00    +0.410 A 
ATOM      9  C   LIG    1       -4.379   3.878   2.094  0.00  0.00    -0.350 A 
ATOM     10  C   LIG    1       -5.696   4.386   2.058  0.00  0.00    +0.330 A 
ATOM     11  N   LIG    1       -5.677   5.526   1.427  0.00  0.00    -0.250 NA
ATOM     12  N   LIG    1       -4.366   5.807   1.018  0.00  0.00    -0.310 N 
ATOM     13  C   LIG    1       -3.838   6.886   0.316  0.00  0.00    +0.180 A 
ATOM     14  C   LIG    1       -4.648   7.928  -0.109  0.00  0.00    +0.030 A 
ATOM     15  C   LIG    1       -4.096   8.986  -0.805  0.00  0.00    +0.100 A 
ATOM     16  C   LIG    1       -2.739   9.017  -1.083  0.00  0.00    +0.030 A 
ATOM     17  C   LIG    1       -1.918   7.989  -0.668  0.00  0.00    +0.140 A 
ATOM     18  C   LIG    1       -2.463   6.916   0.035  0.00  0.00    -0.170 A 
ENDBRANCH   1   9
BRANCH   2  19
ATOM     19  C   LIG    1       -4.352   1.183   4.639  0.00  0.00    +0.270 C 
ATOM     20  C   LIG    1       -3.403   2.085   5.433  0.00  0.00    +0.040 C 
ATOM     21  C   LIG    1       -2.167   2.386   4.580  0.00  0.00    +0.030 C 
ATOM     22  C   LIG    1       -1.506   1.070   4.167  0.00  0.00    +0.250 C 
ATOM     23  N   LIG    1       -2.455   0.264   3.389  0.00  0.00    -0.380 N 
ATOM     24  H   LIG    1       -2.768   0.795   2.591  0.00  0.00    +0.420 HD
ATOM     25  C   LIG    1       -3.610  -0.089   4.224  0.00  0.00    +0.240 C 
BRANCH  23  26
ATOM     26  C   LIG    1       -1.792  -0.963   2.929  0.00  0.00    +0.290 C 
BRANCH  26  27
ATOM     27  C   LIG    1       -0.682  -0.607   1.975  0.00  0.00    -0.140 A 
ATOM     28  C   LIG    1        0.594  -0.372   2.454  0.00  0.00    +0.030 A 
ATOM     29  C   LIG    1        1.613  -0.051   1.577  0.00  0.00    +0.020 A 
ATOM     30  C   LIG    1        1.356   0.042   0.222  0.00  0.00    +0.040 A 
ATOM     31  C   LIG    1        0.080  -0.188  -0.256  0.00  0.00    +0.020 A 
ATOM     32  C   LIG    1       -0.940  -0.509   0.620  0.00  0.00    +0.040 A 
ENDBRANCH  26  27
ENDBRANCH  23  26
ENDBRANCH   2  19
BRANCH   2  33
ATOM     33  C   LIG    1       -6.221   1.812   3.041  0.00  0.00    +0.360 C 
BRANCH  33  34
ATOM     34  C   LIG    1       -7.097   2.218   4.198  0.00  0.00    -0.080 A 
ATOM     35  C   LIG    1       -7.953   1.305   4.796  0.00  0.00    -0.020 A 
ATOM     36  C   LIG    1       -8.738   1.713   5.858  0.00  0.00    +0.270 A 
ATOM     37  N   LIG    1       -8.687   2.956   6.295  0.00  0.00    -0.470 NA
ATOM     38  C   LIG    1       -7.890   3.852   5.748  0.00  0.00    +0.270 A 
ATOM     39  C   LIG    1       -7.072   3.516   4.686  0.00  0.00    -0.030 A 
ENDBRANCH  33  34
ENDBRANCH   2  33
TORSDOF 6
