REMARK  Name = ZINCBI0000000bRR.0
REMARK                            x       y       z     vdW  Elec       q    Type
REMARK                         _______ _______ _______ _____ _____    ______ ____
ROOT
ATOM      1  C   LIG    1       -2.731   2.747   2.042  0.00  0.00    +0.610 C 
ATOM      2  N   LIG    1       -1.788   1.940   1.516  0.00  0.00    -0.600 N 
ATOM      3  O   LIG    1       -2.422   3.840   2.478  0.00  0.00    -0.530 OA
ENDROOT
BRANCH   1   9
ATOM      4  O   LIG    1       -6.679   6.194   1.126  0.00  0.00    -0.480 OA
ATOM      5  C   LIG    1       -6.584   5.011   1.394  0.00  0.00    +0.570 A 
ATOM      6  N   LIG    1       -5.375   4.437   1.566  0.00  0.00    -0.620 N 
ATOM      7  H   LIG    1       -4.574   4.977   1.475  0.00  0.00    +0.430 HD
ATOM      8  C   LIG    1       -5.258   3.099   1.870  0.00  0.00    +0.400 A 
ATOM      9  C   LIG    1       -4.131   2.306   2.089  0.00  0.00    -0.340 A 
ATOM     10  C   LIG    1       -4.591   0.998   2.359  0.00  0.00    +0.330 A 
ATOM     11  N   LIG    1       -5.893   1.006   2.315  0.00  0.00    -0.260 NA
ATOM     12  N   LIG    1       -6.338   2.300   2.009  0.00  0.00    -0.320 N 
ATOM     13  C   LIG    1       -7.622   2.811   1.848  0.00  0.00    +0.180 A 
ATOM     14  C   LIG    1       -8.738   2.000   1.989  0.00  0.00    +0.030 A 
ATOM     15  C   LIG    1      -10.000   2.535   1.824  0.00  0.00    +0.100 A 
ATOM     16  C   LIG    1      -10.164   3.877   1.518  0.00  0.00    +0.030 A 
ATOM     17  C   LIG    1       -9.065   4.698   1.373  0.00  0.00    +0.130 A 
ATOM     18  C   LIG    1       -7.786   4.171   1.538  0.00  0.00    -0.170 A 
ENDBRANCH   1   9
BRANCH   2  19
ATOM     19  C   LIG    1       -0.418   2.430   1.345  0.00  0.00    +0.250 C 
ATOM     20  C   LIG    1        0.156   2.831   2.707  0.00  0.00    +0.050 C 
ATOM     21  C   LIG    1        1.558   3.413   2.508  0.00  0.00    +0.070 C 
ATOM     22  C   LIG    1        1.482   4.595   1.540  0.00  0.00    +0.250 C 
ATOM     23  N   LIG    1        0.951   4.142   0.249  0.00  0.00    -0.370 N 
ATOM     24  H   LIG    1        1.531   3.398  -0.109  0.00  0.00    +0.420 HD
ATOM     25  C   LIG    1       -0.421   3.649   0.420  0.00  0.00    +0.250 C 
BRANCH  23  26
ATOM     26  C   LIG    1        0.952   5.263  -0.700  0.00  0.00    +0.330 C 
BRANCH  26  27
ATOM     27  C   LIG    1        2.372   5.684  -0.978  0.00  0.00    -0.160 A 
ATOM     28  C   LIG    1        2.970   6.655  -0.196  0.00  0.00    +0.030 A 
ATOM     29  C   LIG    1        4.275   7.038  -0.447  0.00  0.00    +0.030 A 
ATOM     30  C   LIG    1        4.977   6.458  -1.488  0.00  0.00    +0.060 A 
ATOM     31  C   LIG    1        4.377   5.492  -2.273  0.00  0.00    +0.030 A 
ATOM     32  C   LIG    1        3.074   5.105  -2.018  0.00  0.00    +0.040 A 
ENDBRANCH  26  27
ENDBRANCH  23  26
ENDBRANCH   2  19
BRANCH   2  33
ATOM     33  C   LIG    1       -2.133   0.574   1.114  0.00  0.00    +0.350 C 
BRANCH  33  34
ATOM     34  C   LIG    1       -1.598  -0.399   2.133  0.00  0.00    -0.080 A 
ATOM     35  C   LIG    1       -1.136  -1.648   1.746  0.00  0.00    -0.020 A 
ATOM     36  C   LIG    1       -0.648  -2.512   2.708  0.00  0.00    +0.270 A 
ATOM     37  N   LIG    1       -0.627  -2.164   3.980  0.00  0.00    -0.470 NA
ATOM     38  C   LIG    1       -1.063  -0.987   4.384  0.00  0.00    +0.270 A 
ATOM     39  C   LIG    1       -1.560  -0.069   3.479  0.00  0.00    -0.040 A 
ENDBRANCH  33  34
ENDBRANCH   2  33
TORSDOF 6
