REMARK  Name = ZINCpk000000mWvw.0
REMARK                            x       y       z     vdW  Elec       q    Type
REMARK                         _______ _______ _______ _____ _____    ______ ____
ROOT
ATOM      1  C   LIG    1       -1.330   1.972  -3.522  0.00  0.00    +0.270 C 
ENDROOT
BRANCH   1   2
ATOM      2  C   LIG    1       -0.462   1.387  -2.438  0.00  0.00    +0.530 C 
ATOM      3  N   LIG    1       -0.769   1.595  -1.143  0.00  0.00    -0.550 N 
ATOM      4  C   LIG    1       -0.013   1.086   0.008  0.00  0.00    +0.290 C 
ATOM      5  C   LIG    1       -0.782   1.606   1.234  0.00  0.00    +0.340 C 
ATOM      6  N   LIG    1       -1.912   2.365   0.671  0.00  0.00    -0.400 N 
ATOM      7  N   LIG    1       -3.033   3.121   1.046  0.00  0.00    -0.260 NA
ATOM      8  C   LIG    1       -3.637   3.527  -0.040  0.00  0.00    +0.270 A 
ATOM      9  C   LIG    1       -2.926   3.048  -1.142  0.00  0.00    -0.140 A 
ATOM     10  C   LIG    1       -1.859   2.329  -0.674  0.00  0.00    +0.290 A 
ATOM     11  O   LIG    1        0.514   0.729  -2.732  0.00  0.00    -0.470 OA
ENDBRANCH   1   2
BRANCH   1  14
ATOM     12  C   LIG    1        0.691   0.961  -6.612  0.00  0.00    +0.090 C 
ATOM     13  C   LIG    1       -0.087   0.900  -5.323  0.00  0.00    +0.520 C 
ATOM     14  N   LIG    1       -0.574   2.031  -4.775  0.00  0.00    -0.720 N 
ATOM     15  H   LIG    1       -0.423   2.885  -5.211  0.00  0.00    +0.410 HD
ATOM     16  O   LIG    1       -0.276  -0.167  -4.778  0.00  0.00    -0.520 OA
ENDBRANCH   1  14
BRANCH   1  17
ATOM     17  C   LIG    1       -2.567   1.093  -3.714  0.00  0.00    +0.120 C 
BRANCH  17  18
ATOM     18  C   LIG    1       -3.495   1.741  -4.710  0.00  0.00    -0.170 A 
ATOM     19  C   LIG    1       -4.540   2.534  -4.428  0.00  0.00    +0.230 A 
ATOM     20  N   LIG    1       -5.147   2.936  -5.586  0.00  0.00    -0.590 N 
ATOM     21  H   LIG    1       -5.924   3.515  -5.637  0.00  0.00    +0.420 HD
ATOM     22  C   LIG    1       -4.490   2.398  -6.670  0.00  0.00    +0.090 A 
ATOM     23  C   LIG    1       -4.681   2.482  -8.045  0.00  0.00    -0.010 A 
ATOM     24  C   LIG    1       -3.832   1.811  -8.897  0.00  0.00    +0.020 A 
ATOM     25  C   LIG    1       -2.784   1.051  -8.397  0.00  0.00    -0.030 A 
ATOM     26  C   LIG    1       -2.577   0.954  -7.050  0.00  0.00    +0.040 A 
ATOM     27  C   LIG    1       -3.422   1.631  -6.168  0.00  0.00    -0.090 A 
ENDBRANCH  17  18
ENDBRANCH   1  17
TORSDOF 4
