REMARK  Name = ZINCkj000005j0xm.0
REMARK                            x       y       z     vdW  Elec       q    Type
REMARK                         _______ _______ _______ _____ _____    ______ ____
ROOT
ATOM      1  C   LIG    1       -4.040   0.973   0.294  0.00  0.00    +0.500 C 
ATOM      2  N   LIG    1       -2.759   1.388   0.351  0.00  0.00    -0.750 N 
ATOM      3  H   LIG    1       -2.369   1.863  -0.399  0.00  0.00    +0.400 HD
ATOM      4  O   LIG    1       -4.528   0.379   1.232  0.00  0.00    -0.490 OA
ENDROOT
BRANCH   1   6
ATOM      5  C   LIG    1       -4.956   2.759  -1.163  0.00  0.00    +0.090 C 
ATOM      6  C   LIG    1       -4.867   1.249  -0.936  0.00  0.00    +0.280 C 
BRANCH   6   7
ATOM      7  N   LIG    1       -6.213   0.702  -0.751  0.00  0.00    -0.380 N 
ATOM      8  C   LIG    1       -7.250   1.302  -0.141  0.00  0.00    +0.490 A 
ATOM      9  N   LIG    1       -8.273   0.488  -0.184  0.00  0.00    -0.530 NA
ATOM     10  C   LIG    1       -7.930  -0.636  -0.812  0.00  0.00    +0.430 A 
ATOM     11  N   LIG    1       -6.679  -0.551  -1.182  0.00  0.00    -0.320 NA
ENDBRANCH   6   7
ENDBRANCH   1   6
BRANCH   2  12
ATOM     12  C   LIG    1       -1.955   1.120   1.547  0.00  0.00    +0.320 C 
BRANCH  12  13
ATOM     13  C   LIG    1       -0.504   1.530   1.288  0.00  0.00    +0.240 C 
BRANCH  13  14
ATOM     14  C   LIG    1        0.276   1.455   2.575  0.00  0.00    -0.140 A 
ATOM     15  C   LIG    1        0.741   0.306   3.066  0.00  0.00    -0.060 A 
ATOM     16  S   LIG    1        1.598   0.611   4.572  0.00  0.00    +0.210 S 
ATOM     17  C   LIG    1        1.259   2.333   4.450  0.00  0.00    -0.020 A 
ATOM     18  C   LIG    1        0.560   2.574   3.340  0.00  0.00    +0.020 A 
ENDBRANCH  13  14
BRANCH  13  19
ATOM     19  N   LIG    1        0.093   0.622   0.300  0.00  0.00    -0.390 N 
ATOM     20  C   LIG    1       -0.595   0.779  -0.988  0.00  0.00    +0.320 C 
ATOM     21  C   LIG    1        1.517   0.943   0.137  0.00  0.00    +0.340 C 
ATOM     22  H   LIG    1       -0.003  -0.331   0.618  0.00  0.00    +0.430 HD
ENDBRANCH  13  19
ENDBRANCH  12  13
ENDBRANCH   2  12
TORSDOF 6
