REMARK  Name = ZINCpe000000YhKb.0
REMARK                            x       y       z     vdW  Elec       q    Type
REMARK                         _______ _______ _______ _____ _____    ______ ____
ROOT
ATOM      1  N   LIG    1       -2.345   0.934   0.018  0.00  0.00    -0.730 N 
ATOM      2  H   LIG    1       -2.332  -0.036   0.013  0.00  0.00    +0.400 HD
ATOM      3  C   LIG    1       -1.187   1.624   0.017  0.00  0.00    +0.710 C 
ATOM      4  N   LIG    1       -0.011   0.966   0.007  0.00  0.00    -0.740 N 
ATOM      5  H   LIG    1        0.002  -0.004   0.002  0.00  0.00    +0.400 HD
ATOM      6  O   LIG    1       -1.204   2.840   0.023  0.00  0.00    -0.570 OA
ENDROOT
BRANCH   1  10
ATOM      7  N   LIG    1       -5.337   1.690   1.627  0.00  0.00    -0.540 N 
ATOM      8  C   LIG    1       -5.943   1.164   0.398  0.00  0.00    +0.280 C 
ATOM      9  C   LIG    1       -4.758   0.738  -0.496  0.00  0.00    +0.060 C 
ATOM     10  C   LIG    1       -3.624   1.649   0.028  0.00  0.00    +0.270 C 
ATOM     11  C   LIG    1       -4.036   1.977   1.446  0.00  0.00    +0.500 C 
ATOM     12  O   LIG    1       -3.300   2.432   2.297  0.00  0.00    -0.500 OA
BRANCH   7  16
ATOM     13  C   LIG    1       -6.376   2.819   6.310  0.00  0.00    +0.360 C 
ATOM     14  N   LIG    1       -6.499   2.372   4.920  0.00  0.00    -0.370 N 
ATOM     15  C   LIG    1       -5.504   2.350   3.996  0.00  0.00    +0.230 A 
ATOM     16  C   LIG    1       -6.030   1.872   2.839  0.00  0.00    +0.000 A 
ATOM     17  C   LIG    1       -7.383   1.587   3.068  0.00  0.00    +0.230 A 
ATOM     18  N   LIG    1       -7.663   1.885   4.311  0.00  0.00    -0.280 NA
ENDBRANCH   7  16
ENDBRANCH   1  10
BRANCH   4  19
ATOM     19  C   LIG    1        1.248   1.716  -0.001  0.00  0.00    +0.460 C 
BRANCH  19  20
ATOM     20  C   LIG    1        2.379   0.774  -0.017  0.00  0.00    -0.180 C 
ATOM     21  C   LIG    1        3.282   0.024  -0.029  0.00  0.00    -0.110 C 
BRANCH  21  22
ATOM     22  C   LIG    1        4.383  -0.892  -0.045  0.00  0.00    +0.010 A 
ATOM     23  C   LIG    1        4.150  -2.268  -0.044  0.00  0.00    +0.040 A 
ATOM     24  C   LIG    1        5.215  -3.145  -0.064  0.00  0.00    +0.010 A 
ATOM     25  C   LIG    1        6.511  -2.663  -0.073  0.00  0.00    +0.020 A 
ATOM     26  C   LIG    1        6.749  -1.300  -0.069  0.00  0.00    +0.010 A 
ATOM     27  C   LIG    1        5.693  -0.412  -0.054  0.00  0.00    +0.040 A 
ENDBRANCH  21  22
ENDBRANCH  19  20
ENDBRANCH   4  19
TORSDOF 5
