REMARK  Name = ZINCnE000004TiMX.0
REMARK                            x       y       z     vdW  Elec       q    Type
REMARK                         _______ _______ _______ _____ _____    ______ ____
ROOT
ATOM      1  C   LIG    1       -0.013   1.086   0.008  0.00  0.00    -0.030 C 
ATOM      2  C   LIG    1        1.423   1.616  -0.003  0.00  0.00    +0.010 C 
ATOM      3  C   LIG    1        2.152   1.095  -1.244  0.00  0.00    +0.010 C 
ATOM      4  C   LIG    1        1.439   1.603  -2.501  0.00  0.00    +0.160 C 
ATOM      5  N   LIG    1        0.022   1.221  -2.428  0.00  0.00    -0.570 N 
ATOM      6  C   LIG    1       -0.559   0.542  -3.437  0.00  0.00    +0.510 C 
ATOM      7  O   LIG    1        0.089   0.240  -4.417  0.00  0.00    -0.530 OA
ATOM      8  C   LIG    1       -0.750   1.594  -1.235  0.00  0.00    +0.270 C 
ENDROOT
BRANCH   4   9
ATOM      9  C   LIG    1        1.554   3.104  -2.575  0.00  0.00    +0.500 C 
ATOM     10  O   LIG    1        0.703   3.807  -2.057  0.00  0.00    -0.680 OA
ATOM     11  O   LIG    1        2.498   3.615  -3.153  0.00  0.00    -0.690 OA
ENDBRANCH   4   9
BRANCH   1  13
ATOM     12  C   LIG    1       -2.123   0.951   1.339  0.00  0.00    +0.000 C 
ATOM     13  C   LIG    1       -0.730   1.580   1.266  0.00  0.00    +0.010 C 
ENDBRANCH   1  13
BRANCH   6  14
ATOM     14  C   LIG    1       -2.013   0.157  -3.348  0.00  0.00    +0.230 C 
BRANCH  14  15
ATOM     15  O   LIG    1       -2.392  -0.550  -4.530  0.00  0.00    -0.280 OA
BRANCH  15  16
ATOM     16  C   LIG    1       -3.682  -0.971  -4.611  0.00  0.00    +0.160 A 
ATOM     17  C   LIG    1       -4.118  -1.663  -5.731  0.00  0.00    +0.020 A 
ATOM     18  C   LIG    1       -5.429  -2.091  -5.811  0.00  0.00    +0.090 A 
ATOM     19  C   LIG    1       -6.308  -1.830  -4.775  0.00  0.00    -0.070 A 
ATOM     20  C   LIG    1       -5.875  -1.139  -3.656  0.00  0.00    +0.010 A 
ATOM     21 CL   LIG    1       -6.980  -0.811  -2.357  0.00  0.00    -0.050 Cl
ATOM     22 CL   LIG    1       -7.955  -2.369  -4.878  0.00  0.00    -0.050 Cl
ATOM     23  C   LIG    1       -4.562  -0.714  -3.570  0.00  0.00    -0.050 A 
ENDBRANCH  15  16
ENDBRANCH  14  15
ENDBRANCH   6  14
TORSDOF 5
