REMARK  Name = ZINCpk000005Ja6r.0
REMARK                            x       y       z     vdW  Elec       q    Type
REMARK                         _______ _______ _______ _____ _____    ______ ____
ROOT
ATOM      1  C   LIG    1       -4.056   5.533  -1.500  0.00  0.00    +0.230 C 
ATOM      2  C   LIG    1       -3.638   6.901  -2.041  0.00  0.00    +0.050 C 
ENDROOT
BRANCH   1   3
ATOM      3  N   LIG    1       -3.028   5.035  -0.583  0.00  0.00    -0.610 N 
ATOM      4  C   LIG    1       -2.398   3.873  -0.844  0.00  0.00    +0.500 C 
ATOM      5  O   LIG    1       -2.681   3.239  -1.838  0.00  0.00    -0.520 OA
ATOM      6  C   LIG    1       -2.686   5.801   0.618  0.00  0.00    +0.300 C 
BRANCH   4   7
ATOM      7  C   LIG    1       -1.340   3.361   0.100  0.00  0.00    +0.230 C 
ATOM      8  C   LIG    1        0.007   3.989  -0.263  0.00  0.00    +0.040 C 
ATOM      9  C   LIG    1        1.107   3.292   0.548  0.00  0.00    +0.050 C 
ATOM     10  C   LIG    1        1.227   1.847   0.059  0.00  0.00    +0.060 C 
ATOM     11  C   LIG    1       -0.133   1.213  -0.001  0.00  0.00    +0.520 C 
ATOM     12  O   LIG    1       -0.201   0.003  -0.050  0.00  0.00    -0.540 OA
ATOM     13  N   LIG    1       -1.270   1.909  -0.008  0.00  0.00    -0.590 N 
ATOM     14  C   LIG    1       -2.529   1.168  -0.126  0.00  0.00    +0.290 C 
ENDBRANCH   4   7
ENDBRANCH   1   3
BRANCH   1  15
ATOM     15  C   LIG    1       -5.386   5.664  -0.753  0.00  0.00    +0.280 C 
BRANCH  15  17
ATOM     16  C   LIG    1       -6.863   4.258   0.580  0.00  0.00    +0.610 C 
ATOM     17  N   LIG    1       -5.726   4.381  -0.134  0.00  0.00    -0.720 N 
ATOM     18  H   LIG    1       -5.135   3.620  -0.238  0.00  0.00    +0.400 HD
ATOM     19  O   LIG    1       -7.605   5.214   0.711  0.00  0.00    -0.520 OA
BRANCH  16  24
ATOM     20  C   LIG    1       -6.595  -0.542   1.981  0.00  0.00    +0.180 C 
ATOM     21  C   LIG    1       -7.092   0.872   1.818  0.00  0.00    +0.030 A 
ATOM     22  C   LIG    1       -8.238   1.368   2.336  0.00  0.00    -0.070 A 
ATOM     23  C   LIG    1       -8.315   2.715   1.951  0.00  0.00    -0.070 A 
ATOM     24  C   LIG    1       -7.204   2.974   1.200  0.00  0.00    -0.100 A 
ATOM     25  C   LIG    1       -9.413   3.688   2.296  0.00  0.00    +0.140 C 
ATOM     26  O   LIG    1       -6.472   1.842   1.134  0.00  0.00    -0.160 OA
ENDBRANCH  16  24
ENDBRANCH  15  17
ENDBRANCH   1  15
TORSDOF 5
