REMARK  Name = ZINCpe00000MJLuI.0
REMARK                            x       y       z     vdW  Elec       q    Type
REMARK                         _______ _______ _______ _____ _____    ______ ____
ROOT
ATOM      1  C   LIG    1       -0.029   0.117  -0.010  0.00  0.00    -0.090 C 
ATOM      2  C   LIG    1       -0.738  -0.377   1.230  0.00  0.00    +0.030 C 
ATOM      3  C   LIG    1       -0.540  -1.882   1.415  0.00  0.00    +0.230 C 
ATOM      4  O   LIG    1        0.868  -2.139   1.471  0.00  0.00    -0.370 OA
ATOM      5  C   LIG    1        1.534  -1.850   0.245  0.00  0.00    +0.220 C 
ATOM      6  C   LIG    1       -0.639  -0.458  -1.302  0.00  0.00    +0.300 C 
ATOM      7  N   LIG    1        0.426  -0.307  -2.309  0.00  0.00    -0.610 N 
ATOM      8  C   LIG    1        0.244  -0.245  -3.643  0.00  0.00    +0.580 C 
ATOM      9  O   LIG    1       -0.863  -0.417  -4.114  0.00  0.00    -0.530 OA
ATOM     10  C   LIG    1        1.722  -0.236  -1.617  0.00  0.00    +0.270 C 
ATOM     11  C   LIG    1        1.434  -0.364  -0.097  0.00  0.00    +0.010 C 
ENDROOT
BRANCH   8  12
ATOM     12  C   LIG    1        1.390   0.032  -4.532  0.00  0.00    -0.130 A 
ATOM     13  C   LIG    1        1.181   0.244  -5.897  0.00  0.00    +0.100 A 
ATOM     14  C   LIG    1        2.250   0.508  -6.727  0.00  0.00    +0.010 A 
ATOM     15  C   LIG    1        3.535   0.551  -6.207  0.00  0.00    +0.100 A 
ATOM     16  O   LIG    1        4.596   0.807  -7.024  0.00  0.00    -0.320 OA
ATOM     17  C   LIG    1        5.500  -0.280  -7.233  0.00  0.00    +0.230 C 
ATOM     18  C   LIG    1        6.526  -0.351  -6.113  0.00  0.00    -0.010 C 
ATOM     19  C   LIG    1        5.893  -0.672  -4.768  0.00  0.00    +0.230 C 
ATOM     20  O   LIG    1        5.021   0.382  -4.354  0.00  0.00    -0.320 OA
ATOM     21  C   LIG    1        3.751   0.335  -4.850  0.00  0.00    +0.060 A 
ATOM     22  C   LIG    1        2.687   0.075  -4.011  0.00  0.00    +0.050 A 
ENDBRANCH   8  12
BRANCH   1  26
ATOM     23  N   LIG    1       -1.257   2.263  -0.076  0.00  0.00    -0.850 N 
ATOM     24  H   LIG    1       -1.285   3.233  -0.104  0.00  0.00    +0.410 HD
ATOM     25  H   LIG    1       -2.083   1.755  -0.063  0.00  0.00    +0.400 HD
ATOM     26  C   LIG    1       -0.071   1.623  -0.054  0.00  0.00    +0.530 C 
ATOM     27  O   LIG    1        0.961   2.259  -0.075  0.00  0.00    -0.530 OA
ENDBRANCH   1  26
TORSDOF 2
