REMARK  Name = ZINCb70000002qxf.0
REMARK                            x       y       z     vdW  Elec       q    Type
REMARK                         _______ _______ _______ _____ _____    ______ ____
ROOT
ATOM      1  C   LIG    1       -0.013   1.086   0.008  0.00  0.00    +0.110 C 
ATOM      2  C   LIG    1       -0.729   1.579   1.267  0.00  0.00    +0.150 C 
ATOM      3  C   LIG    1       -0.748   3.110   1.278  0.00  0.00    +0.250 C 
ATOM      4  N   LIG    1       -1.393   3.583   2.510  0.00  0.00    -0.510 N 
ATOM      5  C   LIG    1       -0.636   3.102   3.675  0.00  0.00    +0.270 C 
ATOM      6  C   LIG    1       -0.585   1.579   3.653  0.00  0.00    +0.060 C 
ATOM      7  C   LIG    1        0.237   1.055   4.845  0.00  0.00    +0.070 C 
ATOM      8  C   LIG    1       -0.777   0.211   5.652  0.00  0.00    +0.220 C 
ATOM      9  O   LIG    1       -1.786  -0.173   4.692  0.00  0.00    -0.350 OA
ATOM     10  C   LIG    1       -1.994   0.996   3.867  0.00  0.00    +0.190 C 
ATOM     11  H   LIG    1       -1.412   4.592   2.514  0.00  0.00    +0.440 HD
ATOM     12  H   LIG    1       -2.337   3.229   2.552  0.00  0.00    +0.430 HD
ATOM     13  O   LIG    1       -0.036   1.108   2.427  0.00  0.00    -0.330 OA
ENDROOT
TORSDOF 0
