REMARK  Name = ZINCqH0000036huo.0
REMARK                            x       y       z     vdW  Elec       q    Type
REMARK                         _______ _______ _______ _____ _____    ______ ____
ROOT
ATOM      1  N   LIG    1       -1.054   5.344   1.019  0.00  0.00    -0.650 NA
ATOM      2  H   LIG    1       -1.281   6.290   0.750  0.00  0.00    +0.360 HD
ENDROOT
BRANCH   1   3
ATOM      3  C   LIG    1       -1.554   5.045   2.367  0.00  0.00    +0.230 C 
ATOM      4  C   LIG    1       -2.928   5.691   2.556  0.00  0.00    +0.010 C 
BRANCH   3  10
ATOM      5  C   LIG    1       -0.225   4.821   4.481  0.00  0.00    +0.150 A 
ATOM      6  C   LIG    1        0.658   5.330   5.424  0.00  0.00    -0.090 A 
ATOM      7  C   LIG    1        1.168   6.605   5.276  0.00  0.00    +0.060 A 
ATOM      8  C   LIG    1        0.801   7.378   4.191  0.00  0.00    -0.050 A 
ATOM      9  C   LIG    1       -0.078   6.872   3.244  0.00  0.00    +0.160 A 
ATOM     10  C   LIG    1       -0.595   5.595   3.392  0.00  0.00    -0.120 A 
BRANCH   5  12
ATOM     11  C   LIG    1       -0.301   2.827   5.773  0.00  0.00    +0.250 C 
ATOM     12  O   LIG    1       -0.726   3.566   4.626  0.00  0.00    -0.310 OA
ENDBRANCH   5  12
BRANCH   9  13
ATOM     13  O   LIG    1       -0.434   7.630   2.173  0.00  0.00    -0.480 OA
ATOM     14  H   LIG    1       -1.217   8.178   2.323  0.00  0.00    +0.380 HD
ENDBRANCH   9  13
ENDBRANCH   3  10
ENDBRANCH   1   3
BRANCH   1  15
ATOM     15  C   LIG    1       -1.572   4.380   0.039  0.00  0.00    +0.280 C 
BRANCH  15  16
ATOM     16  C   LIG    1       -1.580   5.009  -1.330  0.00  0.00    -0.120 A 
ATOM     17  C   LIG    1       -0.715   6.047  -1.619  0.00  0.00    +0.090 A 
ATOM     18  C   LIG    1       -0.717   6.621  -2.877  0.00  0.00    +0.000 A 
ATOM     19  C   LIG    1       -1.594   6.166  -3.843  0.00  0.00    +0.040 A 
ATOM     20  C   LIG    1       -2.465   5.131  -3.555  0.00  0.00    -0.020 A 
ATOM     21  C   LIG    1       -2.458   4.552  -2.298  0.00  0.00    +0.100 A 
ATOM     22  F   LIG    1       -3.309   3.541  -2.015  0.00  0.00    -0.140 F 
ENDBRANCH  15  16
BRANCH  15  23
ATOM     23  C   LIG    1       -0.692   3.157   0.024  0.00  0.00    +0.210 A 
ATOM     24  N   LIG    1        0.613   3.159   0.012  0.00  0.00    -0.450 NA
ATOM     25  C   LIG    1        1.058   1.893   0.002  0.00  0.00    +0.140 A 
ATOM     26  C   LIG    1       -0.013   1.076   0.008  0.00  0.00    +0.110 A 
ATOM     27  N   LIG    1       -1.123   1.877   0.017  0.00  0.00    -0.460 N 
ATOM     28  C   LIG    1       -2.518   1.429   0.020  0.00  0.00    +0.310 C 
ENDBRANCH  15  23
ENDBRANCH   1  15
TORSDOF 7
