REMARK  Name = ZINCrD00000F5Luq.1
REMARK                            x       y       z     vdW  Elec       q    Type
REMARK                         _______ _______ _______ _____ _____    ______ ____
ROOT
ATOM      1  C   LIG    1        3.544   0.934  -0.027  0.00  0.00    +0.360 C 
ATOM      2  C   LIG    1        3.992   2.385  -0.023  0.00  0.00    -0.140 C 
ATOM      3  C   LIG    1        3.033   3.329  -0.009  0.00  0.00    +0.210 C 
ATOM      4  N   LIG    1        1.714   3.012   0.002  0.00  0.00    -0.580 NA
ATOM      5  C   LIG    1        1.245   1.787  -0.000  0.00  0.00    +0.570 A 
ATOM      6  N   LIG    1       -0.016   1.300   0.009  0.00  0.00    -0.520 NA
ATOM      7  C   LIG    1        0.002  -0.004   0.002  0.00  0.00    +0.630 A 
ATOM      8  N   LIG    1        1.292  -0.441  -0.013  0.00  0.00    -0.490 N 
ATOM      9  H   LIG    1        1.593  -1.363  -0.020  0.00  0.00    +0.450 HD
ATOM     10  N   LIG    1        2.097   0.701  -0.014  0.00  0.00    -0.460 N 
ENDROOT
BRANCH   1  13
ATOM     11  C   LIG    1        5.853  -1.008  -2.304  0.00  0.00    +0.150 A 
ATOM     12  C   LIG    1        5.324  -0.396  -1.177  0.00  0.00    -0.080 A 
ATOM     13  C   LIG    1        4.115   0.270  -1.254  0.00  0.00    -0.040 A 
ATOM     14  C   LIG    1        3.426   0.325  -2.450  0.00  0.00    -0.080 A 
ATOM     15  C   LIG    1        3.950  -0.279  -3.583  0.00  0.00    +0.150 A 
ATOM     16  C   LIG    1        5.165  -0.950  -3.511  0.00  0.00    +0.030 A 
BRANCH  11  18
ATOM     17  C   LIG    1        7.692  -1.682  -0.956  0.00  0.00    +0.250 C 
ATOM     18  O   LIG    1        7.042  -1.663  -2.228  0.00  0.00    -0.300 OA
ENDBRANCH  11  18
BRANCH  15  19
ATOM     19  O   LIG    1        3.274  -0.220  -4.761  0.00  0.00    -0.300 OA
ATOM     20  C   LIG    1        2.032   0.486  -4.762  0.00  0.00    +0.250 C 
ENDBRANCH  15  19
BRANCH  16  21
ATOM     21  O   LIG    1        5.681  -1.549  -4.619  0.00  0.00    -0.310 OA
ATOM     22  C   LIG    1        5.315  -2.911  -4.849  0.00  0.00    +0.210 C 
ENDBRANCH  16  21
ENDBRANCH   1  13
BRANCH   3  23
ATOM     23  C   LIG    1        3.430   4.758  -0.006  0.00  0.00    -0.050 A 
ATOM     24  C   LIG    1        4.778   5.109  -0.011  0.00  0.00    +0.020 A 
ATOM     25  C   LIG    1        5.142   6.441  -0.013  0.00  0.00    -0.010 A 
ATOM     26  C   LIG    1        4.171   7.426   0.002  0.00  0.00    +0.010 A 
ATOM     27  C   LIG    1        2.831   7.083   0.012  0.00  0.00    -0.010 A 
ATOM     28  C   LIG    1        2.456   5.755   0.009  0.00  0.00    +0.060 A 
ENDBRANCH   3  23
TORSDOF 5
