REMARK  Name = ZINCrg000000nNuT.0
REMARK                            x       y       z     vdW  Elec       q    Type
REMARK                         _______ _______ _______ _____ _____    ______ ____
ROOT
ATOM      1  N   LIG    1        0.160   4.788  -1.522  0.00  0.00    -0.980 NA
ENDROOT
BRANCH   1   2
ATOM      2  S   LIG    1        0.940   4.259  -0.161  0.00  0.00    +2.670 S 
ATOM      3  O   LIG    1        2.307   4.612  -0.318  0.00  0.00    -0.930 OA
ATOM      4  O   LIG    1        0.151   4.680   0.944  0.00  0.00    -0.920 OA
BRANCH   2   5
ATOM      5  C   LIG    1        0.876   2.498  -0.174  0.00  0.00    -0.640 A 
ATOM      6  C   LIG    1        0.011   1.845  -1.031  0.00  0.00    +0.150 A 
ATOM      7  C   LIG    1       -0.039   0.463  -1.043  0.00  0.00    +0.040 A 
ATOM      8  C   LIG    1        0.776  -0.265  -0.196  0.00  0.00    +0.070 A 
ATOM      9  C   LIG    1        1.640   0.389   0.662  0.00  0.00    +0.060 A 
ATOM     10  C   LIG    1        1.690   1.770   0.673  0.00  0.00    -0.090 A 
BRANCH  10  11
ATOM     11  C   LIG    1        2.628   2.482   1.613  0.00  0.00    +0.480 C 
ATOM     12  F   LIG    1        1.908   3.404   2.381  0.00  0.00    -0.170 F 
ATOM     13  F   LIG    1        3.607   3.155   0.874  0.00  0.00    -0.150 F 
ATOM     14  F   LIG    1        3.240   1.550   2.457  0.00  0.00    -0.170 F 
ENDBRANCH  10  11
ENDBRANCH   2   5
ENDBRANCH   1   2
BRANCH   1  16
ATOM     15  C   LIG    1       -1.617   6.439  -1.208  0.00  0.00    +0.020 C 
ATOM     16  C   LIG    1       -1.293   4.974  -1.508  0.00  0.00    +0.290 C 
ENDBRANCH   1  16
BRANCH   1  17
ATOM     17  C   LIG    1        0.923   5.071  -2.740  0.00  0.00    +0.340 C 
BRANCH  17  18
ATOM     18  C   LIG    1        0.701   3.966  -3.740  0.00  0.00    +0.500 C 
ATOM     19  N   LIG    1        1.397   3.951  -4.894  0.00  0.00    -0.710 N 
ATOM     20  H   LIG    1        2.040   4.652  -5.082  0.00  0.00    +0.410 HD
ATOM     21  O   LIG    1       -0.104   3.089  -3.506  0.00  0.00    -0.520 OA
BRANCH  19  22
ATOM     22  C   LIG    1        1.181   2.877  -5.867  0.00  0.00    +0.270 C 
ATOM     23  C   LIG    1        2.088   1.678  -5.538  0.00  0.00    +0.060 C 
ATOM     24  C   LIG    1        2.097   0.720  -6.745  0.00  0.00    -0.310 C 
ATOM     25  S   LIG    1        1.777   1.782  -8.200  0.00  0.00    +2.400 S 
ATOM     26  O   LIG    1        2.949   1.848  -9.001  0.00  0.00    -0.930 OA
ATOM     27  O   LIG    1        0.536   1.415  -8.786  0.00  0.00    -0.930 OA
ATOM     28  C   LIG    1        1.576   3.358  -7.286  0.00  0.00    -0.310 C 
ENDBRANCH  19  22
ENDBRANCH  17  18
ENDBRANCH   1  17
TORSDOF 7
