REMARK  Name = ZINCtV00000L6kVk.0
REMARK                            x       y       z     vdW  Elec       q    Type
REMARK                         _______ _______ _______ _____ _____    ______ ____
ROOT
ATOM      1  C   LIG    1        2.547   5.551   0.006  0.00  0.00    +0.280 C 
ATOM      2  C   LIG    1        2.845   4.038  -0.004  0.00  0.00    +0.100 C 
ATOM      3  C   LIG    1        1.476   3.397   0.006  0.00  0.00    +0.190 C 
ATOM      4  N   LIG    1        0.569   4.317   0.013  0.00  0.00    -0.240 NA
ATOM      5  N   LIG    1        1.077   5.614   0.019  0.00  0.00    -0.470 N 
ATOM      6  C   LIG    1        0.342   6.744   0.031  0.00  0.00    +0.630 C 
ATOM      7  O   LIG    1        0.893   7.829   0.032  0.00  0.00    -0.500 OA
ENDROOT
BRANCH   1  13
ATOM      8  C   LIG    1        1.744   8.363  -6.814  0.00  0.00    +0.100 C 
ATOM      9  C   LIG    1        2.595   8.018  -5.620  0.00  0.00    -0.070 A 
ATOM     10  C   LIG    1        2.024   7.425  -4.536  0.00  0.00    +0.030 A 
ATOM     11  C   LIG    1        2.817   7.103  -3.422  0.00  0.00    -0.090 A 
ATOM     12  C   LIG    1        2.264   6.490  -2.282  0.00  0.00    +0.120 A 
ATOM     13  C   LIG    1        3.094   6.207  -1.236  0.00  0.00    -0.140 A 
ATOM     14  C   LIG    1        4.449   6.529  -1.315  0.00  0.00    +0.220 A 
ATOM     15  N   LIG    1        4.961   7.096  -2.383  0.00  0.00    -0.460 NA
ATOM     16 CL   LIG    1        5.485   6.166   0.029  0.00  0.00    -0.020 Cl
ATOM     17  C   LIG    1        4.202   7.399  -3.440  0.00  0.00    +0.140 A 
ATOM     18  C   LIG    1        4.756   8.011  -4.579  0.00  0.00    +0.050 A 
ATOM     19  C   LIG    1        3.958   8.310  -5.640  0.00  0.00    +0.050 A 
ENDBRANCH   1  13
BRANCH   3  20
ATOM     20  C   LIG    1        1.217   1.953   0.001  0.00  0.00    -0.160 A 
ATOM     21  C   LIG    1       -0.017   1.373   0.010  0.00  0.00    +0.070 A 
ATOM     22  C   LIG    1        0.002  -0.004   0.002  0.00  0.00    +0.010 A 
ATOM     23  C   LIG    1        1.219  -0.557  -0.013  0.00  0.00    -0.030 A 
ATOM     24  S   LIG    1        2.450   0.699  -0.018  0.00  0.00    +0.160 S 
ENDBRANCH   3  20
BRANCH   6  25
ATOM     25  C   LIG    1       -1.122   6.665   0.044  0.00  0.00    -0.280 A 
ATOM     26  C   LIG    1       -1.973   7.734   0.063  0.00  0.00    +0.100 A 
ATOM     27  C   LIG    1       -3.300   7.372   0.067  0.00  0.00    -0.020 A 
ATOM     28  C   LIG    1       -3.529   6.054   0.064  0.00  0.00    -0.080 A 
ATOM     29  S   LIG    1       -2.063   5.180   0.046  0.00  0.00    +0.280 S 
ENDBRANCH   6  25
TORSDOF 3
