REMARK  Name = ZINCrg00000BiK2c.0
REMARK                            x       y       z     vdW  Elec       q    Type
REMARK                         _______ _______ _______ _____ _____    ______ ____
ROOT
ATOM      1  N   LIG    1        2.525  -2.734  -0.036  0.00  0.00    -0.720 N 
ATOM      2  H   LIG    1        3.338  -2.204  -0.042  0.00  0.00    +0.400 HD
ATOM      3  C   LIG    1        1.323  -2.124  -0.021  0.00  0.00    +0.570 C 
ATOM      4  O   LIG    1        0.305  -2.788  -0.015  0.00  0.00    -0.530 OA
ENDROOT
BRANCH   1  10
ATOM      5  C   LIG    1        5.021  -7.002   1.502  0.00  0.00    +0.230 C 
ATOM      6  C   LIG    1        4.233  -8.172   0.908  0.00  0.00    +0.030 C 
ATOM      7  C   LIG    1        3.777  -6.736   0.655  0.00  0.00    -0.130 C 
ATOM      8  C   LIG    1        3.982  -6.159  -0.749  0.00  0.00    +0.070 C 
ATOM      9  C   LIG    1        3.931  -4.630  -0.669  0.00  0.00    +0.010 C 
ATOM     10  C   LIG    1        2.604  -4.197  -0.044  0.00  0.00    +0.240 C 
ATOM     11  C   LIG    1        2.511  -4.719   1.390  0.00  0.00    +0.010 C 
ATOM     12  C   LIG    1        2.516  -6.250   1.377  0.00  0.00    +0.060 C 
BRANCH   5  15
ATOM     13  O   LIG    1        7.102  -6.434   3.119  0.00  0.00    -0.510 OA
ATOM     14  C   LIG    1        6.022  -6.501   3.667  0.00  0.00    +0.510 C 
ATOM     15  N   LIG    1        4.917  -6.780   2.946  0.00  0.00    -0.700 N 
ATOM     16  H   LIG    1        4.053  -6.834   3.384  0.00  0.00    +0.400 HD
BRANCH  14  17
ATOM     17  C   LIG    1        5.915  -6.272   5.152  0.00  0.00    +0.220 C 
BRANCH  17  18
ATOM     18  O   LIG    1        7.211  -5.996   5.686  0.00  0.00    -0.550 OA
ATOM     19  H   LIG    1        7.218  -5.838   6.640  0.00  0.00    +0.390 HD
ENDBRANCH  17  18
ENDBRANCH  14  17
ENDBRANCH   5  15
ENDBRANCH   1  10
BRANCH   3  20
ATOM     20  C   LIG    1        1.243  -0.648  -0.013  0.00  0.00    -0.190 A 
ATOM     21  C   LIG    1        2.406   0.125  -0.020  0.00  0.00    +0.300 A 
ATOM     22  N   LIG    1        2.342   1.440  -0.012  0.00  0.00    -0.480 NA
ATOM     23  C   LIG    1        1.192   2.084   0.002  0.00  0.00    +0.320 A 
ATOM     24  C   LIG    1       -0.017   1.390   0.010  0.00  0.00    -0.070 A 
ATOM     25  C   LIG    1        0.002  -0.004   0.002  0.00  0.00    +0.160 A 
BRANCH  24  26
ATOM     26  C   LIG    1       -1.306   2.126   0.020  0.00  0.00    +0.110 A 
ATOM     27  N   LIG    1       -2.506   1.585   0.017  0.00  0.00    -0.280 NA
ATOM     28  N   LIG    1       -3.450   2.619   0.033  0.00  0.00    -0.470 N 
ATOM     29  H   LIG    1       -4.414   2.510   0.037  0.00  0.00    +0.440 HD
ATOM     30  C   LIG    1       -2.786   3.795   0.036  0.00  0.00    +0.250 A 
ATOM     31  C   LIG    1       -1.462   3.525   0.028  0.00  0.00    -0.110 A 
ENDBRANCH  24  26
ENDBRANCH   3  20
TORSDOF 6
