REMARK  Name = ZINCpe000000X5fv.0
REMARK                            x       y       z     vdW  Elec       q    Type
REMARK                         _______ _______ _______ _____ _____    ______ ____
ROOT
ATOM      1  C   LIG    1        4.258   5.571  -1.577  0.00  0.00    +0.310 C 
ENDROOT
BRANCH   1   5
ATOM      2  N   LIG    1        1.760   2.939  -0.984  0.00  0.00    -0.730 N 
ATOM      3  H   LIG    1        1.167   3.062  -1.741  0.00  0.00    +0.400 HD
ATOM      4  C   LIG    1        2.837   3.737  -0.835  0.00  0.00    +0.710 C 
ATOM      5  N   LIG    1        3.088   4.705  -1.738  0.00  0.00    -0.740 N 
ATOM      6  H   LIG    1        2.495   4.827  -2.496  0.00  0.00    +0.400 HD
ATOM      7  O   LIG    1        3.581   3.583   0.114  0.00  0.00    -0.570 OA
BRANCH   2  11
ATOM      8  C   LIG    1       -1.181  -0.550  -0.800  0.00  0.00    +0.070 C 
ATOM      9  C   LIG    1        0.002  -0.004   0.002  0.00  0.00    +0.180 C 
ATOM     10  C   LIG    1       -0.019   1.542   0.011  0.00  0.00    +0.050 C 
ATOM     11  C   LIG    1        1.487   1.887  -0.002  0.00  0.00    +0.240 C 
ATOM     12  C   LIG    1        2.176   0.601  -0.403  0.00  0.00    +0.460 C 
ATOM     13  O   LIG    1        3.372   0.451  -0.487  0.00  0.00    -0.430 OA
ATOM     14  O   LIG    1        1.261  -0.347  -0.650  0.00  0.00    -0.340 OA
ENDBRANCH   2  11
ENDBRANCH   1   5
BRANCH   1  15
ATOM     15  C   LIG    1        4.312   6.577  -2.729  0.00  0.00    +0.160 C 
ATOM     16  C   LIG    1        5.537   7.479  -2.563  0.00  0.00    +0.170 C 
ATOM     17  N   LIG    1        5.626   8.392  -3.713  0.00  0.00    -0.520 NA
ATOM     18  C   LIG    1        5.722   7.637  -4.971  0.00  0.00    +0.150 C 
ATOM     19  C   LIG    1        4.494   6.733  -5.112  0.00  0.00    +0.230 C 
ATOM     20  O   LIG    1        4.407   5.875  -3.971  0.00  0.00    -0.380 OA
BRANCH  17  21
ATOM     21  C   LIG    1        6.759   9.315  -3.566  0.00  0.00    +0.270 C 
BRANCH  21  22
ATOM     22  C   LIG    1        8.034   8.526  -3.414  0.00  0.00    -0.130 A 
ATOM     23  C   LIG    1        8.475   8.160  -2.156  0.00  0.00    +0.010 A 
ATOM     24  C   LIG    1        9.642   7.433  -2.018  0.00  0.00    +0.000 A 
ATOM     25  C   LIG    1       10.373   7.080  -3.136  0.00  0.00    +0.000 A 
ATOM     26  C   LIG    1        9.935   7.450  -4.394  0.00  0.00    +0.000 A 
ATOM     27  C   LIG    1        8.765   8.174  -4.533  0.00  0.00    +0.010 A 
ENDBRANCH  21  22
ENDBRANCH  17  21
ENDBRANCH   1  15
TORSDOF 5
