REMARK  Name = ZINCrg00001JduQ2.0
REMARK                            x       y       z     vdW  Elec       q    Type
REMARK                         _______ _______ _______ _____ _____    ______ ____
ROOT
ATOM      1  C   LIG    1        1.063   3.411   2.006  0.00  0.00    +0.410 A 
ATOM      2  N   LIG    1        1.353   3.952   3.178  0.00  0.00    -0.510 NA
ATOM      3  C   LIG    1        2.445   3.622   3.842  0.00  0.00    +0.380 A 
ATOM      4  C   LIG    1        3.330   2.692   3.332  0.00  0.00    -0.170 A 
ATOM      5  C   LIG    1        3.058   2.096   2.106  0.00  0.00    +0.230 A 
ATOM      6 BR   LIG    1        4.890   2.229   4.295  0.00  0.00    -0.010 Br
ATOM      7  C   LIG    1        1.909   2.467   1.432  0.00  0.00    -0.700 A 
ENDROOT
BRANCH   1  15
ATOM      8  C   LIG    1       -6.011   4.202   0.560  0.00  0.00    +0.220 C 
ATOM      9  C   LIG    1       -4.515   4.288   0.712  0.00  0.00    +0.190 A 
ATOM     10  N   LIG    1       -3.792   3.573   1.532  0.00  0.00    -0.470 NA
ATOM     11  C   LIG    1       -2.510   3.925   1.387  0.00  0.00    -0.000 A 
ATOM     12  C   LIG    1       -2.455   4.891   0.446  0.00  0.00    -0.050 A 
ATOM     13  C   LIG    1       -1.172   5.549   0.007  0.00  0.00    +0.180 C 
ATOM     14  C   LIG    1       -0.097   5.231   1.056  0.00  0.00    +0.230 C 
ATOM     15  N   LIG    1       -0.099   3.789   1.341  0.00  0.00    -0.500 N 
ATOM     16  C   LIG    1       -1.295   3.392   2.102  0.00  0.00    +0.340 C 
ATOM     17  O   LIG    1       -3.706   5.113   0.027  0.00  0.00    -0.190 OA
ENDBRANCH   1  15
BRANCH   7  18
ATOM     18  S   LIG    1        1.518   1.749  -0.129  0.00  0.00    +2.710 S 
ATOM     19  O   LIG    1        2.592   0.875  -0.449  0.00  0.00    -0.950 OA
ATOM     20  O   LIG    1        0.166   1.321  -0.047  0.00  0.00    -0.920 OA
BRANCH  18  21
ATOM     21  N   LIG    1        1.556   2.966  -1.251  0.00  0.00    -1.100 NA
ATOM     22  H   LIG    1        0.749   3.208  -1.732  0.00  0.00    +0.430 HD
BRANCH  21  23
ATOM     23  C   LIG    1        2.810   3.673  -1.523  0.00  0.00    +0.310 C 
BRANCH  23  24
ATOM     24  C   LIG    1        2.691   4.433  -2.846  0.00  0.00    -0.340 C 
BRANCH  24  25
ATOM     25  S   LIG    1        4.288   5.188  -3.256  0.00  0.00    +2.420 S 
ATOM     26  O   LIG    1        5.198   4.156  -3.613  0.00  0.00    -0.930 OA
ATOM     27  O   LIG    1        4.640   6.095  -2.220  0.00  0.00    -0.930 OA
ATOM     28  C   LIG    1        3.882   6.140  -4.745  0.00  0.00    -0.260 C 
ENDBRANCH  24  25
ENDBRANCH  23  24
ENDBRANCH  21  23
ENDBRANCH  18  21
ENDBRANCH   7  18
TORSDOF 6
