REMARK  Name = ZINCrD00000fNaNZ.0
REMARK                            x       y       z     vdW  Elec       q    Type
REMARK                         _______ _______ _______ _____ _____    ______ ____
ROOT
ATOM      1  N   LIG    1       -4.562   8.139   0.435  0.00  0.00    -1.120 NA
ATOM      2  H   LIG    1       -4.525   8.955   0.958  0.00  0.00    +0.420 HD
ENDROOT
BRANCH   1   4
ATOM      3  O   LIG    1       -5.178   5.821   0.847  0.00  0.00    -0.950 OA
ATOM      4  S   LIG    1       -4.094   6.701   1.110  0.00  0.00    +2.610 S 
ATOM      5  O   LIG    1       -3.733   7.041   2.442  0.00  0.00    -0.950 OA
BRANCH   4   6
ATOM      6  C   LIG    1       -2.629   6.211   0.159  0.00  0.00    -0.350 C 
BRANCH   6   7
ATOM      7  C   LIG    1       -2.096   4.880   0.694  0.00  0.00    +0.000 C 
ATOM      8  C   LIG    1       -0.779   4.434   0.033  0.00  0.00    +0.080 C 
ATOM      9  C   LIG    1       -1.360   3.019   0.030  0.00  0.00    -0.110 C 
ATOM     10  C   LIG    1       -0.963   2.004  -1.042  0.00  0.00    +0.070 C 
ATOM     11  C   LIG    1       -0.017   1.395   0.010  0.00  0.00    +0.250 C 
ATOM     12  F   LIG    1        1.265   1.955   0.001  0.00  0.00    -0.180 F 
ATOM     13  F   LIG    1        0.002  -0.004   0.002  0.00  0.00    -0.190 F 
ATOM     14  C   LIG    1       -0.942   1.992   1.085  0.00  0.00    +0.080 C 
ATOM     15  C   LIG    1       -2.754   3.648   0.045  0.00  0.00    +0.070 C 
ENDBRANCH   6   7
ENDBRANCH   4   6
ENDBRANCH   1   4
BRANCH   1  16
ATOM     16  C   LIG    1       -5.033   8.178  -0.952  0.00  0.00    +0.330 C 
BRANCH  16  17
ATOM     17  C   LIG    1       -5.733   9.488  -1.208  0.00  0.00    -0.040 A 
ATOM     18  C   LIG    1       -5.027  10.592  -1.666  0.00  0.00    -0.050 A 
ATOM     19  C   LIG    1       -5.697  11.778  -1.892  0.00  0.00    +0.290 A 
ATOM     20  N   LIG    1       -6.996  11.873  -1.677  0.00  0.00    -0.520 NA
ATOM     21  C   LIG    1       -7.704  10.842  -1.240  0.00  0.00    +0.320 A 
ATOM     22  C   LIG    1       -7.094   9.616  -0.997  0.00  0.00    -0.030 A 
BRANCH  21  23
ATOM     23  N   LIG    1       -9.070  10.986  -1.028  0.00  0.00    -0.480 N 
ATOM     24  C   LIG    1       -9.829   9.989  -1.792  0.00  0.00    +0.190 C 
ATOM     25  C   LIG    1      -11.312  10.082  -1.423  0.00  0.00    +0.030 C 
ATOM     26  C   LIG    1      -11.823  11.490  -1.738  0.00  0.00    +0.010 C 
ATOM     27  C   LIG    1      -10.985  12.513  -0.967  0.00  0.00    +0.020 C 
ATOM     28  C   LIG    1       -9.512  12.350  -1.349  0.00  0.00    +0.210 C 
ENDBRANCH  21  23
ENDBRANCH  16  17
ENDBRANCH   1  16
TORSDOF 6
