REMARK  Name = ZINCkj000005j8sc.0
REMARK                            x       y       z     vdW  Elec       q    Type
REMARK                         _______ _______ _______ _____ _____    ______ ____
ROOT
ATOM      1  N   LIG    1       -1.372   3.103  -0.052  0.00  0.00    -0.730 N 
ATOM      2  H   LIG    1       -2.245   3.525  -0.089  0.00  0.00    +0.390 HD
ATOM      3  C   LIG    1       -1.275   1.760   0.006  0.00  0.00    +0.710 C 
ATOM      4  N   LIG    1       -2.388   1.008   0.114  0.00  0.00    -0.650 N 
ATOM      5  C   LIG    1       -2.302  -0.451   0.282  0.00  0.00    +0.340 C 
ATOM      6  C   LIG    1       -3.180  -0.851   1.478  0.00  0.00    +0.250 C 
ATOM      7  N   LIG    1       -4.543  -0.345   1.271  0.00  0.00    -0.380 N 
ATOM      8  C   LIG    1       -4.535   1.124   1.262  0.00  0.00    +0.250 C 
ATOM      9  H   LIG    1       -4.894  -0.683   0.388  0.00  0.00    +0.420 HD
ATOM     10  C   LIG    1       -3.724   1.622   0.062  0.00  0.00    +0.310 C 
ATOM     11  O   LIG    1       -0.183   1.227  -0.039  0.00  0.00    -0.560 OA
ENDROOT
BRANCH   7  12
ATOM     12  C   LIG    1       -5.410  -0.821   2.357  0.00  0.00    +0.150 C 
ATOM     13  C   LIG    1       -5.823  -2.296   2.213  0.00  0.00    +0.050 C 
ATOM     14  C   LIG    1       -7.220  -1.869   2.701  0.00  0.00    +0.070 C 
ATOM     15  C   LIG    1       -6.894  -0.466   2.161  0.00  0.00    +0.050 C 
ENDBRANCH   7  12
BRANCH   1  17
ATOM     16  C   LIG    1        0.297   4.162   1.389  0.00  0.00    +0.030 C 
ATOM     17  C   LIG    1       -0.160   3.926  -0.052  0.00  0.00    +0.340 C 
BRANCH  17  18
ATOM     18  C   LIG    1       -0.452   5.250  -0.710  0.00  0.00    -0.260 A 
ATOM     19  C   LIG    1        0.369   5.919  -1.552  0.00  0.00    +0.270 A 
ATOM     20  N   LIG    1       -0.257   7.057  -1.919  0.00  0.00    -0.470 N 
ATOM     21  H   LIG    1        0.095   7.734  -2.518  0.00  0.00    +0.450 HD
ATOM     22  N   LIG    1       -1.504   7.088  -1.282  0.00  0.00    -0.280 NA
ATOM     23  C   LIG    1       -1.622   6.002  -0.562  0.00  0.00    +0.230 A 
ENDBRANCH  17  18
ENDBRANCH   1  17
TORSDOF 3
