REMARK  Name = ZINCkj00000y7NkS.0
REMARK                            x       y       z     vdW  Elec       q    Type
REMARK                         _______ _______ _______ _____ _____    ______ ____
ROOT
ATOM      1  C   LIG    1        2.151   3.419  -0.003  0.00  0.00    +0.250 C 
ATOM      2  O   LIG    1        1.366   4.339   0.758  0.00  0.00    -0.360 OA
ATOM      3  C   LIG    1        1.815   5.693   0.680  0.00  0.00    +0.220 C 
ATOM      4  C   LIG    1        1.746   6.170  -0.773  0.00  0.00    +0.010 C 
ATOM      5  C   LIG    1        2.595   5.242  -1.648  0.00  0.00    +0.040 C 
ATOM      6  C   LIG    1        2.095   3.804  -1.483  0.00  0.00    -0.050 C 
ENDROOT
BRANCH   1  10
ATOM      7  C   LIG    1        1.838  -1.527   0.745  0.00  0.00    +0.380 C 
ATOM      8  N   LIG    1        1.476  -0.129   0.501  0.00  0.00    -0.360 N 
ATOM      9  C   LIG    1        2.333   0.908   0.403  0.00  0.00    +0.240 A 
ATOM     10  C   LIG    1        1.605   2.026   0.175  0.00  0.00    -0.270 A 
ATOM     11  C   LIG    1        0.256   1.659   0.133  0.00  0.00    +0.270 A 
ATOM     12  N   LIG    1        0.177   0.367   0.328  0.00  0.00    -0.270 NA
ENDBRANCH   1  10
BRANCH   6  13
ATOM     13  C   LIG    1        2.985   2.858  -2.292  0.00  0.00    +0.260 C 
BRANCH  13  14
ATOM     14  N   LIG    1        2.274   1.593  -2.520  0.00  0.00    -0.360 N 
ATOM     15  H   LIG    1        1.802   1.314  -1.673  0.00  0.00    +0.420 HD
BRANCH  14  16
ATOM     16  C   LIG    1        1.287   1.772  -3.593  0.00  0.00    +0.120 C 
ATOM     17  C   LIG    1        1.057   3.194  -4.110  0.00  0.00    +0.090 C 
ATOM     18  C   LIG    1       -0.007   2.512  -3.247  0.00  0.00    +0.080 C 
ENDBRANCH  14  16
BRANCH  14  19
ATOM     19  C   LIG    1        3.236   0.553  -2.909  0.00  0.00    +0.270 C 
BRANCH  19  20
ATOM     20  C   LIG    1        2.540  -0.809  -2.919  0.00  0.00    +0.210 C 
BRANCH  20  21
ATOM     21  O   LIG    1        1.581  -0.846  -3.978  0.00  0.00    -0.570 OA
ATOM     22  H   LIG    1        1.048  -1.652  -3.997  0.00  0.00    +0.400 HD
ENDBRANCH  20  21
ENDBRANCH  19  20
ENDBRANCH  14  19
ENDBRANCH  13  14
ENDBRANCH   6  13
TORSDOF 7
