REMARK  Name = ZINCkj00000y7NkS.1
REMARK                            x       y       z     vdW  Elec       q    Type
REMARK                         _______ _______ _______ _____ _____    ______ ____
ROOT
ATOM      1  C   LIG    1        2.244  -1.923  -0.083  0.00  0.00    +0.260 C 
ATOM      2  O   LIG    1        1.523  -2.733  -1.013  0.00  0.00    -0.360 OA
ATOM      3  C   LIG    1        1.835  -4.126  -0.939  0.00  0.00    +0.220 C 
ATOM      4  C   LIG    1        1.480  -4.653   0.454  0.00  0.00    +0.010 C 
ATOM      5  C   LIG    1        2.245  -3.847   1.507  0.00  0.00    -0.000 C 
ATOM      6  C   LIG    1        1.906  -2.362   1.344  0.00  0.00    -0.030 C 
ENDROOT
BRANCH   1  10
ATOM      7  C   LIG    1        2.473   3.069  -0.470  0.00  0.00    +0.360 C 
ATOM      8  N   LIG    1        1.964   1.696  -0.437  0.00  0.00    -0.370 N 
ATOM      9  C   LIG    1        2.696   0.583  -0.222  0.00  0.00    +0.250 A 
ATOM     10  C   LIG    1        1.858  -0.478  -0.270  0.00  0.00    -0.260 A 
ATOM     11  C   LIG    1        0.569   0.003  -0.522  0.00  0.00    +0.260 A 
ATOM     12  N   LIG    1        0.631   1.306  -0.622  0.00  0.00    -0.290 NA
ENDBRANCH   1  10
BRANCH   6  13
ATOM     13  C   LIG    1        2.724  -1.538   2.340  0.00  0.00    +0.260 C 
BRANCH  13  14
ATOM     14  N   LIG    1        2.462  -2.016   3.704  0.00  0.00    -0.360 N 
ATOM     15  H   LIG    1        2.619  -3.012   3.747  0.00  0.00    +0.430 HD
BRANCH  14  16
ATOM     16  C   LIG    1        1.068  -1.724   4.066  0.00  0.00    +0.090 C 
ATOM     17  C   LIG    1        0.290  -2.810   4.811  0.00  0.00    +0.090 C 
ATOM     18  C   LIG    1       -0.028  -2.511   3.345  0.00  0.00    +0.090 C 
ENDBRANCH  14  16
BRANCH  14  19
ATOM     19  C   LIG    1        3.364  -1.337   4.643  0.00  0.00    +0.280 C 
BRANCH  19  20
ATOM     20  C   LIG    1        3.178  -1.924   6.044  0.00  0.00    +0.210 C 
BRANCH  20  21
ATOM     21  O   LIG    1        3.591  -3.292   6.045  0.00  0.00    -0.580 OA
ATOM     22  H   LIG    1        3.500  -3.729   6.903  0.00  0.00    +0.410 HD
ENDBRANCH  20  21
ENDBRANCH  19  20
ENDBRANCH  14  19
ENDBRANCH  13  14
ENDBRANCH   6  13
TORSDOF 7
