REMARK  Name = ZINCrD000000Dh3Q.0
REMARK                            x       y       z     vdW  Elec       q    Type
REMARK                         _______ _______ _______ _____ _____    ______ ____
ROOT
ATOM      1  C   LIG    1       -3.420   1.612   0.122  0.00  0.00    +0.410 A 
ATOM      2  N   LIG    1       -3.650   2.915   0.054  0.00  0.00    -0.500 NA
ATOM      3  C   LIG    1       -2.651   3.780  -0.043  0.00  0.00    +0.200 A 
ATOM      4  C   LIG    1       -1.354   3.309  -0.072  0.00  0.00    -0.260 A 
ATOM      5  C   LIG    1       -1.140   1.930   0.002  0.00  0.00    +0.450 A 
ATOM      6  C   LIG    1       -0.388   4.465  -0.184  0.00  0.00    +0.090 C 
ATOM      7  C   LIG    1       -1.243   5.661  -0.656  0.00  0.00    +0.050 C 
ATOM      8  C   LIG    1       -2.648   5.290  -0.133  0.00  0.00    +0.120 C 
ATOM      9  N   LIG    1       -2.189   1.120   0.091  0.00  0.00    -0.560 NA
ENDROOT
BRANCH   1  13
ATOM     10  C   LIG    1       -6.698  -1.008   0.421  0.00  0.00    -0.010 A 
ATOM     11  C   LIG    1       -5.421  -1.540   0.516  0.00  0.00    +0.060 A 
ATOM     12  C   LIG    1       -4.338  -0.682   0.413  0.00  0.00    +0.010 A 
ATOM     13  C   LIG    1       -4.569   0.679   0.229  0.00  0.00    +0.170 A 
ATOM     14  N   LIG    1       -5.807   1.148   0.143  0.00  0.00    -0.440 NA
ATOM     15  C   LIG    1       -6.854   0.354   0.233  0.00  0.00    +0.260 A 
ENDBRANCH   1  13
BRANCH   5  16
ATOM     16  N   LIG    1        0.146   1.415  -0.025  0.00  0.00    -0.620 N 
ATOM     17  H   LIG    1        0.909   2.014  -0.016  0.00  0.00    +0.420 HD
BRANCH  16  18
ATOM     18  C   LIG    1        0.346   0.022  -0.070  0.00  0.00    +0.040 A 
ATOM     19  C   LIG    1        1.539  -0.610  -0.206  0.00  0.00    +0.190 A 
ATOM     20  N   LIG    1        1.296  -1.950  -0.203  0.00  0.00    -0.330 N 
ATOM     21  N   LIG    1       -0.086  -2.135  -0.062  0.00  0.00    -0.270 NA
ATOM     22  C   LIG    1       -0.653  -0.959   0.023  0.00  0.00    +0.280 A 
BRANCH  20  23
ATOM     23  C   LIG    1        2.255  -2.961  -0.320  0.00  0.00    +0.220 A 
ATOM     24  C   LIG    1        3.606  -2.652  -0.461  0.00  0.00    -0.060 A 
ATOM     25  C   LIG    1        4.521  -3.679  -0.569  0.00  0.00    +0.300 A 
ATOM     26  N   LIG    1        4.129  -4.939  -0.549  0.00  0.00    -0.490 NA
ATOM     27  C   LIG    1        2.859  -5.272  -0.423  0.00  0.00    +0.300 A 
ATOM     28  C   LIG    1        1.883  -4.304  -0.304  0.00  0.00    -0.030 A 
ENDBRANCH  20  23
ENDBRANCH  16  18
ENDBRANCH   5  16
TORSDOF 4
