REMARK  Name = ZINCvU00000006CB.0
REMARK                            x       y       z     vdW  Elec       q    Type
REMARK                         _______ _______ _______ _____ _____    ______ ____
ROOT
ATOM      1  N   LIG    1        6.372   2.193  -0.684  0.00  0.00    -0.610 N 
ATOM      2  C   LIG    1        5.341   1.405  -0.322  0.00  0.00    +0.520 C 
ATOM      3  O   LIG    1        5.491   0.203  -0.255  0.00  0.00    -0.490 OA
ATOM      4  C   LIG    1        6.190   3.645  -0.766  0.00  0.00    +0.290 C 
ENDROOT
BRANCH   1   6
ATOM      5  C   LIG    1        8.698   2.711  -1.233  0.00  0.00    +0.060 C 
ATOM      6  C   LIG    1        7.674   1.599  -0.996  0.00  0.00    +0.280 C 
BRANCH   6   7
ATOM      7  C   LIG    1        7.556   0.753  -2.237  0.00  0.00    -0.090 A 
ATOM      8  C   LIG    1        6.892   1.244  -3.347  0.00  0.00    +0.050 A 
ATOM      9  C   LIG    1        6.787   0.472  -4.487  0.00  0.00    +0.000 A 
ATOM     10  C   LIG    1        7.339  -0.801  -4.516  0.00  0.00    +0.150 A 
ATOM     11  C   LIG    1        8.000  -1.294  -3.399  0.00  0.00    +0.030 A 
ATOM     12  C   LIG    1        8.107  -0.515  -2.263  0.00  0.00    +0.060 A 
BRANCH  10  13
ATOM     13  N   LIG    1        7.229  -1.589  -5.671  0.00  0.00    -0.330 N 
ATOM     14  C   LIG    1        6.617  -1.252  -6.823  0.00  0.00    +0.480 A 
ATOM     15  N   LIG    1        6.737  -2.256  -7.654  0.00  0.00    -0.540 NA
ATOM     16  C   LIG    1        7.408  -3.249  -7.070  0.00  0.00    +0.430 A 
ATOM     17  N   LIG    1        7.731  -2.888  -5.855  0.00  0.00    -0.310 NA
ENDBRANCH  10  13
ENDBRANCH   6   7
ENDBRANCH   1   6
BRANCH   2  18
ATOM     18  C   LIG    1        4.001   2.016  -0.002  0.00  0.00    +0.050 C 
BRANCH  18  19
ATOM     19  C   LIG    1        4.023   2.567   1.401  0.00  0.00    -0.070 A 
ATOM     20  C   LIG    1        4.346   1.743   2.462  0.00  0.00    +0.030 A 
ATOM     21  C   LIG    1        4.370   2.249   3.748  0.00  0.00    +0.010 A 
ATOM     22  C   LIG    1        4.063   3.578   3.974  0.00  0.00    +0.020 A 
ATOM     23  C   LIG    1        3.734   4.401   2.913  0.00  0.00    +0.010 A 
ATOM     24  C   LIG    1        3.714   3.895   1.626  0.00  0.00    +0.030 A 
ENDBRANCH  18  19
BRANCH  18  25
ATOM     25  S   LIG    1        2.711   0.747  -0.133  0.00  0.00    -0.040 S 
BRANCH  25  26
ATOM     26  C   LIG    1        2.628   0.443  -1.866  0.00  0.00    -0.090 A 
ATOM     27  C   LIG    1        1.833  -0.586  -2.356  0.00  0.00    +0.030 A 
ATOM     28  C   LIG    1        1.776  -0.825  -3.715  0.00  0.00    +0.030 A 
ATOM     29  C   LIG    1        2.500  -0.035  -4.589  0.00  0.00    +0.000 A 
ATOM     30  C   LIG    1        3.292   0.991  -4.105  0.00  0.00    +0.020 A 
ATOM     31  C   LIG    1        3.359   1.232  -2.747  0.00  0.00    -0.020 A 
ENDBRANCH  25  26
ENDBRANCH  18  25
ENDBRANCH   2  18
TORSDOF 7
