REMARK  Name = ZINCrg00000b4Td4.1
REMARK                            x       y       z     vdW  Elec       q    Type
REMARK                         _______ _______ _______ _____ _____    ______ ____
ROOT
ATOM      1  N   LIG    1       -1.083  -0.704  -0.051  0.00  0.00    -0.600 N 
ATOM      2  C   LIG    1        0.129  -0.115  -0.060  0.00  0.00    +0.510 C 
ATOM      3  O   LIG    1        1.133  -0.793  -0.001  0.00  0.00    -0.500 OA
ATOM      4  C   LIG    1       -2.296   0.114  -0.122  0.00  0.00    +0.280 C 
ENDROOT
BRANCH   1   5
ATOM      5  C   LIG    1       -1.188  -2.163   0.030  0.00  0.00    +0.300 C 
ATOM      6  C   LIG    1       -1.844  -2.555   1.356  0.00  0.00    +0.040 C 
BRANCH   5  12
ATOM      7  C   LIG    1       -1.488  -2.746  -2.390  0.00  0.00    +0.140 A 
ATOM      8  C   LIG    1       -2.262  -3.214  -3.442  0.00  0.00    -0.080 A 
ATOM      9  C   LIG    1       -3.568  -3.605  -3.215  0.00  0.00    +0.060 A 
ATOM     10  C   LIG    1       -4.103  -3.530  -1.943  0.00  0.00    -0.030 A 
ATOM     11  C   LIG    1       -3.331  -3.068  -0.892  0.00  0.00    +0.060 A 
ATOM     12  C   LIG    1       -2.027  -2.671  -1.114  0.00  0.00    -0.140 A 
BRANCH   7  14
ATOM     13  C   LIG    1        0.285  -2.465  -3.949  0.00  0.00    +0.240 C 
ATOM     14  O   LIG    1       -0.203  -2.361  -2.610  0.00  0.00    -0.310 OA
ENDBRANCH   7  14
ENDBRANCH   5  12
ENDBRANCH   1   5
BRANCH   2  15
ATOM     15  C   LIG    1        0.236   1.386  -0.143  0.00  0.00    +0.360 C 
BRANCH  15  16
ATOM     16  N   LIG    1        1.649   1.775  -0.137  0.00  0.00    -0.280 N 
ATOM     17  C   LIG    1        2.264   2.540  -1.068  0.00  0.00    +0.130 A 
ATOM     18  C   LIG    1        3.554   2.648  -0.674  0.00  0.00    +0.000 A 
ATOM     19  N   LIG    1        3.663   1.954   0.464  0.00  0.00    -0.260 NA
ATOM     20  N   LIG    1        2.515   1.453   0.758  0.00  0.00    -0.050 NA
BRANCH  18  21
ATOM     21  C   LIG    1        4.652   3.404  -1.378  0.00  0.00    +0.150 C 
BRANCH  21  22
ATOM     22  C   LIG    1        5.288   4.402  -0.408  0.00  0.00    +0.160 C 
ATOM     23  C   LIG    1        6.483   5.080  -1.083  0.00  0.00    +0.180 C 
ATOM     24  O   LIG    1        7.026   6.066  -0.200  0.00  0.00    -0.380 OA
ATOM     25  C   LIG    1        6.089   7.076   0.183  0.00  0.00    +0.170 C 
ATOM     26  C   LIG    1        4.890   6.417   0.870  0.00  0.00    +0.190 C 
ATOM     27  N   LIG    1        4.297   5.423  -0.035  0.00  0.00    -0.670 NA
ATOM     28  H   LIG    1        3.909   5.866  -0.855  0.00  0.00    +0.340 HD
ENDBRANCH  21  22
ENDBRANCH  18  21
ENDBRANCH  15  16
ENDBRANCH   2  15
TORSDOF 7
