REMARK  Name = ZINCrH00000No4Wq.0
REMARK                            x       y       z     vdW  Elec       q    Type
REMARK                         _______ _______ _______ _____ _____    ______ ____
ROOT
ATOM      1  N   LIG    1        1.362   1.593  -0.002  0.00  0.00    -0.740 N 
ATOM      2  H   LIG    1        1.583   2.404   0.482  0.00  0.00    +0.400 HD
ATOM      3  C   LIG    1        2.318   0.933  -0.685  0.00  0.00    +0.710 C 
ATOM      4  N   LIG    1        3.583   1.399  -0.694  0.00  0.00    -0.740 N 
ATOM      5  H   LIG    1        3.804   2.210  -0.210  0.00  0.00    +0.400 HD
ATOM      6  O   LIG    1        2.041  -0.084  -1.291  0.00  0.00    -0.590 OA
ENDROOT
BRANCH   1   8
ATOM      7  C   LIG    1       -0.753   1.593  -1.232  0.00  0.00    +0.040 C 
ATOM      8  C   LIG    1       -0.013   1.086   0.008  0.00  0.00    +0.250 C 
BRANCH   8   9
ATOM      9  C   LIG    1       -0.729   1.579   1.267  0.00  0.00    +0.330 C 
BRANCH   9  10
ATOM     10  N   LIG    1        0.044   1.196   2.451  0.00  0.00    -0.430 N 
ATOM     11  N   LIG    1       -0.217  -0.030   3.064  0.00  0.00    -0.230 NA
ATOM     12  C   LIG    1        0.431  -0.442   4.113  0.00  0.00    +0.320 A 
ATOM     13  C   LIG    1        1.474   0.397   4.705  0.00  0.00    -0.070 A 
ATOM     14  C   LIG    1        2.188  -0.006   5.835  0.00  0.00    +0.050 A 
ATOM     15  C   LIG    1        3.159   0.821   6.354  0.00  0.00    +0.050 A 
ATOM     16  C   LIG    1        3.436   2.049   5.767  0.00  0.00    +0.030 A 
ATOM     17  C   LIG    1        2.744   2.467   4.652  0.00  0.00    +0.090 A 
ATOM     18  C   LIG    1        1.756   1.647   4.109  0.00  0.00    -0.130 A 
ATOM     19  C   LIG    1        0.986   2.039   2.922  0.00  0.00    +0.530 A 
ATOM     20  O   LIG    1        1.194   3.107   2.372  0.00  0.00    -0.530 OA
ENDBRANCH   9  10
ENDBRANCH   8   9
ENDBRANCH   1   8
BRANCH   4  21
ATOM     21  C   LIG    1        4.623   0.682  -1.436  0.00  0.00    +0.340 C 
BRANCH  21  22
ATOM     22  C   LIG    1        5.936   1.405  -1.286  0.00  0.00    -0.100 A 
ATOM     23  C   LIG    1        6.390   2.229  -2.299  0.00  0.00    +0.070 A 
ATOM     24  C   LIG    1        7.593   2.898  -2.160  0.00  0.00    +0.030 A 
ATOM     25  C   LIG    1        8.347   2.734  -1.014  0.00  0.00    +0.070 A 
ATOM     26  C   LIG    1        7.896   1.906  -0.002  0.00  0.00    -0.090 A 
ATOM     27 BR   LIG    1        8.928   1.681   1.567  0.00  0.00    -0.020 Br
ATOM     28  C   LIG    1        6.690   1.241  -0.138  0.00  0.00    -0.000 A 
ATOM     29 CL   LIG    1        6.123   0.201   1.131  0.00  0.00    -0.030 Cl
ENDBRANCH  21  22
ENDBRANCH   4  21
TORSDOF 5
