REMARK  Name = ZINCkj000005f812.1
REMARK                            x       y       z     vdW  Elec       q    Type
REMARK                         _______ _______ _______ _____ _____    ______ ____
ROOT
ATOM      1  N   LIG    1        0.063   2.764   3.228  0.00  0.00    -0.610 N 
ATOM      2  C   LIG    1        0.185   2.489   4.542  0.00  0.00    +0.520 C 
ATOM      3  O   LIG    1        0.628   1.418   4.898  0.00  0.00    -0.520 OA
ATOM      4  C   LIG    1       -0.473   4.058   2.797  0.00  0.00    +0.300 C 
ENDROOT
BRANCH   1   8
ATOM      5  N   LIG    1       -0.012   1.005   0.008  0.00  0.00    -0.390 N 
ATOM      6  C   LIG    1        1.370   1.520  -0.003  0.00  0.00    +0.270 C 
ATOM      7  C   LIG    1        1.562   2.338   1.291  0.00  0.00    +0.060 C 
ATOM      8  C   LIG    1        0.466   1.770   2.230  0.00  0.00    +0.270 C 
ATOM      9  C   LIG    1       -0.684   1.487   1.233  0.00  0.00    +0.260 C 
ATOM     10  H   LIG    1        0.002  -0.004   0.002  0.00  0.00    +0.430 HD
BRANCH   5  12
ATOM     11  C   LIG    1       -0.039   0.990  -2.441  0.00  0.00    +0.090 C 
ATOM     12  C   LIG    1       -0.732   1.497  -1.175  0.00  0.00    +0.170 C 
ATOM     13  C   LIG    1       -2.174   0.987  -1.142  0.00  0.00    +0.090 C 
ENDBRANCH   5  12
ENDBRANCH   1   8
BRANCH   2  14
ATOM     14  C   LIG    1       -0.230   3.512   5.568  0.00  0.00    +0.080 C 
BRANCH  14  15
ATOM     15  C   LIG    1        0.009   2.952   6.971  0.00  0.00    +0.130 C 
BRANCH  15  16
ATOM     16  C   LIG    1       -0.406   3.975   7.997  0.00  0.00    +0.170 A 
ATOM     17  C   LIG    1       -1.323   3.649   8.983  0.00  0.00    -0.070 A 
ATOM     18  C   LIG    1       -1.675   4.622   9.905  0.00  0.00    +0.320 A 
ATOM     19  N   LIG    1       -1.126   5.823   9.814  0.00  0.00    -0.520 NA
ATOM     20  C   LIG    1       -0.256   6.097   8.863  0.00  0.00    +0.500 A 
ATOM     21  N   LIG    1        0.106   5.196   7.972  0.00  0.00    -0.520 NA
ENDBRANCH  15  16
ENDBRANCH  14  15
ENDBRANCH   2  14
TORSDOF 5
