REMARK  Name = ZINCkj000005f812.0
REMARK                            x       y       z     vdW  Elec       q    Type
REMARK                         _______ _______ _______ _____ _____    ______ ____
ROOT
ATOM      1  N   LIG    1        3.772   6.745  -2.137  0.00  0.00    -0.620 N 
ATOM      2  C   LIG    1        3.585   5.810  -1.184  0.00  0.00    +0.520 C 
ATOM      3  O   LIG    1        4.431   5.635  -0.333  0.00  0.00    -0.520 OA
ATOM      4  C   LIG    1        2.750   6.957  -3.165  0.00  0.00    +0.290 C 
ENDROOT
BRANCH   1   8
ATOM      5  N   LIG    1        5.792   8.689  -4.135  0.00  0.00    -0.390 N 
ATOM      6  C   LIG    1        5.686   9.689  -3.042  0.00  0.00    +0.280 C 
ATOM      7  C   LIG    1        4.651   9.054  -2.077  0.00  0.00    +0.060 C 
ATOM      8  C   LIG    1        4.996   7.548  -2.144  0.00  0.00    +0.270 C 
ATOM      9  C   LIG    1        5.747   7.365  -3.476  0.00  0.00    +0.260 C 
ATOM     10  H   LIG    1        5.016   8.786  -4.772  0.00  0.00    +0.420 HD
BRANCH   5  12
ATOM     11  C   LIG    1        7.196   7.762  -5.914  0.00  0.00    +0.090 C 
ATOM     12  C   LIG    1        7.063   8.855  -4.852  0.00  0.00    +0.170 C 
ATOM     13  C   LIG    1        7.092  10.228  -5.527  0.00  0.00    +0.090 C 
ENDBRANCH   5  12
ENDBRANCH   1   8
BRANCH   2  14
ATOM     14  C   LIG    1        2.325   4.983  -1.175  0.00  0.00    +0.080 C 
BRANCH  14  15
ATOM     15  C   LIG    1        2.364   4.005   0.001  0.00  0.00    +0.130 C 
BRANCH  15  16
ATOM     16  C   LIG    1        1.105   3.179   0.009  0.00  0.00    +0.170 A 
ATOM     17  C   LIG    1        1.173   1.794   0.001  0.00  0.00    -0.070 A 
ATOM     18  C   LIG    1       -0.013   1.076   0.008  0.00  0.00    +0.320 A 
ATOM     19  N   LIG    1       -1.162   1.731   0.017  0.00  0.00    -0.520 NA
ATOM     20  C   LIG    1       -1.189   3.049   0.030  0.00  0.00    +0.500 A 
ATOM     21  N   LIG    1       -0.082   3.764   0.023  0.00  0.00    -0.520 NA
ENDBRANCH  15  16
ENDBRANCH  14  15
ENDBRANCH   2  14
TORSDOF 5
