REMARK  Name = ZINCrH000004jRIj.0
REMARK                            x       y       z     vdW  Elec       q    Type
REMARK                         _______ _______ _______ _____ _____    ______ ____
ROOT
ATOM      1  C   LIG    1        1.007   5.429   2.170  0.00  0.00    +0.300 C 
ATOM      2  N   LIG    1        0.137   5.036   1.058  0.00  0.00    -0.610 N 
ATOM      3  C   LIG    1       -0.919   4.228   1.282  0.00  0.00    +0.560 C 
ATOM      4  O   LIG    1       -1.178   3.867   2.414  0.00  0.00    -0.510 OA
ENDROOT
BRANCH   3   5
ATOM      5  C   LIG    1       -1.759   3.783   0.155  0.00  0.00    -0.140 A 
ATOM      6  C   LIG    1       -1.170   3.403  -1.053  0.00  0.00    +0.060 A 
ATOM      7  C   LIG    1       -1.961   2.987  -2.103  0.00  0.00    +0.020 A 
ATOM      8  C   LIG    1       -3.339   2.946  -1.966  0.00  0.00    +0.060 A 
ATOM      9  C   LIG    1       -3.934   3.320  -0.778  0.00  0.00    +0.010 A 
ATOM     10  C   LIG    1       -3.154   3.735   0.291  0.00  0.00    +0.130 A 
BRANCH  10  11
ATOM     11  O   LIG    1       -3.737   4.097   1.461  0.00  0.00    -0.240 OA
BRANCH  11  12
ATOM     12  C   LIG    1       -4.006   5.414   1.658  0.00  0.00    +0.080 A 
ATOM     13  C   LIG    1       -4.508   5.857   2.878  0.00  0.00    +0.050 A 
ATOM     14  C   LIG    1       -4.762   7.210   3.034  0.00  0.00    +0.020 A 
ATOM     15  C   LIG    1       -4.522   8.068   1.977  0.00  0.00    +0.220 A 
ATOM     16  N   LIG    1       -4.051   7.615   0.831  0.00  0.00    -0.450 NA
ATOM     17  C   LIG    1       -3.791   6.337   0.644  0.00  0.00    +0.180 A 
ENDBRANCH  11  12
ENDBRANCH  10  11
ENDBRANCH   3   5
BRANCH   2  18
ATOM     18  C   LIG    1        0.414   5.521  -0.296  0.00  0.00    +0.300 C 
BRANCH  18  19
ATOM     19  C   LIG    1        1.867   5.211  -0.661  0.00  0.00    +0.190 C 
BRANCH  19  20
ATOM     20  O   LIG    1        2.052   3.795  -0.720  0.00  0.00    -0.310 OA
BRANCH  20  21
ATOM     21  C   LIG    1        3.297   3.348  -1.035  0.00  0.00    +0.120 A 
ATOM     22  C   LIG    1        4.317   4.254  -1.286  0.00  0.00    -0.060 A 
ATOM     23  C   LIG    1        5.583   3.800  -1.600  0.00  0.00    +0.030 A 
ATOM     24  C   LIG    1        5.832   2.437  -1.675  0.00  0.00    +0.070 A 
ATOM     25  C   LIG    1        4.811   1.531  -1.429  0.00  0.00    +0.040 A 
ATOM     26  C   LIG    1        3.546   1.985  -1.110  0.00  0.00    +0.010 A 
BRANCH  24  27
ATOM     27  O   LIG    1        7.077   1.990  -1.990  0.00  0.00    -0.500 OA
ATOM     28  H   LIG    1        7.223   1.869  -2.938  0.00  0.00    +0.390 HD
ENDBRANCH  24  27
ENDBRANCH  20  21
ENDBRANCH  19  20
ENDBRANCH  18  19
ENDBRANCH   2  18
TORSDOF 8
