REMARK  Name = ZINCqH0000002IJh.0
REMARK                            x       y       z     vdW  Elec       q    Type
REMARK                         _______ _______ _______ _____ _____    ______ ____
ROOT
ATOM      1  C   LIG    1       -2.614   2.930   4.745  0.00  0.00    +0.580 C 
ATOM      2  N   LIG    1       -3.943   3.151   4.775  0.00  0.00    -0.730 N 
ATOM      3  H   LIG    1       -4.479   2.997   3.981  0.00  0.00    +0.400 HD
ATOM      4  O   LIG    1       -1.943   3.123   5.741  0.00  0.00    -0.500 OA
ENDROOT
BRANCH   1  11
ATOM      5  C   LIG    1       -0.591   2.218   3.460  0.00  0.00    +0.390 A 
ATOM      6  N   LIG    1       -0.021   1.791   2.346  0.00  0.00    -0.550 NA
ATOM      7  C   LIG    1       -0.718   1.572   1.248  0.00  0.00    +0.200 A 
ATOM      8  C   LIG    1       -2.084   1.785   1.212  0.00  0.00    -0.070 A 
ATOM      9  C   LIG    1       -2.734   2.227   2.352  0.00  0.00    +0.140 A 
ATOM     10  C   LIG    1       -0.013   1.086   0.008  0.00  0.00    +0.140 C 
ATOM     11  C   LIG    1       -1.974   2.453   3.505  0.00  0.00    -0.220 A 
BRANCH   5  12
ATOM     12  O   LIG    1        0.164   2.430   4.564  0.00  0.00    -0.270 OA
BRANCH  12  13
ATOM     13  C   LIG    1        1.565   2.171   4.451  0.00  0.00    +0.200 C 
BRANCH  13  15
ATOM     14  C   LIG    1        3.747   2.188   5.669  0.00  0.00    +0.030 C 
ATOM     15  C   LIG    1        2.247   2.465   5.789  0.00  0.00    +0.020 C 
ENDBRANCH  13  15
ENDBRANCH  12  13
ENDBRANCH   5  12
ENDBRANCH   1  11
BRANCH   2  16
ATOM     16  C   LIG    1       -4.579   3.625   6.007  0.00  0.00    +0.390 C 
ATOM     17  C   LIG    1       -4.472   5.149   6.083  0.00  0.00    +0.070 C 
BRANCH  16  18
ATOM     18  C   LIG    1       -6.032   3.223   6.008  0.00  0.00    +0.170 A 
ATOM     19  N   LIG    1       -6.695   2.696   7.009  0.00  0.00    -0.460 NA
ATOM     20  C   LIG    1       -7.947   2.508   6.555  0.00  0.00    +0.180 A 
ATOM     21  N   LIG    1       -7.979   2.917   5.322  0.00  0.00    -0.370 NA
ATOM     22  O   LIG    1       -6.889   3.331   4.988  0.00  0.00    +0.080 OA
BRANCH  20  23
ATOM     23  C   LIG    1       -9.100   1.927   7.332  0.00  0.00    +0.100 C 
ATOM     24  C   LIG    1       -9.649   0.680   6.608  0.00  0.00    +0.020 C 
ATOM     25  C   LIG    1      -11.181   0.758   6.828  0.00  0.00    +0.020 C 
ATOM     26  C   LIG    1      -11.467   2.276   6.715  0.00  0.00    +0.020 C 
ATOM     27  C   LIG    1      -10.255   2.941   7.400  0.00  0.00    +0.030 C 
ENDBRANCH  20  23
ENDBRANCH  16  18
ENDBRANCH   2  16
TORSDOF 7
