REMARK  Name = ZINCkj000005jRK0.1
REMARK                            x       y       z     vdW  Elec       q    Type
REMARK                         _______ _______ _______ _____ _____    ______ ____
ROOT
ATOM      1  S   LIG    1        2.711   1.195  -0.017  0.00  0.00    +2.700 S 
ATOM      2  O   LIG    1        2.456  -0.094   0.523  0.00  0.00    -0.920 OA
ATOM      3  O   LIG    1        3.676   2.087   0.523  0.00  0.00    -0.930 OA
ENDROOT
BRANCH   1   4
ATOM      4  C   LIG    1        1.173   2.055   0.002  0.00  0.00    -0.790 A 
ATOM      5  C   LIG    1       -0.016   1.347   0.009  0.00  0.00    +0.270 A 
ATOM      6  C   LIG    1       -1.224   2.023   0.019  0.00  0.00    -0.050 A 
ATOM      7  C   LIG    1       -1.243   3.407   0.031  0.00  0.00    +0.230 A 
ATOM      8  C   LIG    1       -0.054   4.115   0.024  0.00  0.00    -0.050 A 
ATOM      9  F   LIG    1       -2.422   4.066   0.045  0.00  0.00    -0.100 F 
ATOM     10  F   LIG    1        0.002  -0.004   0.002  0.00  0.00    -0.090 F 
ATOM     11  C   LIG    1        1.154   3.439   0.010  0.00  0.00    +0.250 A 
ATOM     12  F   LIG    1        2.315   4.131   0.003  0.00  0.00    -0.100 F 
ENDBRANCH   1   4
BRANCH   1  13
ATOM     13  N   LIG    1        3.124   0.964  -1.604  0.00  0.00    -1.100 NA
ATOM     14  H   LIG    1        3.170   0.066  -1.967  0.00  0.00    +0.430 HD
BRANCH  13  23
ATOM     15  C   LIG    1        1.408   1.669  -3.876  0.00  0.00    +0.050 C 
ATOM     16  C   LIG    1        2.929   1.835  -3.882  0.00  0.00    -0.010 C 
ATOM     17  C   LIG    1        3.313   3.011  -4.785  0.00  0.00    +0.070 C 
ATOM     18  C   LIG    1        4.827   3.222  -4.724  0.00  0.00    +0.260 C 
ATOM     19  N   LIG    1        5.229   3.512  -3.342  0.00  0.00    -0.500 N 
ATOM     20  C   LIG    1        4.930   2.360  -2.484  0.00  0.00    +0.260 C 
ATOM     21  H   LIG    1        6.219   3.703  -3.315  0.00  0.00    +0.440 HD
ATOM     22  H   LIG    1        4.723   4.319  -3.009  0.00  0.00    +0.430 HD
ATOM     23  C   LIG    1        3.419   2.116  -2.459  0.00  0.00    +0.240 C 
ENDBRANCH  13  23
ENDBRANCH   1  13
TORSDOF 3
