REMARK  Name = ZINCrD00000l6Imr.0
REMARK                            x       y       z     vdW  Elec       q    Type
REMARK                         _______ _______ _______ _____ _____    ______ ____
ROOT
ATOM      1  N   LIG    1        3.014   4.265  -1.279  0.00  0.00    -0.600 N 
ATOM      2  C   LIG    1        3.675   3.344  -2.007  0.00  0.00    +0.560 C 
ATOM      3  O   LIG    1        3.831   2.221  -1.569  0.00  0.00    -0.510 OA
ENDROOT
BRANCH   2   4
ATOM      4  C   LIG    1        4.213   3.700  -3.342  0.00  0.00    -0.020 A 
ATOM      5  C   LIG    1        3.398   3.736  -4.437  0.00  0.00    -0.010 A 
ATOM      6  C   LIG    1        3.958   4.092  -5.739  0.00  0.00    +0.540 A 
ATOM      7  N   LIG    1        5.263   4.384  -5.875  0.00  0.00    -0.630 N 
ATOM      8  H   LIG    1        5.609   4.616  -6.751  0.00  0.00    +0.420 HD
ATOM      9  C   LIG    1        6.119   4.358  -4.795  0.00  0.00    +0.190 A 
ATOM     10  C   LIG    1        7.468   4.664  -4.957  0.00  0.00    -0.020 A 
ATOM     11  C   LIG    1        8.309   4.651  -3.866  0.00  0.00    +0.080 A 
ATOM     12  C   LIG    1        7.829   4.321  -2.606  0.00  0.00    -0.010 A 
ATOM     13  C   LIG    1        6.511   4.012  -2.425  0.00  0.00    +0.080 A 
ATOM     14  O   LIG    1        3.230   4.125  -6.716  0.00  0.00    -0.520 OA
ATOM     15  C   LIG    1        5.637   4.029  -3.516  0.00  0.00    -0.110 A 
ENDBRANCH   2   4
BRANCH   1  17
ATOM     16  C   LIG    1        3.855   6.553  -1.481  0.00  0.00    +0.020 C 
ATOM     17  C   LIG    1        2.730   5.584  -1.850  0.00  0.00    +0.270 C 
ENDBRANCH   1  17
BRANCH   1  18
ATOM     18  C   LIG    1        2.579   3.948   0.084  0.00  0.00    +0.350 C 
BRANCH  18  19
ATOM     19  C   LIG    1        1.195   3.353   0.043  0.00  0.00    -0.110 A 
ATOM     20  C   LIG    1        1.034   1.986  -0.079  0.00  0.00    +0.050 A 
ATOM     21  C   LIG    1       -0.234   1.437  -0.117  0.00  0.00    +0.020 A 
ATOM     22  C   LIG    1       -1.349   2.258  -0.039  0.00  0.00    +0.060 A 
ATOM     23  O   LIG    1       -2.591   1.703  -0.080  0.00  0.00    -0.310 OA
ATOM     24  C   LIG    1       -3.675   2.515   0.383  0.00  0.00    +0.220 C 
ATOM     25  C   LIG    1       -3.526   3.912  -0.234  0.00  0.00    +0.220 C 
ATOM     26  O   LIG    1       -2.268   4.455   0.182  0.00  0.00    -0.310 OA
ATOM     27  C   LIG    1       -1.187   3.632   0.092  0.00  0.00    +0.050 A 
ATOM     28  C   LIG    1        0.087   4.176   0.129  0.00  0.00    +0.030 A 
ENDBRANCH  18  19
ENDBRANCH   1  18
TORSDOF 4
