REMARK  Name = ZINCnE000001R2Lt.1
REMARK                            x       y       z     vdW  Elec       q    Type
REMARK                         _______ _______ _______ _____ _____    ______ ____
ROOT
ATOM      1  C   LIG    1       -2.719   8.741   0.009  0.00  0.00    +0.460 C 
ATOM      2  N   LIG    1       -1.637   7.952  -0.140  0.00  0.00    -0.660 NA
ATOM      3  O   LIG    1       -3.827   8.248   0.051  0.00  0.00    -0.590 OA
ENDROOT
BRANCH   2   4
ATOM      4  C   LIG    1       -1.789   6.575  -0.245  0.00  0.00    +0.390 A 
ATOM      5  N   LIG    1       -0.822   5.724  -0.385  0.00  0.00    -0.550 NA
ATOM      6  C   LIG    1       -1.159   4.438  -0.475  0.00  0.00    +0.160 A 
ATOM      7  C   LIG    1       -2.479   4.184  -0.397  0.00  0.00    -0.180 A 
ATOM      8  S   LIG    1       -3.326   5.717  -0.202  0.00  0.00    -0.010 S 
BRANCH   6   9
ATOM      9  C   LIG    1       -0.155   3.366  -0.642  0.00  0.00    +0.080 A 
ATOM     10  C   LIG    1        1.191   3.540  -0.729  0.00  0.00    -0.040 A 
ATOM     11  C   LIG    1        1.757   2.258  -0.881  0.00  0.00    -0.060 A 
ATOM     12  C   LIG    1        0.741   1.375  -0.879  0.00  0.00    +0.140 A 
ATOM     13  O   LIG    1       -0.414   2.049  -0.740  0.00  0.00    -0.170 OA
ENDBRANCH   6   9
ENDBRANCH   2   4
BRANCH   1  14
ATOM     14  C   LIG    1       -2.554  10.234   0.124  0.00  0.00    +0.080 C 
ATOM     15  C   LIG    1       -1.876  10.771  -1.139  0.00  0.00    +0.040 C 
BRANCH  14  23
ATOM     16  C   LIG    1       -5.011   9.911  -1.851  0.00  0.00    +0.140 C 
ATOM     17  C   LIG    1       -4.992  10.737  -0.590  0.00  0.00    +0.120 A 
ATOM     18  N   LIG    1       -5.988  11.444  -0.122  0.00  0.00    -0.310 NA
ATOM     19  N   LIG    1       -5.567  12.060   1.064  0.00  0.00    -0.390 N 
ATOM     20  C   LIG    1       -4.288  11.693   1.292  0.00  0.00    +0.070 A 
ATOM     21  C   LIG    1       -3.437  12.117   2.461  0.00  0.00    +0.140 C 
ATOM     22  C   LIG    1       -6.374  12.942   1.911  0.00  0.00    +0.340 C 
ATOM     23  C   LIG    1       -3.907  10.879   0.281  0.00  0.00    -0.200 A 
ENDBRANCH  14  23
ENDBRANCH   1  14
TORSDOF 4
