REMARK  Name = ZINCnE000001PrBX.0
REMARK                            x       y       z     vdW  Elec       q    Type
REMARK                         _______ _______ _______ _____ _____    ______ ____
ROOT
ATOM      1  S   LIG    1       -2.084   2.125  -0.312  0.00  0.00    +2.580 S 
ATOM      2  O   LIG    1       -3.369   1.525  -0.403  0.00  0.00    -1.050 OA
ATOM      3  O   LIG    1       -1.625   3.120  -1.218  0.00  0.00    -1.030 OA
ENDROOT
BRANCH   1  10
ATOM      4  C   LIG    1        0.912   2.502  -0.129  0.00  0.00    +0.100 C 
ATOM      5  C   LIG    1        0.438   1.081  -0.295  0.00  0.00    +0.020 A 
ATOM      6  C   LIG    1        1.356   0.049  -0.359  0.00  0.00    -0.030 A 
ATOM      7  C   LIG    1        0.921  -1.254  -0.510  0.00  0.00    +0.030 A 
ATOM      8  C   LIG    1       -0.431  -1.526  -0.600  0.00  0.00    -0.110 A 
ATOM      9  C   LIG    1       -1.349  -0.494  -0.537  0.00  0.00    +0.100 A 
ATOM     10  C   LIG    1       -0.914   0.809  -0.385  0.00  0.00    -0.610 A 
BRANCH   8  11
ATOM     11  C   LIG    1       -0.904  -2.947  -0.765  0.00  0.00    -0.030 C 
ATOM     12  C   LIG    1       -1.805  -3.325   0.412  0.00  0.00    +0.040 C 
ATOM     13  C   LIG    1        0.303  -3.886  -0.805  0.00  0.00    +0.040 C 
ATOM     14  C   LIG    1       -1.692  -3.073  -2.071  0.00  0.00    +0.040 C 
ENDBRANCH   8  11
ENDBRANCH   1  10
BRANCH   1  15
ATOM     15  N   LIG    1       -1.983   2.788   1.202  0.00  0.00    -1.080 NA
BRANCH  15  16
ATOM     16  C   LIG    1       -2.884   3.797   1.590  0.00  0.00    +0.110 A 
ATOM     17  C   LIG    1       -3.672   3.783   2.694  0.00  0.00    -0.000 A 
ATOM     18  N   LIG    1       -4.387   4.940   2.703  0.00  0.00    -0.400 N 
ATOM     19  N   LIG    1       -4.028   5.675   1.566  0.00  0.00    -0.310 NA
ATOM     20  C   LIG    1       -5.364   5.343   3.718  0.00  0.00    +0.320 C 
ATOM     21  C   LIG    1       -3.742   2.686   3.725  0.00  0.00    +0.130 C 
ATOM     22  C   LIG    1       -3.131   4.993   0.901  0.00  0.00    +0.010 A 
ATOM     23  C   LIG    1       -2.474   5.421  -0.386  0.00  0.00    +0.150 C 
ENDBRANCH  15  16
ENDBRANCH   1  15
TORSDOF 4
