REMARK  Name = ZINCwl0000000yEv.1
REMARK                            x       y       z     vdW  Elec       q    Type
REMARK                         _______ _______ _______ _____ _____    ______ ____
ROOT
ATOM      1  C   LIG    1        0.196  -1.172  -1.858  0.00  0.00    +0.530 C 
ATOM      2  N   LIG    1       -0.418  -0.681  -0.763  0.00  0.00    -0.610 N 
ATOM      3  C   LIG    1       -1.851  -0.346  -0.657  0.00  0.00    +0.250 C 
ATOM      4  C   LIG    1       -1.935   0.702   0.484  0.00  0.00    +0.060 C 
ATOM      5  C   LIG    1       -0.843   0.198   1.442  0.00  0.00    -0.100 C 
ATOM      6  C   LIG    1       -1.396  -0.849   2.422  0.00  0.00    +0.050 C 
ATOM      7  C   LIG    1       -1.922   0.053   3.570  0.00  0.00    +0.260 C 
ATOM      8  N   LIG    1       -0.967   1.176   3.642  0.00  0.00    -0.630 N 
ATOM      9  C   LIG    1       -0.739   1.945   4.725  0.00  0.00    +0.600 C 
ATOM     10  O   LIG    1       -1.610   2.092   5.561  0.00  0.00    -0.500 OA
ATOM     11  C   LIG    1       -0.304   1.316   2.333  0.00  0.00    +0.330 C 
ATOM     12  C   LIG    1        0.232  -0.388   0.527  0.00  0.00    +0.290 C 
ATOM     13  O   LIG    1        1.384  -1.412  -1.831  0.00  0.00    -0.530 OA
ENDROOT
BRANCH   9  14
ATOM     14  C   LIG    1        0.564   2.606   4.897  0.00  0.00    -0.240 A 
ATOM     15  C   LIG    1        1.115   2.755   6.160  0.00  0.00    +0.120 A 
ATOM     16  C   LIG    1        2.374   3.393   6.291  0.00  0.00    -0.140 A 
ATOM     17  C   LIG    1        2.958   3.553   7.556  0.00  0.00    +0.100 A 
ATOM     18  C   LIG    1        4.168   4.173   7.673  0.00  0.00    +0.000 A 
ATOM     19  C   LIG    1        4.830   4.648   6.548  0.00  0.00    +0.100 A 
ATOM     20  C   LIG    1        4.276   4.502   5.294  0.00  0.00    -0.030 A 
ATOM     21  C   LIG    1        3.042   3.873   5.149  0.00  0.00    +0.210 A 
ATOM     22  N   LIG    1        2.485   3.725   3.896  0.00  0.00    -0.620 N 
ATOM     23  H   LIG    1        2.959   4.063   3.119  0.00  0.00    +0.420 HD
ATOM     24 CL   LIG    1        0.277   2.164   7.561  0.00  0.00    +0.000 Cl
ATOM     25  C   LIG    1        1.294   3.121   3.734  0.00  0.00    +0.550 A 
ATOM     26  O   LIG    1        0.820   3.001   2.618  0.00  0.00    -0.510 OA
ENDBRANCH   9  14
BRANCH   1  27
ATOM     27  C   LIG    1       -0.595  -1.424  -3.116  0.00  0.00    +0.070 C 
BRANCH  27  28
ATOM     28  C   LIG    1        0.332  -1.977  -4.200  0.00  0.00    +0.280 C 
BRANCH  28  30
ATOM     29  C   LIG    1       -0.936  -0.946  -5.955  0.00  0.00    +0.320 C 
ATOM     30  N   LIG    1       -0.439  -2.223  -5.426  0.00  0.00    -0.390 N 
ATOM     31  H   LIG    1       -1.219  -2.827  -5.217  0.00  0.00    +0.430 HD
BRANCH  30  32
ATOM     32  C   LIG    1        0.424  -2.865  -6.426  0.00  0.00    +0.280 C 
BRANCH  32  33
ATOM     33  C   LIG    1        0.815  -4.262  -5.941  0.00  0.00    +0.210 C 
BRANCH  33  34
ATOM     34  O   LIG    1       -0.354  -5.078  -5.845  0.00  0.00    -0.580 OA
ATOM     35  H   LIG    1       -0.181  -5.980  -5.542  0.00  0.00    +0.410 HD
ENDBRANCH  33  34
ENDBRANCH  32  33
ENDBRANCH  30  32
ENDBRANCH  28  30
ENDBRANCH  27  28
ENDBRANCH   1  27
TORSDOF 7
