REMARK  Name = ZINCwl0000000yEv.0
REMARK                            x       y       z     vdW  Elec       q    Type
REMARK                         _______ _______ _______ _____ _____    ______ ____
ROOT
ATOM      1  C   LIG    1       -0.117   1.021  -0.012  0.00  0.00    +0.540 C 
ATOM      2  N   LIG    1       -1.297   1.671  -0.004  0.00  0.00    -0.610 N 
ATOM      3  C   LIG    1       -1.472   3.131  -0.080  0.00  0.00    +0.250 C 
ATOM      4  C   LIG    1       -2.990   3.418  -0.016  0.00  0.00    +0.060 C 
ATOM      5  C   LIG    1       -3.549   2.137   0.614  0.00  0.00    -0.090 C 
ATOM      6  C   LIG    1       -5.018   1.901   0.242  0.00  0.00    +0.070 C 
ATOM      7  C   LIG    1       -5.777   2.675   1.345  0.00  0.00    +0.240 C 
ATOM      8  N   LIG    1       -4.852   2.845   2.478  0.00  0.00    -0.610 N 
ATOM      9  C   LIG    1       -5.133   3.485   3.630  0.00  0.00    +0.610 C 
ATOM     10  O   LIG    1       -4.322   3.488   4.537  0.00  0.00    -0.510 OA
ATOM     11  C   LIG    1       -3.566   2.199   2.143  0.00  0.00    +0.290 C 
ATOM     12  C   LIG    1       -2.629   1.036   0.075  0.00  0.00    +0.300 C 
ATOM     13  O   LIG    1       -0.091  -0.190   0.055  0.00  0.00    -0.530 OA
ENDROOT
BRANCH   9  14
ATOM     14  C   LIG    1       -6.419   4.180   3.791  0.00  0.00    -0.220 A 
ATOM     15  C   LIG    1       -7.562   3.471   4.128  0.00  0.00    +0.100 A 
ATOM     16  C   LIG    1       -8.786   4.171   4.280  0.00  0.00    -0.140 A 
ATOM     17  C   LIG    1       -9.957   3.481   4.624  0.00  0.00    +0.100 A 
ATOM     18  C   LIG    1      -11.132   4.162   4.763  0.00  0.00    +0.000 A 
ATOM     19  C   LIG    1      -11.178   5.536   4.567  0.00  0.00    +0.100 A 
ATOM     20  C   LIG    1      -10.041   6.236   4.228  0.00  0.00    -0.020 A 
ATOM     21  C   LIG    1       -8.830   5.564   4.080  0.00  0.00    +0.210 A 
ATOM     22  N   LIG    1       -7.689   6.261   3.740  0.00  0.00    -0.620 N 
ATOM     23  H   LIG    1       -7.738   7.220   3.606  0.00  0.00    +0.430 HD
ATOM     24 CL   LIG    1       -7.495   1.752   4.364  0.00  0.00    -0.020 Cl
ATOM     25  C   LIG    1       -6.510   5.629   3.593  0.00  0.00    +0.560 A 
ATOM     26  O   LIG    1       -5.515   6.264   3.292  0.00  0.00    -0.510 OA
ENDBRANCH   9  14
BRANCH   1  27
ATOM     27  C   LIG    1        1.171   1.798  -0.110  0.00  0.00    +0.070 C 
BRANCH  27  28
ATOM     28  C   LIG    1        2.353   0.827  -0.105  0.00  0.00    +0.290 C 
BRANCH  28  30
ATOM     29  C   LIG    1        3.671   2.267  -1.499  0.00  0.00    +0.320 C 
ATOM     30  N   LIG    1        3.609   1.584  -0.200  0.00  0.00    -0.390 N 
ATOM     31  H   LIG    1        3.646   2.267   0.541  0.00  0.00    +0.430 HD
BRANCH  30  32
ATOM     32  C   LIG    1        4.747   0.663  -0.075  0.00  0.00    +0.280 C 
BRANCH  32  33
ATOM     33  C   LIG    1        6.050   1.464  -0.049  0.00  0.00    +0.210 C 
BRANCH  33  34
ATOM     34  O   LIG    1        6.088   2.273   1.127  0.00  0.00    -0.580 OA
ATOM     35  H   LIG    1        6.889   2.810   1.210  0.00  0.00    +0.410 HD
ENDBRANCH  33  34
ENDBRANCH  32  33
ENDBRANCH  30  32
ENDBRANCH  28  30
ENDBRANCH  27  28
ENDBRANCH   1  27
TORSDOF 7
