REMARK  Name = ZINCrD00000hQ5VL.0
REMARK                            x       y       z     vdW  Elec       q    Type
REMARK                         _______ _______ _______ _____ _____    ______ ____
ROOT
ATOM      1  C   LIG    1        0.506   3.984  -1.146  0.00  0.00    +0.190 A 
ATOM      2  N   LIG    1       -0.750   4.355  -1.128  0.00  0.00    -0.440 NA
ATOM      3  C   LIG    1       -1.012   4.807  -2.375  0.00  0.00    +0.210 A 
ATOM      4  N   LIG    1        0.088   4.686  -3.070  0.00  0.00    -0.370 NA
ATOM      5  O   LIG    1        0.969   4.220  -2.377  0.00  0.00    +0.090 OA
ENDROOT
BRANCH   3   6
ATOM      6  C   LIG    1       -2.308   5.341  -2.864  0.00  0.00    -0.020 A 
ATOM      7  C   LIG    1       -3.404   5.412  -2.006  0.00  0.00    +0.110 A 
ATOM      8  C   LIG    1       -4.606   5.909  -2.465  0.00  0.00    +0.030 A 
ATOM      9  C   LIG    1       -4.725   6.337  -3.775  0.00  0.00    +0.100 A 
ATOM     10  C   LIG    1       -3.641   6.269  -4.632  0.00  0.00    -0.190 A 
ATOM     11  C   LIG    1       -2.432   5.779  -4.181  0.00  0.00    +0.100 A 
BRANCH  10  12
ATOM     12  C   LIG    1       -3.778   6.737  -6.057  0.00  0.00    +0.510 C 
ATOM     13  F   LIG    1       -3.504   5.675  -6.926  0.00  0.00    -0.170 F 
ATOM     14  F   LIG    1       -2.874   7.778  -6.295  0.00  0.00    -0.170 F 
ATOM     15  F   LIG    1       -5.083   7.193  -6.275  0.00  0.00    -0.170 F 
ENDBRANCH  10  12
ENDBRANCH   3   6
BRANCH   1  16
ATOM     16  C   LIG    1        1.286   3.407   0.008  0.00  0.00    +0.310 C 
BRANCH  16  19
ATOM     17  C   LIG    1        0.002  -0.004   0.002  0.00  0.00    +0.310 A 
ATOM     18  N   LIG    1       -0.015   1.292   0.009  0.00  0.00    -0.470 NA
ATOM     19  C   LIG    1        1.153   1.905   0.001  0.00  0.00    +0.090 A 
ATOM     20  C   LIG    1        2.208   1.089  -0.013  0.00  0.00    -0.070 A 
ATOM     21  S   LIG    1        1.615  -0.570  -0.016  0.00  0.00    +0.150 S 
BRANCH  17  28
ATOM     22  O   LIG    1       -2.692   0.796   0.030  0.00  0.00    -0.520 OA
ATOM     23  C   LIG    1       -2.394  -0.383   0.021  0.00  0.00    +0.700 C 
ATOM     24  N   LIG    1       -3.304  -1.366   0.025  0.00  0.00    -0.730 N 
ATOM     25  H   LIG    1       -4.266  -1.241   0.034  0.00  0.00    +0.440 HD
ATOM     26  C   LIG    1       -2.612  -2.664   0.012  0.00  0.00    +0.280 C 
ATOM     27  C   LIG    1       -1.118  -2.286  -0.006  0.00  0.00    +0.280 C 
ATOM     28  N   LIG    1       -1.126  -0.816   0.008  0.00  0.00    -0.540 N 
ENDBRANCH  17  28
ENDBRANCH  16  19
ENDBRANCH   1  16
TORSDOF 5
