REMARK  Name = ZINCrD000000gUpT.0
REMARK                            x       y       z     vdW  Elec       q    Type
REMARK                         _______ _______ _______ _____ _____    ______ ____
ROOT
ATOM      1  C   LIG    1        6.579   5.080  -3.957  0.00  0.00    +0.110 C 
ATOM      2  C   LIG    1        5.813   4.750  -5.240  0.00  0.00    +0.060 C 
ATOM      3  C   LIG    1        4.585   3.902  -4.899  0.00  0.00    +0.030 C 
ATOM      4  C   LIG    1        3.659   4.700  -3.975  0.00  0.00    +0.280 C 
ATOM      5  N   LIG    1        4.429   5.145  -2.805  0.00  0.00    -0.590 N 
ATOM      6  C   LIG    1        3.998   4.875  -1.557  0.00  0.00    +0.650 C 
ATOM      7  O   LIG    1        4.644   5.249  -0.598  0.00  0.00    -0.570 OA
ATOM      8  C   LIG    1        5.673   5.896  -3.022  0.00  0.00    +0.280 C 
ENDROOT
BRANCH   1   9
ATOM      9  O   LIG    1        6.971   3.868  -3.310  0.00  0.00    -0.540 OA
ATOM     10  H   LIG    1        7.462   4.002  -2.488  0.00  0.00    +0.380 HD
ENDBRANCH   1   9
BRANCH   1  11
ATOM     11  C   LIG    1        7.824   5.900  -4.302  0.00  0.00    +0.290 C 
BRANCH  11  14
ATOM     12  C   LIG    1        9.254   7.213  -1.265  0.00  0.00    +0.030 A 
ATOM     13  C   LIG    1        8.385   7.323  -2.287  0.00  0.00    +0.110 A 
ATOM     14  N   LIG    1        8.557   6.216  -3.074  0.00  0.00    -0.460 N 
ATOM     15  C   LIG    1        9.532   5.472  -2.509  0.00  0.00    +0.380 A 
ATOM     16  N   LIG    1        9.945   6.074  -1.427  0.00  0.00    -0.480 NA
BRANCH  12  18
ATOM     17  C   LIG    1        8.261   8.062   0.843  0.00  0.00    +0.030 C 
ATOM     18  C   LIG    1        9.427   8.199  -0.139  0.00  0.00    +0.010 C 
ATOM     19  C   LIG    1        9.451   9.620  -0.705  0.00  0.00    +0.030 C 
ATOM     20  C   LIG    1       10.742   7.917   0.590  0.00  0.00    +0.030 C 
ENDBRANCH  12  18
ENDBRANCH  11  14
ENDBRANCH   1  11
BRANCH   6  21
ATOM     21  O   LIG    1        2.853   4.191  -1.373  0.00  0.00    -0.360 OA
BRANCH  21  22
ATOM     22  C   LIG    1        2.451   3.937  -0.001  0.00  0.00    +0.290 C 
BRANCH  22  23
ATOM     23  C   LIG    1        1.156   3.165   0.008  0.00  0.00    -0.100 A 
ATOM     24  C   LIG    1        1.175   1.783   0.000  0.00  0.00    +0.030 A 
ATOM     25  C   LIG    1       -0.013   1.076   0.008  0.00  0.00    +0.010 A 
ATOM     26  C   LIG    1       -1.219   1.751   0.017  0.00  0.00    +0.020 A 
ATOM     27  C   LIG    1       -1.238   3.133   0.030  0.00  0.00    +0.010 A 
ATOM     28  C   LIG    1       -0.050   3.840   0.022  0.00  0.00    +0.030 A 
ENDBRANCH  22  23
ENDBRANCH  21  22
ENDBRANCH   6  21
TORSDOF 7
