REMARK  Name = ZINCrH000004lm0A.0
REMARK                            x       y       z     vdW  Elec       q    Type
REMARK                         _______ _______ _______ _____ _____    ______ ____
ROOT
ATOM      1  C   LIG    1        4.158  -0.619  -1.093  0.00  0.00    -0.180 A 
ATOM      2  C   LIG    1        3.361  -1.719  -1.427  0.00  0.00    +0.110 A 
ATOM      3  C   LIG    1        3.986  -2.888  -1.823  0.00  0.00    -0.050 A 
ATOM      4  C   LIG    1        5.368  -2.938  -1.878  0.00  0.00    +0.300 A 
ATOM      5  N   LIG    1        6.102  -1.891  -1.559  0.00  0.00    -0.480 NA
ATOM      6  C   LIG    1        5.556  -0.745  -1.179  0.00  0.00    +0.150 A 
ENDROOT
BRANCH   1  11
ATOM      7  C   LIG    1       -0.150   0.182  -0.353  0.00  0.00    +0.160 C 
ATOM      8  C   LIG    1        0.039   1.721  -0.426  0.00  0.00    +0.050 C 
ATOM      9  C   LIG    1        1.490   1.881   0.092  0.00  0.00    +0.280 C 
ATOM     10  N   LIG    1        2.215   0.718  -0.452  0.00  0.00    -0.610 N 
ATOM     11  C   LIG    1        3.544   0.650  -0.664  0.00  0.00    +0.580 C 
ATOM     12  O   LIG    1        4.237   1.637  -0.501  0.00  0.00    -0.510 OA
ATOM     13  C   LIG    1        1.248  -0.355  -0.724  0.00  0.00    +0.240 C 
BRANCH   7  14
ATOM     14  O   LIG    1       -1.127  -0.253  -1.300  0.00  0.00    -0.360 OA
BRANCH  14  15
ATOM     15  C   LIG    1       -1.848  -1.419  -0.898  0.00  0.00    +0.190 C 
BRANCH  15  16
ATOM     16  C   LIG    1       -2.861  -1.792  -1.982  0.00  0.00    +0.190 C 
BRANCH  16  18
ATOM     17  C   LIG    1       -3.025  -2.538  -4.255  0.00  0.00    +0.200 C 
ATOM     18  O   LIG    1       -2.167  -2.168  -3.174  0.00  0.00    -0.390 OA
ENDBRANCH  16  18
ENDBRANCH  15  16
ENDBRANCH  14  15
ENDBRANCH   7  14
ENDBRANCH   1  11
BRANCH   6  19
ATOM     19  S   LIG    1        6.587   0.625  -0.772  0.00  0.00    +0.140 S 
BRANCH  19  20
ATOM     20  C   LIG    1        8.162  -0.041  -1.196  0.00  0.00    -0.180 A 
ATOM     21  C   LIG    1        8.773   0.321  -2.390  0.00  0.00    +0.080 A 
ATOM     22  C   LIG    1       10.011  -0.198  -2.716  0.00  0.00    -0.020 A 
ATOM     23  C   LIG    1       10.636  -1.087  -1.861  0.00  0.00    -0.050 A 
ATOM     24  C   LIG    1       10.028  -1.454  -0.674  0.00  0.00    -0.010 A 
ATOM     25  C   LIG    1       11.984  -1.656  -2.223  0.00  0.00    +0.090 C 
ATOM     26  C   LIG    1        8.794  -0.934  -0.339  0.00  0.00    -0.010 A 
ATOM     27  C   LIG    1        8.132  -1.334   0.955  0.00  0.00    +0.090 C 
ENDBRANCH  19  20
ENDBRANCH   6  19
TORSDOF 7
