REMARK  Name = ZINCrg00000J3t9k.0
REMARK                            x       y       z     vdW  Elec       q    Type
REMARK                         _______ _______ _______ _____ _____    ______ ____
ROOT
ATOM      1  N   LIG    1        1.323  -0.390  -0.013  0.00  0.00    -0.300 N 
ATOM      2  C   LIG    1        2.045   0.769  -0.013  0.00  0.00    +0.110 A 
ATOM      3  N   LIG    1        1.186   1.764   0.000  0.00  0.00    -0.280 NA
ATOM      4  N   LIG    1       -0.016   1.308   0.009  0.00  0.00    -0.260 NA
ATOM      5  C   LIG    1        0.002  -0.004   0.002  0.00  0.00    +0.260 A 
ENDROOT
BRANCH   5   6
ATOM      6  C   LIG    1       -1.175  -0.899   0.008  0.00  0.00    +0.000 A 
ATOM      7  C   LIG    1       -2.441  -0.393  -0.289  0.00  0.00    +0.060 A 
ATOM      8  C   LIG    1       -3.536  -1.232  -0.282  0.00  0.00    +0.050 A 
ATOM      9  C   LIG    1       -3.382  -2.574   0.019  0.00  0.00    +0.000 A 
ATOM     10  C   LIG    1       -2.128  -3.084   0.315  0.00  0.00    +0.100 A 
ATOM     11  F   LIG    1       -1.985  -4.395   0.607  0.00  0.00    -0.130 F 
ATOM     12  C   LIG    1       -1.023  -2.254   0.306  0.00  0.00    +0.030 A 
ENDBRANCH   5   6
BRANCH   1  13
ATOM     13  N   LIG    1        1.810  -1.666  -0.025  0.00  0.00    -0.580 N 
ATOM     14  H   LIG    1        2.673  -1.729   0.493  0.00  0.00    +0.380 HD
ATOM     15  H   LIG    1        1.929  -1.999  -0.970  0.00  0.00    +0.370 HD
ENDBRANCH   1  13
BRANCH   2  16
ATOM     16  S   LIG    1        3.802   0.905  -0.029  0.00  0.00    +0.080 S 
BRANCH  16  17
ATOM     17  C   LIG    1        3.977   2.707  -0.021  0.00  0.00    +0.120 C 
BRANCH  17  18
ATOM     18  C   LIG    1        5.440   3.069  -0.033  0.00  0.00    +0.530 C 
ATOM     19  N   LIG    1        5.814   4.364  -0.029  0.00  0.00    -0.720 N 
ATOM     20  H   LIG    1        5.141   5.063  -0.020  0.00  0.00    +0.410 HD
ATOM     21  O   LIG    1        6.281   2.195  -0.045  0.00  0.00    -0.520 OA
BRANCH  19  22
ATOM     22  C   LIG    1        7.236   4.716  -0.041  0.00  0.00    +0.270 C 
BRANCH  22  23
ATOM     23  C   LIG    1        7.384   6.239  -0.034  0.00  0.00    +0.000 C 
BRANCH  23  24
ATOM     24  C   LIG    1        8.869   6.606  -0.046  0.00  0.00    +0.300 C 
BRANCH  24  25
ATOM     25  N   LIG    1        9.011   8.065  -0.040  0.00  0.00    -0.620 N 
ATOM     26  C   LIG    1        9.086   8.894  -1.248  0.00  0.00    +0.250 C 
ATOM     27  C   LIG    1        8.787  10.336  -0.775  0.00  0.00    +0.040 C 
ATOM     28  C   LIG    1        9.224  10.276   0.707  0.00  0.00    +0.050 C 
ATOM     29  C   LIG    1        9.096   8.814   1.073  0.00  0.00    +0.520 C 
ATOM     30  O   LIG    1        9.072   8.380   2.205  0.00  0.00    -0.530 OA
ENDBRANCH  24  25
ENDBRANCH  23  24
ENDBRANCH  22  23
ENDBRANCH  19  22
ENDBRANCH  17  18
ENDBRANCH  16  17
ENDBRANCH   2  16
TORSDOF 9
