REMARK  Name = ZINCrH000004sRjE.0
REMARK                            x       y       z     vdW  Elec       q    Type
REMARK                         _______ _______ _______ _____ _____    ______ ____
ROOT
ATOM      1  C   LIG    1        1.842   3.675   1.424  0.00  0.00    +0.520 C 
ATOM      2  N   LIG    1        2.221   4.944   1.673  0.00  0.00    -0.660 N 
ATOM      3  H   LIG    1        2.462   5.531   0.939  0.00  0.00    +0.430 HD
ATOM      4  O   LIG    1        1.639   2.911   2.344  0.00  0.00    -0.510 OA
ENDROOT
BRANCH   2   5
ATOM      5  C   LIG    1        2.267   5.413   2.983  0.00  0.00    +0.220 A 
ATOM      6  C   LIG    1        1.472   4.830   3.961  0.00  0.00    +0.010 A 
ATOM      7  C   LIG    1        1.520   5.296   5.260  0.00  0.00    +0.070 A 
ATOM      8  C   LIG    1        2.358   6.346   5.598  0.00  0.00    -0.020 A 
ATOM      9  C   LIG    1        3.154   6.937   4.640  0.00  0.00    +0.070 A 
ATOM     10  C   LIG    1        3.122   6.472   3.324  0.00  0.00    -0.180 A 
BRANCH  10  11
ATOM     11  C   LIG    1        3.976   7.096   2.296  0.00  0.00    +0.580 C 
ATOM     12  N   LIG    1        4.868   8.045   2.645  0.00  0.00    -0.690 N 
ATOM     13  H   LIG    1        4.947   8.317   3.572  0.00  0.00    +0.400 HD
ATOM     14  O   LIG    1        3.877   6.754   1.133  0.00  0.00    -0.550 OA
BRANCH  12  15
ATOM     15  C   LIG    1        5.716   8.664   1.624  0.00  0.00    +0.220 C 
ATOM     16  C   LIG    1        7.197   8.858   1.958  0.00  0.00    +0.010 C 
ATOM     17  C   LIG    1        6.258  10.066   1.910  0.00  0.00    +0.020 C 
ENDBRANCH  12  15
ENDBRANCH  10  11
ENDBRANCH   2   5
BRANCH   1  18
ATOM     18  C   LIG    1        1.672   3.204   0.002  0.00  0.00    +0.180 C 
BRANCH  18  21
ATOM     19  C   LIG    1        3.573   0.725  -0.057  0.00  0.00    +0.190 C 
ATOM     20  C   LIG    1        2.067   0.693  -0.026  0.00  0.00    -0.020 A 
ATOM     21  C   LIG    1        1.247   1.758  -0.001  0.00  0.00    +0.010 A 
ATOM     22  N   LIG    1       -0.017   1.307   0.021  0.00  0.00    -0.460 NA
ATOM     23  C   LIG    1        0.008  -0.008   0.009  0.00  0.00    +0.260 A 
ATOM     24  O   LIG    1        1.291  -0.411  -0.020  0.00  0.00    -0.190 OA
BRANCH  23  25
ATOM     25  C   LIG    1       -1.169  -0.889   0.025  0.00  0.00    -0.140 A 
ATOM     26  C   LIG    1       -1.134  -2.251   0.013  0.00  0.00    +0.050 A 
ATOM     27  C   LIG    1       -2.372  -2.853   0.034  0.00  0.00    +0.010 A 
ATOM     28  C   LIG    1       -3.413  -2.014   0.062  0.00  0.00    -0.040 A 
ATOM     29  S   LIG    1       -2.843  -0.351   0.072  0.00  0.00    +0.210 S 
ENDBRANCH  23  25
ENDBRANCH  18  21
ENDBRANCH   1  18
TORSDOF 6
