REMARK  Name = ZINCrH000004nIX0.0
REMARK                            x       y       z     vdW  Elec       q    Type
REMARK                         _______ _______ _______ _____ _____    ______ ____
ROOT
ATOM      1  C   LIG    1        3.529   1.541  -0.506  0.00  0.00    +0.590 C 
ATOM      2  N   LIG    1        2.270   1.059  -0.487  0.00  0.00    -0.600 N 
ATOM      3  C   LIG    1        1.204   1.403  -1.445  0.00  0.00    +0.260 C 
ATOM      4  C   LIG    1       -0.117   1.131  -0.682  0.00  0.00    +0.040 C 
ATOM      5  C   LIG    1        0.251  -0.134   0.137  0.00  0.00    +0.040 C 
ATOM      6  C   LIG    1        1.733   0.104   0.494  0.00  0.00    +0.220 C 
ATOM      7  O   LIG    1        4.331   1.178   0.331  0.00  0.00    -0.490 OA
ENDROOT
BRANCH   1  11
ATOM      8  C   LIG    1        4.596   4.315  -3.515  0.00  0.00    -0.040 A 
ATOM      9  C   LIG    1        3.352   3.786  -3.429  0.00  0.00    +0.180 A 
ATOM     10  O   LIG    1        3.041   2.906  -2.470  0.00  0.00    -0.190 OA
ATOM     11  C   LIG    1        3.933   2.514  -1.546  0.00  0.00    +0.090 A 
ATOM     12  C   LIG    1        5.203   2.994  -1.557  0.00  0.00    -0.040 A 
ATOM     13  C   LIG    1        5.576   3.927  -2.563  0.00  0.00    +0.410 A 
ATOM     14  O   LIG    1        6.709   4.382  -2.608  0.00  0.00    -0.450 OA
BRANCH   8  16
ATOM     15  C   LIG    1        3.859   5.541  -5.414  0.00  0.00    +0.240 C 
ATOM     16  O   LIG    1        4.902   5.204  -4.497  0.00  0.00    -0.280 OA
ENDBRANCH   8  16
ENDBRANCH   1  11
BRANCH   6  17
ATOM     17  C   LIG    1        2.506  -1.214   0.413  0.00  0.00    +0.030 C 
BRANCH  17  18
ATOM     18  C   LIG    1        3.619  -1.218   1.464  0.00  0.00    +0.050 C 
ATOM     19  C   LIG    1        4.808  -2.017   0.935  0.00  0.00    +0.020 C 
ATOM     20  C   LIG    1        5.817  -2.193   2.076  0.00  0.00    +0.020 C 
ATOM     21  C   LIG    1        5.220  -3.151   3.104  0.00  0.00    +0.060 C 
ATOM     22  C   LIG    1        3.833  -2.711   3.494  0.00  0.00    -0.080 A 
ATOM     23  C   LIG    1        3.294  -3.232   4.663  0.00  0.00    +0.000 A 
ATOM     24  C   LIG    1        2.026  -2.872   5.072  0.00  0.00    +0.000 A 
ATOM     25  C   LIG    1        1.285  -1.986   4.312  0.00  0.00    +0.000 A 
ATOM     26  C   LIG    1        1.819  -1.467   3.151  0.00  0.00    -0.010 A 
ATOM     27  C   LIG    1        3.096  -1.827   2.739  0.00  0.00    -0.070 A 
ENDBRANCH  17  18
ENDBRANCH   6  17
TORSDOF 4
