REMARK  Name = ZINCrH000004spoX.0
REMARK                            x       y       z     vdW  Elec       q    Type
REMARK                         _______ _______ _______ _____ _____    ______ ____
ROOT
ATOM      1  C   LIG    1       -3.929   9.145  -6.881  0.00  0.00    +0.200 C 
ATOM      2  C   LIG    1       -2.688   8.868  -6.072  0.00  0.00    +0.280 A 
ATOM      3  N   LIG    1       -2.496   7.839  -5.293  0.00  0.00    -0.480 NA
ATOM      4  C   LIG    1       -1.282   7.914  -4.729  0.00  0.00    +0.210 A 
ATOM      5  N   LIG    1       -0.687   9.011  -5.150  0.00  0.00    -0.250 NA
ATOM      6  N   LIG    1       -1.583   9.643  -6.028  0.00  0.00    -0.330 N 
ENDROOT
BRANCH   6   7
ATOM      7  C   LIG    1       -1.373  10.845  -6.718  0.00  0.00    +0.130 A 
ATOM      8  C   LIG    1       -2.334  11.846  -6.680  0.00  0.00    +0.020 A 
ATOM      9  C   LIG    1       -2.123  13.031  -7.357  0.00  0.00    +0.030 A 
ATOM     10  C   LIG    1       -0.960  13.216  -8.082  0.00  0.00    +0.030 A 
ATOM     11  C   LIG    1       -0.003  12.219  -8.127  0.00  0.00    +0.030 A 
ATOM     12  C   LIG    1       -0.207  11.034  -7.447  0.00  0.00    -0.050 A 
BRANCH  12  13
ATOM     13  C   LIG    1        0.836   9.947  -7.497  0.00  0.00    +0.030 C 
ATOM     14  C   LIG    1        2.111  10.432  -6.804  0.00  0.00    +0.030 C 
ATOM     15  C   LIG    1        1.147   9.605  -8.956  0.00  0.00    +0.030 C 
ENDBRANCH  12  13
ENDBRANCH   6   7
BRANCH   4  16
ATOM     16  C   LIG    1       -0.706   6.929  -3.785  0.00  0.00    +0.580 C 
ATOM     17  O   LIG    1        0.413   7.100  -3.333  0.00  0.00    -0.580 OA
BRANCH  16  18
ATOM     18  N   LIG    1       -1.414   5.852  -3.428  0.00  0.00    -0.610 NA
ATOM     19  C   LIG    1       -0.897   4.967  -2.580  0.00  0.00    +0.480 A 
ATOM     20  C   LIG    1       -1.519   3.787  -2.119  0.00  0.00    -0.070 A 
ATOM     21  C   LIG    1       -0.671   3.166  -1.271  0.00  0.00    +0.220 A 
ATOM     22  N   LIG    1        0.476   3.898  -1.177  0.00  0.00    -0.490 N 
ATOM     23  H   LIG    1        1.250   3.674  -0.637  0.00  0.00    +0.440 HD
ATOM     24  N   LIG    1        0.344   5.029  -1.994  0.00  0.00    -0.480 N 
ATOM     25  H   LIG    1        1.007   5.726  -2.122  0.00  0.00    +0.460 HD
BRANCH  21  26
ATOM     26  C   LIG    1       -0.945   1.871  -0.550  0.00  0.00    +0.040 C 
ATOM     27  C   LIG    1        0.217   1.223   0.204  0.00  0.00    +0.030 C 
ATOM     28  C   LIG    1       -0.918   1.895   0.980  0.00  0.00    -0.010 C 
ATOM     29  C   LIG    1       -0.613   3.231   1.661  0.00  0.00    +0.060 C 
ENDBRANCH  21  26
ENDBRANCH  16  18
ENDBRANCH   4  16
TORSDOF 5
