REMARK  Name = ZINCkj00000GeS3n.0
REMARK                            x       y       z     vdW  Elec       q    Type
REMARK                         _______ _______ _______ _____ _____    ______ ____
ROOT
ATOM      1  O   LIG    1       -1.073   1.681   6.140  0.00  0.00    -0.930 OA
ATOM      2  S   LIG    1       -0.376   0.889   5.188  0.00  0.00    +2.700 S 
ATOM      3  O   LIG    1       -0.599  -0.505   5.025  0.00  0.00    -0.930 OA
ENDROOT
BRANCH   2   4
ATOM      4  C   LIG    1        1.339   1.081   5.539  0.00  0.00    -0.710 A 
ATOM      5  C   LIG    1        1.742   1.867   6.603  0.00  0.00    +0.210 A 
ATOM      6  C   LIG    1        3.088   2.019   6.881  0.00  0.00    +0.020 A 
ATOM      7  C   LIG    1        4.034   1.385   6.095  0.00  0.00    +0.160 A 
ATOM      8  C   LIG    1        3.632   0.597   5.028  0.00  0.00    +0.020 A 
ATOM      9  F   LIG    1        4.554  -0.024   4.260  0.00  0.00    -0.110 F 
ATOM     10  F   LIG    1        5.349   1.534   6.367  0.00  0.00    -0.100 F 
ATOM     11  C   LIG    1        2.283   0.441   4.754  0.00  0.00    +0.190 A 
ATOM     12  F   LIG    1        1.888  -0.331   3.718  0.00  0.00    -0.110 F 
ENDBRANCH   2   4
BRANCH   2  13
ATOM     13  N   LIG    1       -0.655   1.582   3.710  0.00  0.00    -1.120 NA
ATOM     14  H   LIG    1       -1.224   2.364   3.641  0.00  0.00    +0.420 HD
BRANCH  13  15
ATOM     15  C   LIG    1       -0.041   1.014   2.507  0.00  0.00    +0.300 C 
BRANCH  15  16
ATOM     16  C   LIG    1       -0.733   1.581   1.266  0.00  0.00    +0.000 C 
ATOM     17  C   LIG    1       -0.013   1.086   0.008  0.00  0.00    +0.050 C 
ATOM     18  C   LIG    1       -0.756   1.595  -1.230  0.00  0.00    +0.060 C 
ATOM     19  C   LIG    1       -2.212   1.124  -1.173  0.00  0.00    +0.250 C 
ATOM     20  N   LIG    1       -2.854   1.652   0.036  0.00  0.00    -0.500 N 
ATOM     21  H   LIG    1       -3.826   1.385   0.043  0.00  0.00    +0.430 HD
ATOM     22  H   LIG    1       -2.784   2.659   0.041  0.00  0.00    +0.430 HD
ATOM     23  C   LIG    1       -2.190   1.111   1.229  0.00  0.00    +0.260 C 
ENDBRANCH  15  16
ENDBRANCH  13  15
ENDBRANCH   2  13
TORSDOF 4
