REMARK  Name = ZINCrH000004u7g0.0
REMARK                            x       y       z     vdW  Elec       q    Type
REMARK                         _______ _______ _______ _____ _____    ______ ____
ROOT
ATOM      1  C   LIG    1       -2.208   1.161   1.197  0.00  0.00    +0.250 C 
ATOM      2  C   LIG    1       -0.736   1.583   1.264  0.00  0.00    +0.020 C 
ATOM      3  C   LIG    1       -0.013   1.086   0.008  0.00  0.00    +0.300 C 
ATOM      4  N   LIG    1       -0.729   1.575  -1.178  0.00  0.00    -0.990 NA
ATOM      5  C   LIG    1       -2.168   1.303  -1.297  0.00  0.00    +0.300 C 
ATOM      6  C   LIG    1       -2.869   1.797  -0.028  0.00  0.00    +0.030 C 
ENDROOT
BRANCH   1   9
ATOM      7  O   LIG    1       -2.257  -0.208   3.519  0.00  0.00    -0.530 OA
ATOM      8  C   LIG    1       -2.862   0.846   3.523  0.00  0.00    +0.560 C 
ATOM      9  N   LIG    1       -2.898   1.606   2.410  0.00  0.00    -0.720 N 
ATOM     10  H   LIG    1       -3.381   2.447   2.413  0.00  0.00    +0.400 HD
BRANCH   8  11
ATOM     11  C   LIG    1       -3.558   1.295   4.746  0.00  0.00    -0.150 A 
ATOM     12  C   LIG    1       -4.249   2.508   4.755  0.00  0.00    +0.080 A 
ATOM     13  C   LIG    1       -4.900   2.920   5.898  0.00  0.00    -0.020 A 
ATOM     14  C   LIG    1       -4.861   2.136   7.041  0.00  0.00    +0.130 A 
ATOM     15  C   LIG    1       -4.173   0.933   7.040  0.00  0.00    -0.010 A 
ATOM     16  F   LIG    1       -5.497   2.547   8.160  0.00  0.00    -0.130 F 
ATOM     17  C   LIG    1       -3.522   0.509   5.901  0.00  0.00    +0.120 A 
ENDBRANCH   8  11
ENDBRANCH   1   9
BRANCH   4  18
ATOM     18  S   LIG    1        0.071   2.417  -2.359  0.00  0.00    +2.690 S 
ATOM     19  O   LIG    1        1.220   2.980  -1.741  0.00  0.00    -0.930 OA
ATOM     20  O   LIG    1       -0.910   3.195  -3.031  0.00  0.00    -0.940 OA
BRANCH  18  21
ATOM     21  C   LIG    1        0.661   1.240  -3.530  0.00  0.00    -0.670 A 
ATOM     22  C   LIG    1        0.171   1.246  -4.822  0.00  0.00    +0.160 A 
ATOM     23  C   LIG    1        0.635   0.322  -5.742  0.00  0.00    -0.050 A 
ATOM     24  C   LIG    1        1.589  -0.607  -5.367  0.00  0.00    +0.110 A 
ATOM     25  C   LIG    1        2.079  -0.613  -4.075  0.00  0.00    +0.050 A 
ATOM     26 CL   LIG    1        0.020   0.330  -7.365  0.00  0.00    -0.040 Cl
ATOM     27  C   LIG    1        1.619   0.314  -3.157  0.00  0.00    +0.050 A 
ATOM     28 CL   LIG    1        2.240   0.311  -1.536  0.00  0.00    -0.030 Cl
ENDBRANCH  18  21
ENDBRANCH   4  18
TORSDOF 4
