REMARK  Name = ZINCnE000005qMK6.0
REMARK                            x       y       z     vdW  Elec       q    Type
REMARK                         _______ _______ _______ _____ _____    ______ ____
ROOT
ATOM      1  C   LIG    1        0.013  -2.649   0.023  0.00  0.00    +0.560 C 
ATOM      2  N   LIG    1        1.190  -1.996  -0.052  0.00  0.00    -0.640 N 
ATOM      3  H   LIG    1        2.020  -2.496  -0.102  0.00  0.00    +0.420 HD
ATOM      4  O   LIG    1       -1.030  -2.026   0.006  0.00  0.00    -0.550 OA
ENDROOT
BRANCH   1   8
ATOM      5  C   LIG    1       -0.049  -6.884   0.319  0.00  0.00    +0.240 A 
ATOM      6  C   LIG    1       -1.245  -6.172   0.300  0.00  0.00    -0.090 A 
ATOM      7  C   LIG    1       -1.228  -4.799   0.204  0.00  0.00    +0.120 A 
ATOM      8  C   LIG    1       -0.009  -4.120   0.126  0.00  0.00    -0.190 A 
ATOM      9  C   LIG    1        1.191  -4.839   0.140  0.00  0.00    +0.120 A 
ATOM     10  C   LIG    1        1.167  -6.211   0.242  0.00  0.00    -0.080 A 
BRANCH   5  11
ATOM     11  N   LIG    1       -0.070  -8.271   0.416  0.00  0.00    -0.620 N 
ATOM     12  C   LIG    1        1.178  -9.031   0.312  0.00  0.00    +0.280 C 
BRANCH  11  14
ATOM     13  C   LIG    1       -1.530 -10.016  -0.482  0.00  0.00    +0.030 C 
ATOM     14  C   LIG    1       -1.339  -8.973   0.621  0.00  0.00    +0.230 C 
ATOM     15  C   LIG    1       -1.323  -9.668   1.984  0.00  0.00    +0.020 C 
ENDBRANCH  11  14
ENDBRANCH   5  11
ENDBRANCH   1   8
BRANCH   2  16
ATOM     16  C   LIG    1        1.214  -0.606  -0.059  0.00  0.00    +0.180 A 
ATOM     17  C   LIG    1        0.208   0.107  -0.698  0.00  0.00    -0.010 A 
ATOM     18  C   LIG    1        0.234   1.487  -0.703  0.00  0.00    +0.000 A 
ATOM     19  C   LIG    1        1.261   2.172  -0.073  0.00  0.00    -0.050 A 
ATOM     20  C   LIG    1        2.268   1.484   0.567  0.00  0.00    +0.060 A 
ATOM     21  C   LIG    1        2.257   0.085   0.581  0.00  0.00    -0.170 A 
BRANCH  21  22
ATOM     22  C   LIG    1        3.329  -0.657   1.262  0.00  0.00    +0.530 C 
ATOM     23  O   LIG    1        3.364  -1.878   1.197  0.00  0.00    -0.690 OA
ATOM     24  O   LIG    1        4.185  -0.053   1.894  0.00  0.00    -0.680 OA
ENDBRANCH  21  22
ENDBRANCH   2  16
TORSDOF 5
