REMARK  Name = ZINCrD0000071yJL.0
REMARK                            x       y       z     vdW  Elec       q    Type
REMARK                         _______ _______ _______ _____ _____    ______ ____
ROOT
ATOM      1  C   LIG    1       -0.808   1.603   3.644  0.00  0.00    -0.110 A 
ATOM      2  C   LIG    1       -1.960   2.392   3.602  0.00  0.00    +0.080 A 
ATOM      3  C   LIG    1       -2.553   2.809   4.777  0.00  0.00    +0.030 A 
ATOM      4  C   LIG    1       -2.011   2.450   5.996  0.00  0.00    -0.070 A 
ATOM      5  C   LIG    1       -0.864   1.665   6.049  0.00  0.00    +0.130 A 
ATOM      6  C   LIG    1       -2.665   2.910   7.273  0.00  0.00    +0.110 C 
ATOM      7  C   LIG    1       -0.264   1.236   4.875  0.00  0.00    +0.100 A 
ENDROOT
BRANCH   5   8
ATOM      8  N   LIG    1       -0.320   1.305   7.285  0.00  0.00    -0.660 N 
ATOM      9  H   LIG    1       -0.884   1.275   8.074  0.00  0.00    +0.420 HD
ATOM     10  C   LIG    1        0.989   0.998   7.382  0.00  0.00    +0.600 C 
ATOM     11  O   LIG    1        1.718   1.131   6.417  0.00  0.00    -0.490 OA
BRANCH  10  12
ATOM     12  C   LIG    1        1.534   0.503   8.650  0.00  0.00    -0.090 A 
ATOM     13  C   LIG    1        2.835   0.158   8.884  0.00  0.00    +0.050 A 
ATOM     14  C   LIG    1        2.907  -0.257  10.223  0.00  0.00    -0.070 A 
ATOM     15  C   LIG    1        1.664  -0.147  10.741  0.00  0.00    +0.210 A 
ATOM     16  O   LIG    1        0.841   0.316   9.792  0.00  0.00    -0.170 OA
ENDBRANCH  10  12
ENDBRANCH   5   8
BRANCH   1  17
ATOM     17  C   LIG    1       -0.171   1.154   2.389  0.00  0.00    +0.510 C 
ATOM     18  O   LIG    1        0.831   0.468   2.428  0.00  0.00    -0.500 OA
BRANCH  17  19
ATOM     19  O   LIG    1       -0.702   1.505   1.201  0.00  0.00    -0.330 OA
BRANCH  19  20
ATOM     20  C   LIG    1       -0.023   1.029   0.009  0.00  0.00    +0.250 C 
BRANCH  20  23
ATOM     21  N   LIG    1       -0.303   1.195  -2.442  0.00  0.00    -0.720 N 
ATOM     22  H   LIG    1        0.493   0.649  -2.539  0.00  0.00    +0.400 HD
ATOM     23  C   LIG    1       -0.754   1.517  -1.214  0.00  0.00    +0.520 C 
ATOM     24  O   LIG    1       -1.750   2.200  -1.094  0.00  0.00    -0.510 OA
BRANCH  21  25
ATOM     25  C   LIG    1       -1.014   1.670  -3.632  0.00  0.00    +0.240 C 
BRANCH  25  27
ATOM     26  C   LIG    1        1.030   2.787  -4.537  0.00  0.00    +0.020 C 
ATOM     27  C   LIG    1       -0.044   1.733  -4.814  0.00  0.00    +0.020 C 
ENDBRANCH  25  27
BRANCH  25  28
ATOM     28  C   LIG    1       -2.157   0.708  -3.961  0.00  0.00    -0.010 C 
ATOM     29  C   LIG    1       -3.190   0.739  -2.833  0.00  0.00    +0.010 C 
ENDBRANCH  25  28
ENDBRANCH  21  25
ENDBRANCH  20  23
ENDBRANCH  19  20
ENDBRANCH  17  19
ENDBRANCH   1  17
TORSDOF 9
