REMARK  Name = ZINCrD00000hQ4zh.0
REMARK                            x       y       z     vdW  Elec       q    Type
REMARK                         _______ _______ _______ _____ _____    ______ ____
ROOT
ATOM      1  C   LIG    1       -1.166   3.627   0.139  0.00  0.00    -0.090 A 
ATOM      2  C   LIG    1        0.046   4.319   0.137  0.00  0.00    +0.010 A 
ATOM      3  C   LIG    1        0.054   5.695   0.249  0.00  0.00    +0.050 A 
ATOM      4  C   LIG    1       -1.136   6.391   0.362  0.00  0.00    -0.050 A 
ATOM      5  C   LIG    1       -2.346   5.710   0.364  0.00  0.00    +0.130 A 
ATOM      6  C   LIG    1       -2.366   4.331   0.248  0.00  0.00    +0.050 A 
ENDROOT
BRANCH   1   8
ATOM      7  O   LIG    1       -2.035   1.505   0.587  0.00  0.00    -0.530 OA
ATOM      8  C   LIG    1       -1.178   2.153   0.019  0.00  0.00    +0.570 C 
ATOM      9  N   LIG    1       -0.239   1.529  -0.719  0.00  0.00    -0.610 N 
ATOM     10  C   LIG    1       -0.146   0.060  -0.756  0.00  0.00    +0.290 C 
ATOM     11  C   LIG    1       -0.452  -0.394  -2.183  0.00  0.00    +0.070 C 
ATOM     12  C   LIG    1        0.322   0.423  -3.183  0.00  0.00    -0.070 A 
ATOM     13  C   LIG    1        0.497  -0.111  -4.454  0.00  0.00    +0.000 A 
ATOM     14  C   LIG    1        1.187   0.589  -5.421  0.00  0.00    +0.000 A 
ATOM     15  C   LIG    1        1.710   1.834  -5.126  0.00  0.00    +0.010 A 
ATOM     16  C   LIG    1        1.542   2.366  -3.864  0.00  0.00    +0.010 A 
ATOM     17  C   LIG    1        0.852   1.659  -2.889  0.00  0.00    -0.100 A 
ATOM     18  C   LIG    1        0.727   2.286  -1.522  0.00  0.00    +0.330 C 
ENDBRANCH   1   8
BRANCH   5  19
ATOM     19  O   LIG    1       -3.512   6.399   0.475  0.00  0.00    -0.310 OA
BRANCH  19  20
ATOM     20  C   LIG    1       -3.418   7.821   0.586  0.00  0.00    +0.220 C 
BRANCH  20  21
ATOM     21  C   LIG    1       -4.822   8.418   0.701  0.00  0.00    +0.090 C 
ATOM     22  C   LIG    1       -6.010   7.456   0.630  0.00  0.00    +0.180 C 
ATOM     23  N   LIG    1       -5.608   8.084   1.896  0.00  0.00    -0.440 NA
BRANCH  23  24
ATOM     24  C   LIG    1       -4.888   7.131   2.751  0.00  0.00    +0.190 C 
BRANCH  24  25
ATOM     25  C   LIG    1       -5.614   7.000   4.092  0.00  0.00    -0.030 C 
ATOM     26  C   LIG    1       -4.867   7.455   5.347  0.00  0.00    +0.000 C 
ATOM     27  C   LIG    1       -5.083   5.963   5.083  0.00  0.00    +0.010 C 
ENDBRANCH  24  25
ENDBRANCH  23  24
ENDBRANCH  20  21
ENDBRANCH  19  20
ENDBRANCH   5  19
TORSDOF 6
