REMARK  Name = ZINC9p0000003Zbm.0
REMARK                            x       y       z     vdW  Elec       q    Type
REMARK                         _______ _______ _______ _____ _____    ______ ____
ROOT
ATOM      1  C   LIG    1       -0.758   2.010  -1.229  0.00  0.00    +0.110 C 
ATOM      2  C   LIG    1       -0.018   1.503   0.010  0.00  0.00    +0.130 C 
ATOM      3  C   LIG    1       -0.735   1.996   1.269  0.00  0.00    +0.110 C 
ENDROOT
BRANCH   2   4
ATOM      4  C   LIG    1        0.002  -0.004   0.002  0.00  0.00    -0.130 A 
ATOM      5  C   LIG    1        1.136  -0.706  -0.018  0.00  0.00    -0.090 A 
ATOM      6  S   LIG    1        0.765  -2.425  -0.019  0.00  0.00    +0.200 S 
ATOM      7  C   LIG    1       -0.960  -2.084  -0.000  0.00  0.00    -0.010 A 
ATOM      8  C   LIG    1       -1.155  -0.764   0.009  0.00  0.00    +0.020 A 
ENDBRANCH   2   4
BRANCH   2   9
ATOM      9  N   LIG    1        1.360   2.011  -0.000  0.00  0.00    -0.640 N 
ATOM     10  H   LIG    1        1.848   1.677   0.817  0.00  0.00    +0.440 HD
ATOM     11  H   LIG    1        1.346   3.020   0.005  0.00  0.00    +0.440 HD
ATOM     12  H   LIG    1        1.832   1.686  -0.830  0.00  0.00    +0.440 HD
ENDBRANCH   2   9
TORSDOF 2
