REMARK  Name = ZINCkj00000dDijT.1
REMARK                            x       y       z     vdW  Elec       q    Type
REMARK                         _______ _______ _______ _____ _____    ______ ____
ROOT
ATOM      1  C   LIG    1       -2.449   1.117   0.020  0.00  0.00    +0.320 C 
ENDROOT
BRANCH   1   2
ATOM      2  C   LIG    1       -2.881   0.848   1.463  0.00  0.00    -0.030 C 
ATOM      3  C   LIG    1       -4.257   0.176   1.467  0.00  0.00    +0.070 C 
ATOM      4  C   LIG    1       -4.789   0.124   2.905  0.00  0.00    +0.190 C 
ATOM      5  C   LIG    1       -3.698  -0.427   3.793  0.00  0.00    +0.300 C 
ATOM      6  N   LIG    1       -3.823  -0.896   5.000  0.00  0.00    -0.470 N 
ATOM      7  C   LIG    1       -2.620  -1.289   5.447  0.00  0.00    +0.230 C 
ATOM      8  C   LIG    1       -1.714  -1.053   4.477  0.00  0.00    +0.250 C 
ATOM      9  H   LIG    1       -4.654  -0.953   5.497  0.00  0.00    +0.460 HD
ATOM     10  N   LIG    1       -2.396  -0.507   3.430  0.00  0.00    -0.400 N 
ATOM     11  C   LIG    1       -1.859  -0.073   2.138  0.00  0.00    +0.340 C 
ENDBRANCH   1   2
BRANCH   1  13
ATOM     12  C   LIG    1       -1.210   3.331   0.026  0.00  0.00    +0.290 C 
ATOM     13  N   LIG    1       -1.191   1.867   0.018  0.00  0.00    -0.620 N 
ATOM     14  C   LIG    1       -0.014   1.209   0.009  0.00  0.00    +0.520 C 
ATOM     15  O   LIG    1        0.002  -0.004   0.002  0.00  0.00    -0.530 OA
BRANCH  14  16
ATOM     16  C   LIG    1        1.280   1.980   0.001  0.00  0.00    -0.030 C 
ATOM     17  C   LIG    1        2.459   1.001  -0.019  0.00  0.00    +0.040 C 
ATOM     18  C   LIG    1        3.766   1.795  -0.108  0.00  0.00    -0.010 C 
ATOM     19  C   LIG    1        3.730   2.689  -1.351  0.00  0.00    +0.210 C 
ATOM     20  O   LIG    1        2.593   3.552  -1.282  0.00  0.00    -0.370 OA
ATOM     21  C   LIG    1        1.340   2.866  -1.247  0.00  0.00    +0.230 C 
ENDBRANCH  14  16
ENDBRANCH   1  13
TORSDOF 3
