REMARK  Name = ZINCrD00000fN7l3.0
REMARK                            x       y       z     vdW  Elec       q    Type
REMARK                         _______ _______ _______ _____ _____    ______ ____
ROOT
ATOM      1  O   LIG    1       -0.869   1.858   0.197  0.00  0.00    -0.530 OA
ATOM      2  C   LIG    1        0.177   1.244   0.171  0.00  0.00    +0.540 C 
ATOM      3  C   LIG    1        0.103  -0.244   0.076  0.00  0.00    +0.250 C 
ATOM      4  N   LIG    1        1.202  -0.762  -0.703  0.00  0.00    -0.560 NA
ATOM      5  C   LIG    1        2.488  -0.785  -0.061  0.00  0.00    +0.200 C 
ATOM      6  C   LIG    1        3.302  -1.950  -0.631  0.00  0.00    +0.030 C 
ATOM      7  C   LIG    1        4.633  -2.034   0.111  0.00  0.00    +0.030 C 
ATOM      8  C   LIG    1        5.457  -0.797  -0.192  0.00  0.00    +0.080 C 
ATOM      9  C   LIG    1        4.642   0.463  -0.224  0.00  0.00    -0.040 A 
ATOM     10  C   LIG    1        5.364   1.642  -0.381  0.00  0.00    -0.020 A 
ATOM     11  C   LIG    1        4.726   2.861  -0.363  0.00  0.00    +0.050 A 
ATOM     12  C   LIG    1        3.369   2.903  -0.164  0.00  0.00    -0.050 A 
ATOM     13  C   LIG    1        2.618   1.726  -0.028  0.00  0.00    +0.190 A 
ATOM     14  C   LIG    1        3.265   0.491  -0.135  0.00  0.00    -0.100 A 
ATOM     15  N   LIG    1        1.284   1.932   0.222  0.00  0.00    -0.650 N 
ATOM     16  H   LIG    1        1.118   2.841   0.518  0.00  0.00    +0.390 HD
ENDROOT
BRANCH   4  17
ATOM     17  C   LIG    1        0.872  -2.076  -1.270  0.00  0.00    +0.340 C 
BRANCH  17  18
ATOM     18  C   LIG    1       -0.279  -1.935  -2.232  0.00  0.00    +0.180 A 
ATOM     19  N   LIG    1       -1.548  -1.960  -1.929  0.00  0.00    -0.290 NA
ATOM     20  N   LIG    1       -2.251  -1.806  -2.995  0.00  0.00    -0.290 NA
ATOM     21  C   LIG    1       -1.461  -1.685  -4.028  0.00  0.00    +0.220 A 
ATOM     22  N   LIG    1       -0.188  -1.763  -3.573  0.00  0.00    -0.430 N 
BRANCH  21  23
ATOM     23  C   LIG    1       -1.888  -1.494  -5.461  0.00  0.00    +0.030 C 
ATOM     24  C   LIG    1       -3.371  -1.228  -5.727  0.00  0.00    +0.070 C 
ATOM     25  C   LIG    1       -2.759  -2.583  -6.090  0.00  0.00    +0.050 C 
ENDBRANCH  21  23
BRANCH  22  26
ATOM     26  C   LIG    1        1.039  -1.680  -4.370  0.00  0.00    +0.190 C 
ATOM     27  C   LIG    1        1.104  -2.505  -5.656  0.00  0.00    +0.070 C 
ATOM     28  C   LIG    1        1.925  -2.925  -4.436  0.00  0.00    +0.050 C 
ENDBRANCH  22  26
ENDBRANCH  17  18
ENDBRANCH   4  17
TORSDOF 4
