REMARK  Name = ZINCtV00000L6l2n.0
REMARK                            x       y       z     vdW  Elec       q    Type
REMARK                         _______ _______ _______ _____ _____    ______ ____
ROOT
ATOM      1  C   LIG    1       -5.118  -0.747  -1.512  0.00  0.00    +0.180 C 
ATOM      2  C   LIG    1       -4.097  -0.072  -0.633  0.00  0.00    +0.130 A 
ATOM      3  N   LIG    1       -4.091  -0.078   0.676  0.00  0.00    -0.250 NA
ATOM      4  N   LIG    1       -2.981   0.654   1.118  0.00  0.00    -0.310 N 
ATOM      5  C   LIG    1       -2.319   1.113   0.019  0.00  0.00    +0.310 A 
ATOM      6  C   LIG    1       -2.995   0.670  -1.079  0.00  0.00    -0.260 A 
ENDROOT
BRANCH   4   7
ATOM      7  C   LIG    1       -2.619   0.877   2.454  0.00  0.00    +0.140 A 
ATOM      8  C   LIG    1       -1.278   0.933   2.810  0.00  0.00    -0.010 A 
ATOM      9  C   LIG    1       -0.923   1.159   4.126  0.00  0.00    +0.030 A 
ATOM     10  C   LIG    1       -1.902   1.316   5.090  0.00  0.00    +0.020 A 
ATOM     11  C   LIG    1       -3.238   1.255   4.739  0.00  0.00    +0.040 A 
ATOM     12  C   LIG    1       -3.599   1.036   3.424  0.00  0.00    +0.040 A 
ENDBRANCH   4   7
BRANCH   5  13
ATOM     13  O   LIG    1       -1.190   1.868   0.018  0.00  0.00    -0.260 OA
BRANCH  13  14
ATOM     14  C   LIG    1       -0.014   1.211   0.009  0.00  0.00    +0.500 C 
ATOM     15  O   LIG    1        0.002  -0.004   0.002  0.00  0.00    -0.440 OA
BRANCH  14  16
ATOM     16  C   LIG    1        1.254   1.966   0.001  0.00  0.00    -0.100 A 
ATOM     17  C   LIG    1        1.239   3.363   0.008  0.00  0.00    +0.100 A 
ATOM     18  C   LIG    1        2.428   4.062   0.001  0.00  0.00    +0.020 A 
ATOM     19  C   LIG    1        3.634   3.384  -0.013  0.00  0.00    +0.070 A 
ATOM     20  C   LIG    1        3.658   2.001  -0.022  0.00  0.00    +0.050 A 
ATOM     21  C   LIG    1        2.476   1.288  -0.009  0.00  0.00    -0.040 A 
ATOM     22 BR   LIG    1        2.510  -0.603  -0.012  0.00  0.00    -0.000 Br
ENDBRANCH  14  16
ENDBRANCH  13  14
ENDBRANCH   5  13
BRANCH   6  23
ATOM     23  S   LIG    1       -2.559   0.975  -2.759  0.00  0.00    +0.060 S 
BRANCH  23  24
ATOM     24  C   LIG    1       -1.507  -0.384  -3.148  0.00  0.00    -0.110 A 
ATOM     25  C   LIG    1       -1.225  -1.345  -2.185  0.00  0.00    +0.020 A 
ATOM     26  C   LIG    1       -0.404  -2.411  -2.495  0.00  0.00    +0.020 A 
ATOM     27  C   LIG    1        0.146  -2.517  -3.760  0.00  0.00    +0.000 A 
ATOM     28  C   LIG    1       -0.127  -1.559  -4.719  0.00  0.00    +0.020 A 
ATOM     29  C   LIG    1       -0.952  -0.493  -4.418  0.00  0.00    +0.030 A 
ENDBRANCH  23  24
ENDBRANCH   6  23
TORSDOF 6
