REMARK  Name = ZINCpe000000Yo74.0
REMARK                            x       y       z     vdW  Elec       q    Type
REMARK                         _______ _______ _______ _____ _____    ______ ____
ROOT
ATOM      1  C   LIG    1        1.243  -0.640  -0.106  0.00  0.00    +0.130 A 
ATOM      2  C   LIG    1        2.411   0.111  -0.111  0.00  0.00    +0.080 A 
ATOM      3  C   LIG    1        3.635  -0.521  -0.213  0.00  0.00    +0.020 A 
ATOM      4  C   LIG    1        3.698  -1.898  -0.320  0.00  0.00    +0.110 A 
ATOM      5  C   LIG    1        2.536  -2.648  -0.321  0.00  0.00    -0.660 A 
ATOM      6  C   LIG    1        1.309  -2.023  -0.214  0.00  0.00    +0.100 A 
ENDROOT
BRANCH   1   8
ATOM      7  C   LIG    1       -0.117   1.121   0.735  0.00  0.00    +0.600 C 
ATOM      8  N   LIG    1        0.002  -0.004   0.002  0.00  0.00    -0.660 N 
ATOM      9  H   LIG    1       -0.773  -0.372  -0.451  0.00  0.00    +0.420 HD
ATOM     10  O   LIG    1        0.829   1.530   1.379  0.00  0.00    -0.500 OA
BRANCH   7  14
ATOM     11  C   LIG    1       -4.639   1.473  -0.778  0.00  0.00    +0.370 C 
ATOM     12  N   LIG    1       -3.549   2.026   0.029  0.00  0.00    -0.330 N 
ATOM     13  N   LIG    1       -2.415   1.423   0.044  0.00  0.00    -0.180 NA
ATOM     14  C   LIG    1       -1.397   1.861   0.750  0.00  0.00    +0.010 A 
ATOM     15  C   LIG    1       -1.520   3.042   1.521  0.00  0.00    +0.140 A 
ATOM     16  C   LIG    1       -2.715   3.698   1.510  0.00  0.00    -0.010 A 
ATOM     17  C   LIG    1       -3.760   3.156   0.729  0.00  0.00    +0.480 A 
ATOM     18  O   LIG    1       -4.847   3.709   0.689  0.00  0.00    -0.510 OA
ENDBRANCH   7  14
ENDBRANCH   1   8
BRANCH   5  19
ATOM     19  S   LIG    1        2.621  -4.403  -0.457  0.00  0.00    +2.710 S 
ATOM     20  O   LIG    1        1.420  -4.908   0.110  0.00  0.00    -0.950 OA
ATOM     21  O   LIG    1        3.913  -4.778  -0.001  0.00  0.00    -0.950 OA
BRANCH  19  22
ATOM     22  N   LIG    1        2.568  -4.772  -2.070  0.00  0.00    -1.010 NA
ATOM     23  C   LIG    1        1.349  -5.032  -2.850  0.00  0.00    +0.270 C 
ATOM     24  C   LIG    1        1.789  -5.355  -4.294  0.00  0.00    +0.030 C 
ATOM     25  C   LIG    1        3.257  -5.822  -4.111  0.00  0.00    +0.040 C 
ATOM     26  C   LIG    1        3.736  -4.902  -2.961  0.00  0.00    +0.270 C 
ENDBRANCH  19  22
ENDBRANCH   5  19
TORSDOF 4
