REMARK  Name = ZINCvU0000000Is3.1
REMARK                            x       y       z     vdW  Elec       q    Type
REMARK                         _______ _______ _______ _____ _____    ______ ____
ROOT
ATOM      1  N   LIG    1       -0.981   6.146   1.055  0.00  0.00    -0.680 NA
ATOM      2  H   LIG    1       -1.008   5.504   1.833  0.00  0.00    +0.350 HD
ENDROOT
BRANCH   1   4
ATOM      3  C   LIG    1       -0.540   6.175  -1.354  0.00  0.00    +0.040 C 
ATOM      4  C   LIG    1       -0.065   5.669   0.010  0.00  0.00    +0.190 C 
BRANCH   4   5
ATOM      5  C   LIG    1       -0.048   4.162   0.008  0.00  0.00    -0.110 A 
ATOM      6  C   LIG    1        1.145   3.486  -0.179  0.00  0.00    +0.040 A 
ATOM      7  C   LIG    1        1.164   2.105  -0.182  0.00  0.00    +0.010 A 
ATOM      8  C   LIG    1       -0.015   1.395   0.004  0.00  0.00    +0.150 A 
ATOM      9  C   LIG    1       -1.211   2.076   0.187  0.00  0.00    -0.020 A 
ATOM     10  C   LIG    1       -1.223   3.458   0.194  0.00  0.00    +0.050 A 
BRANCH   8  11
ATOM     11  N   LIG    1        0.002  -0.004   0.002  0.00  0.00    -0.670 N 
ATOM     12  H   LIG    1       -0.758  -0.497  -0.345  0.00  0.00    +0.410 HD
ATOM     13  C   LIG    1        1.074  -0.666   0.481  0.00  0.00    +0.540 C 
ATOM     14  O   LIG    1        1.982  -0.054   1.002  0.00  0.00    -0.520 OA
BRANCH  13  15
ATOM     15  C   LIG    1        1.143  -2.167   0.371  0.00  0.00    -0.070 C 
ATOM     16  C   LIG    1        1.047  -2.977   1.666  0.00  0.00    +0.060 C 
ATOM     17  C   LIG    1        2.386  -2.860   0.934  0.00  0.00    +0.080 C 
ENDBRANCH  13  15
ENDBRANCH   8  11
ENDBRANCH   4   5
ENDBRANCH   1   4
BRANCH   1  18
ATOM     18  C   LIG    1       -0.614   7.497   1.499  0.00  0.00    +0.300 C 
BRANCH  18  19
ATOM     19  C   LIG    1       -1.573   7.952   2.569  0.00  0.00    +0.030 A 
ATOM     20  C   LIG    1       -1.423   7.755   3.893  0.00  0.00    -0.060 A 
ATOM     21  C   LIG    1       -2.539   8.339   4.526  0.00  0.00    -0.010 A 
ATOM     22  C   LIG    1       -3.320   8.859   3.542  0.00  0.00    -0.010 A 
ATOM     23  O   LIG    1       -2.721   8.616   2.360  0.00  0.00    -0.130 OA
BRANCH  22  24
ATOM     24  C   LIG    1       -4.603   9.566   3.735  0.00  0.00    +0.060 A 
ATOM     25  C   LIG    1       -5.602   9.002   4.529  0.00  0.00    +0.080 A 
ATOM     26  C   LIG    1       -6.797   9.668   4.707  0.00  0.00    +0.100 A 
ATOM     27  C   LIG    1       -7.006  10.894   4.098  0.00  0.00    -0.040 A 
ATOM     28  C   LIG    1       -6.019  11.459   3.309  0.00  0.00    +0.120 A 
ATOM     29 CL   LIG    1       -8.513  11.726   4.327  0.00  0.00    -0.030 Cl
ATOM     30  C   LIG    1       -4.818  10.805   3.128  0.00  0.00    -0.020 A 
BRANCH  30  31
ATOM     31  N   LIG    1       -3.761  11.414   2.289  0.00  0.00    +0.030 N 
ATOM     32  O   LIG    1       -2.703  10.834   2.127  0.00  0.00    -0.130 OA
ATOM     33  O   LIG    1       -3.950  12.495   1.760  0.00  0.00    -0.160 OA
ENDBRANCH  30  31
ENDBRANCH  22  24
ENDBRANCH  18  19
ENDBRANCH   1  18
TORSDOF 8
