REMARK  Name = ZINCpe000000Znig.0
REMARK                            x       y       z     vdW  Elec       q    Type
REMARK                         _______ _______ _______ _____ _____    ______ ____
ROOT
ATOM      1  C   LIG    1        3.553   1.866   0.092  0.00  0.00    +0.260 C 
ATOM      2  C   LIG    1        4.053   2.076  -1.356  0.00  0.00    +0.030 C 
ATOM      3  C   LIG    1        5.590   1.937  -1.215  0.00  0.00    +0.190 C 
ATOM      4  N   LIG    1        5.742   0.859  -0.204  0.00  0.00    -0.500 NA
ATOM      5  C   LIG    1        4.682   1.095   0.800  0.00  0.00    +0.180 C 
ENDROOT
BRANCH   1   8
ATOM      6  O   LIG    1        1.070   2.905  -0.076  0.00  0.00    -0.570 OA
ATOM      7  C   LIG    1        1.124   1.693   0.005  0.00  0.00    +0.710 C 
ATOM      8  N   LIG    1        2.319   1.076   0.094  0.00  0.00    -0.730 N 
ATOM      9  H   LIG    1        2.362   0.109   0.159  0.00  0.00    +0.400 HD
ATOM     10  N   LIG    1       -0.011   0.966   0.007  0.00  0.00    -0.690 N 
ATOM     11  H   LIG    1        0.033  -0.003   0.005  0.00  0.00    +0.410 HD
BRANCH  10  12
ATOM     12  C   LIG    1       -1.255   1.610   0.007  0.00  0.00    +0.150 A 
ATOM     13  C   LIG    1       -2.325   1.054   0.695  0.00  0.00    +0.020 A 
ATOM     14  C   LIG    1       -3.550   1.693   0.698  0.00  0.00    +0.010 A 
ATOM     15  C   LIG    1       -3.713   2.882   0.007  0.00  0.00    +0.080 A 
ATOM     16  C   LIG    1       -2.648   3.435  -0.684  0.00  0.00    +0.010 A 
ATOM     17  F   LIG    1       -4.912   3.503   0.007  0.00  0.00    -0.140 F 
ATOM     18  C   LIG    1       -1.421   2.802  -0.685  0.00  0.00    +0.060 A 
ENDBRANCH  10  12
ENDBRANCH   1   8
BRANCH   4  19
ATOM     19  C   LIG    1        7.074   0.903   0.416  0.00  0.00    +0.210 C 
BRANCH  19  20
ATOM     20  C   LIG    1        8.104   0.420  -0.573  0.00  0.00    +0.520 C 
ATOM     21  N   LIG    1        9.404   0.373  -0.222  0.00  0.00    -0.620 N 
ATOM     22  C   LIG    1        9.843   0.794   1.119  0.00  0.00    +0.240 C 
ATOM     23  C   LIG    1       10.724  -0.320   1.706  0.00  0.00    +0.220 C 
ATOM     24  O   LIG    1       11.758  -0.642   0.772  0.00  0.00    -0.380 OA
ATOM     25  C   LIG    1       11.281  -1.160  -0.472  0.00  0.00    +0.220 C 
ATOM     26  C   LIG    1       10.428  -0.094  -1.169  0.00  0.00    +0.260 C 
ATOM     27  O   LIG    1        7.763   0.074  -1.684  0.00  0.00    -0.510 OA
ENDBRANCH  19  20
ENDBRANCH   4  19
TORSDOF 4
