REMARK  Name = ZINCvU0000000C7W.0
REMARK                            x       y       z     vdW  Elec       q    Type
REMARK                         _______ _______ _______ _____ _____    ______ ____
ROOT
ATOM      1  C   LIG    1       -0.463  -2.101   1.077  0.00  0.00    -0.140 A 
ATOM      2  C   LIG    1        0.048  -2.779  -0.032  0.00  0.00    +0.160 A 
ATOM      3  C   LIG    1        0.531  -2.067  -1.110  0.00  0.00    +0.020 A 
ATOM      4  C   LIG    1        0.503  -0.683  -1.097  0.00  0.00    +0.080 A 
ATOM      5  C   LIG    1        0.002  -0.004   0.002  0.00  0.00    -0.690 A 
ATOM      6 CL   LIG    1        1.105   0.207  -2.461  0.00  0.00    -0.030 Cl
ATOM      7  C   LIG    1       -0.483  -0.705   1.086  0.00  0.00    +0.220 A 
ENDROOT
BRANCH   5   8
ATOM      8  S   LIG    1       -0.022   1.758   0.012  0.00  0.00    +2.680 S 
ATOM      9  O   LIG    1       -0.560   2.145   1.269  0.00  0.00    -0.940 OA
ATOM     10  O   LIG    1       -0.584   2.158  -1.231  0.00  0.00    -0.940 OA
BRANCH   8  11
ATOM     11  N   LIG    1        1.553   2.269  -0.001  0.00  0.00    -0.980 NA
ATOM     12  C   LIG    1        2.223   2.482   1.263  0.00  0.00    +0.290 C 
ATOM     13  C   LIG    1        2.000   3.934   1.738  0.00  0.00    +0.010 C 
ATOM     14  C   LIG    1        2.763   4.868   0.897  0.00  0.00    +0.000 C 
ATOM     15  C   LIG    1        2.344   4.880  -0.570  0.00  0.00    +0.010 C 
ATOM     16  C   LIG    1        3.065   3.777  -1.305  0.00  0.00    +0.020 C 
ATOM     17  C   LIG    1        2.214   2.495  -1.301  0.00  0.00    +0.280 C 
ENDBRANCH   8  11
ENDBRANCH   5   8
BRANCH   1  18
ATOM     18  C   LIG    1       -0.982  -2.858   2.234  0.00  0.00    +0.510 C 
ATOM     19  O   LIG    1       -1.427  -2.265   3.197  0.00  0.00    -0.490 OA
BRANCH  18  20
ATOM     20  O   LIG    1       -0.962  -4.205   2.222  0.00  0.00    -0.350 OA
BRANCH  20  21
ATOM     21  C   LIG    1       -1.488  -4.882   3.394  0.00  0.00    +0.290 C 
BRANCH  21  27
ATOM     22  C   LIG    1       -3.813 -11.602   1.259  0.00  0.00    +0.180 C 
ATOM     23  C   LIG    1       -2.922 -10.532   1.835  0.00  0.00    +0.100 A 
ATOM     24  N   LIG    1       -3.231  -9.292   1.894  0.00  0.00    -0.470 NA
ATOM     25  C   LIG    1       -2.336  -8.445   2.436  0.00  0.00    +0.080 A 
ATOM     26  C   LIG    1       -2.417  -7.052   2.629  0.00  0.00    +0.100 A 
ATOM     27  C   LIG    1       -1.383  -6.373   3.201  0.00  0.00    -0.090 A 
ATOM     28  C   LIG    1       -0.238  -7.039   3.613  0.00  0.00    +0.060 A 
ATOM     29  C   LIG    1       -0.133  -8.402   3.442  0.00  0.00    +0.070 A 
ATOM     30  C   LIG    1       -1.178  -9.111   2.855  0.00  0.00    -0.180 A 
ATOM     31  S   LIG    1       -1.373 -10.823   2.491  0.00  0.00    +0.110 S 
ENDBRANCH  21  27
ENDBRANCH  20  21
ENDBRANCH  18  20
ENDBRANCH   1  18
TORSDOF 6
