REMARK  Name = ZINCrD0000072iQc.0
REMARK                            x       y       z     vdW  Elec       q    Type
REMARK                         _______ _______ _______ _____ _____    ______ ____
ROOT
ATOM      1  C   LIG    1        5.939   0.706  -0.688  0.00  0.00    +0.600 C 
ATOM      2  N   LIG    1        6.761  -0.337  -0.460  0.00  0.00    -0.670 N 
ATOM      3  H   LIG    1        6.434  -1.118   0.014  0.00  0.00    +0.410 HD
ATOM      4  O   LIG    1        6.369   1.718  -1.207  0.00  0.00    -0.520 OA
ENDROOT
BRANCH   2   5
ATOM      5  C   LIG    1        8.086  -0.294  -0.907  0.00  0.00    +0.140 A 
ATOM      6  C   LIG    1        8.709  -1.453  -1.351  0.00  0.00    -0.020 A 
ATOM      7  C   LIG    1       10.015  -1.406  -1.797  0.00  0.00    +0.030 A 
ATOM      8  C   LIG    1       10.706  -0.208  -1.792  0.00  0.00    -0.100 A 
ATOM      9  C   LIG    1       10.091   0.947  -1.345  0.00  0.00    +0.020 A 
ATOM     10  C   LIG    1        8.783   0.907  -0.903  0.00  0.00    +0.020 A 
BRANCH   8  11
ATOM     11  C   LIG    1       12.133  -0.162  -2.274  0.00  0.00    +0.060 C 
BRANCH  11  12
ATOM     12  C   LIG    1       13.078  -0.417  -1.097  0.00  0.00    +0.030 C 
BRANCH  12  13
ATOM     13  C   LIG    1       14.526  -0.370  -1.587  0.00  0.00    +0.020 C 
BRANCH  13  14
ATOM     14  C   LIG    1       15.471  -0.626  -0.411  0.00  0.00    +0.170 C 
BRANCH  14  15
ATOM     15  O   LIG    1       16.824  -0.582  -0.868  0.00  0.00    -0.580 OA
ATOM     16  H   LIG    1       17.479  -0.736  -0.174  0.00  0.00    +0.380 HD
ENDBRANCH  14  15
ENDBRANCH  13  14
ENDBRANCH  12  13
ENDBRANCH  11  12
ENDBRANCH   8  11
ENDBRANCH   2   5
BRANCH   1  18
ATOM     17  C   LIG    1        3.563   1.603  -0.479  0.00  0.00    +0.200 A 
ATOM     18  C   LIG    1        4.517   0.620  -0.308  0.00  0.00    -0.300 A 
ATOM     19  C   LIG    1        3.876  -0.484   0.299  0.00  0.00    +0.300 A 
ATOM     20  N   LIG    1        2.622  -0.173   0.482  0.00  0.00    -0.280 NA
ATOM     21  N   LIG    1        2.400   1.121  -0.000  0.00  0.00    -0.310 N 
BRANCH  21  22
ATOM     22  C   LIG    1        1.179   1.802   0.017  0.00  0.00    +0.350 A 
ATOM     23  C   LIG    1       -0.009   1.083   0.034  0.00  0.00    +0.000 A 
ATOM     24  C   LIG    1       -1.212   1.769   0.046  0.00  0.00    +0.100 A 
ATOM     25  C   LIG    1       -1.182   3.156   0.050  0.00  0.00    -0.020 A 
ATOM     26  C   LIG    1        0.037   3.806   0.033  0.00  0.00    +0.300 A 
ATOM     27  N   LIG    1        1.166   3.125   0.017  0.00  0.00    -0.490 NA
ENDBRANCH  21  22
BRANCH  17  29
ATOM     28  C   LIG    1        4.171   3.957   0.007  0.00  0.00    +0.050 C 
ATOM     29  C   LIG    1        3.782   2.963  -1.089  0.00  0.00    +0.130 C 
ENDBRANCH  17  29
ENDBRANCH   1  18
TORSDOF 9
