REMARK  Name = ZINCqH00000037c4.0
REMARK                            x       y       z     vdW  Elec       q    Type
REMARK                         _______ _______ _______ _____ _____    ______ ____
ROOT
ATOM      1  N   LIG    1        4.126  -0.935  -1.423  0.00  0.00    -0.610 N 
ATOM      2  C   LIG    1        3.747  -2.059  -2.061  0.00  0.00    +0.520 C 
ATOM      3  O   LIG    1        3.063  -2.881  -1.487  0.00  0.00    -0.500 OA
ENDROOT
BRANCH   1   5
ATOM      4  C   LIG    1        6.431  -0.264  -1.890  0.00  0.00    +0.010 C 
ATOM      5  C   LIG    1        4.952   0.057  -2.115  0.00  0.00    +0.270 C 
ENDBRANCH   1   5
BRANCH   2   6
ATOM      6  C   LIG    1        4.172  -2.297  -3.486  0.00  0.00    +0.240 C 
BRANCH   6   7
ATOM      7  O   LIG    1        3.649  -3.548  -3.938  0.00  0.00    -0.270 OA
BRANCH   7   8
ATOM      8  C   LIG    1        3.942  -3.916  -5.211  0.00  0.00    +0.170 A 
ATOM      9  C   LIG    1        4.714  -3.083  -6.012  0.00  0.00    -0.050 A 
ATOM     10  C   LIG    1        5.018  -3.454  -7.304  0.00  0.00    +0.130 A 
ATOM     11  C   LIG    1        4.540  -4.665  -7.812  0.00  0.00    -0.050 A 
ATOM     12  C   LIG    1        3.759  -5.497  -7.005  0.00  0.00    +0.130 A 
ATOM     13  C   LIG    1        3.463  -5.121  -5.713  0.00  0.00    -0.070 A 
ATOM     14 CL   LIG    1        2.493  -6.154  -4.710  0.00  0.00    -0.030 Cl
BRANCH  11  15
ATOM     15  C   LIG    1        4.848  -5.051  -9.156  0.00  0.00    +0.250 C 
ATOM     16  N   LIG    1        5.093  -5.358 -10.222  0.00  0.00    -0.410 NA
ENDBRANCH  11  15
ENDBRANCH   7   8
ENDBRANCH   6   7
ENDBRANCH   2   6
BRANCH   1  17
ATOM     17  C   LIG    1        3.713  -0.704  -0.036  0.00  0.00    +0.350 C 
BRANCH  17  18
ATOM     18  C   LIG    1        2.397   0.032  -0.020  0.00  0.00    -0.120 A 
ATOM     19  C   LIG    1        2.380   1.414  -0.013  0.00  0.00    +0.060 A 
ATOM     20  C   LIG    1        1.176   2.092   0.002  0.00  0.00    -0.050 A 
ATOM     21  C   LIG    1       -0.017   1.385   0.010  0.00  0.00    +0.100 A 
ATOM     22  C   LIG    1        0.002  -0.004   0.002  0.00  0.00    +0.070 A 
ATOM     23  F   LIG    1       -1.158  -0.696   0.009  0.00  0.00    -0.130 F 
ATOM     24  C   LIG    1        1.210  -0.677  -0.013  0.00  0.00    +0.060 A 
BRANCH  21  25
ATOM     25  O   LIG    1       -1.202   2.050   0.019  0.00  0.00    -0.310 OA
ATOM     26  C   LIG    1       -1.146   3.478   0.026  0.00  0.00    +0.260 C 
ENDBRANCH  21  25
ENDBRANCH  17  18
ENDBRANCH   1  17
TORSDOF 8
