REMARK  Name = ZINCrD00000fLNv6.0
REMARK                            x       y       z     vdW  Elec       q    Type
REMARK                         _______ _______ _______ _____ _____    ______ ____
ROOT
ATOM      1  O   LIG    1       -1.040  -0.625   0.009  0.00  0.00    -0.520 OA
ATOM      2  C   LIG    1        0.002  -0.004   0.002  0.00  0.00    +0.550 C 
ATOM      3  N   LIG    1       -0.016   1.344   0.009  0.00  0.00    -0.620 N 
ATOM      4  C   LIG    1        1.235   2.118   0.002  0.00  0.00    +0.250 C 
ATOM      5  C   LIG    1        1.148   3.166  -1.114  0.00  0.00    +0.230 C 
ATOM      6  O   LIG    1       -0.062   3.912  -0.965  0.00  0.00    -0.360 OA
ATOM      7  C   LIG    1       -1.253   3.129  -1.096  0.00  0.00    +0.080 C 
ATOM      8  C   LIG    1       -1.244   2.418  -2.447  0.00  0.00    +0.050 C 
ATOM      9  C   LIG    1       -0.864   3.410  -3.554  0.00  0.00    -0.310 C 
ATOM     10  S   LIG    1       -2.112   4.735  -3.580  0.00  0.00    +2.260 S 
ATOM     11  C   LIG    1       -2.282   5.283  -1.851  0.00  0.00    -0.160 C 
ATOM     12  N   LIG    1       -1.554   5.874  -4.368  0.00  0.00    -1.070 NA
ATOM     13  O   LIG    1       -3.341   4.355  -4.184  0.00  0.00    -0.930 OA
ATOM     14  C   LIG    1       -2.472   4.040  -0.973  0.00  0.00    +0.110 C 
ATOM     15  C   LIG    1       -1.288   2.083   0.019  0.00  0.00    +0.290 C 
ENDROOT
BRANCH  12  16
ATOM     16  C   LIG    1       -1.333   5.735  -5.667  0.00  0.00    +0.230 A 
ATOM     17  C   LIG    1       -1.618   4.506  -6.315  0.00  0.00    -0.150 A 
ATOM     18  C   LIG    1       -1.390   4.380  -7.654  0.00  0.00    +0.060 A 
ATOM     19  C   LIG    1       -0.871   5.444  -8.380  0.00  0.00    -0.060 A 
ATOM     20  C   LIG    1       -0.581   6.653  -7.759  0.00  0.00    +0.040 A 
ATOM     21  C   LIG    1       -0.803   6.812  -6.423  0.00  0.00    -0.020 A 
ENDBRANCH  12  16
BRANCH   2  22
ATOM     22  C   LIG    1        1.317  -0.740  -0.015  0.00  0.00    -0.060 C 
ATOM     23  C   LIG    1        1.681  -1.510  -1.287  0.00  0.00    +0.090 C 
ATOM     24  C   LIG    1        1.272  -2.264  -0.026  0.00  0.00    -0.120 C 
ATOM     25  C   LIG    1        0.066  -3.185   0.189  0.00  0.00    +0.080 C 
ATOM     26  C   LIG    1        1.080  -4.326   0.385  0.00  0.00    +0.010 C 
ATOM     27  C   LIG    1        2.096  -3.251   0.808  0.00  0.00    +0.060 C 
ENDBRANCH   2  22
TORSDOF 2
