REMARK  Name = ZINCpe000000WJtP.0
REMARK                            x       y       z     vdW  Elec       q    Type
REMARK                         _______ _______ _______ _____ _____    ______ ____
ROOT
ATOM      1  N   LIG    1        7.687  -0.804   1.439  0.00  0.00    -0.670 N 
ATOM      2  H   LIG    1        8.297  -0.054   1.520  0.00  0.00    +0.420 HD
ATOM      3  C   LIG    1        6.377  -0.585   1.209  0.00  0.00    +0.500 C 
ATOM      4  O   LIG    1        5.631  -1.521   1.013  0.00  0.00    -0.500 OA
ENDROOT
BRANCH   1   9
ATOM      5  C   LIG    1        9.916  -3.722   1.244  0.00  0.00    -0.640 A 
ATOM      6  C   LIG    1        9.115  -4.701   1.804  0.00  0.00    +0.110 A 
ATOM      7  C   LIG    1        7.841  -4.389   2.243  0.00  0.00    +0.020 A 
ATOM      8  C   LIG    1        7.367  -3.097   2.128  0.00  0.00    +0.070 A 
ATOM      9  C   LIG    1        8.167  -2.113   1.561  0.00  0.00    +0.130 A 
ATOM     10  C   LIG    1        9.445  -2.429   1.122  0.00  0.00    +0.100 A 
BRANCH   5  12
ATOM     11  C   LIG    1       12.596  -3.845   2.133  0.00  0.00    -0.260 C 
ATOM     12  S   LIG    1       11.538  -4.125   0.686  0.00  0.00    +2.500 S 
ATOM     13  O   LIG    1       11.810  -3.164  -0.324  0.00  0.00    -0.940 OA
ATOM     14  O   LIG    1       11.469  -5.511   0.380  0.00  0.00    -0.930 OA
ENDBRANCH   5  12
ENDBRANCH   1   9
BRANCH   3  15
ATOM     15  C   LIG    1        5.840   0.823   1.195  0.00  0.00    +0.370 C 
BRANCH  15  16
ATOM     16  N   LIG    1        4.400   0.793   0.926  0.00  0.00    -0.570 N 
ATOM     17  C   LIG    1        3.458   0.711   1.875  0.00  0.00    +0.710 C 
ATOM     18  N   LIG    1        2.210   0.701   1.360  0.00  0.00    -0.710 N 
ATOM     19  H   LIG    1        1.375   0.648   1.852  0.00  0.00    +0.440 HD
ATOM     20  C   LIG    1        2.372   0.788  -0.088  0.00  0.00    +0.110 C 
ATOM     21  C   LIG    1        1.657   2.014  -0.675  0.00  0.00    +0.050 C 
ATOM     22  C   LIG    1        0.203   1.537  -0.885  0.00  0.00    +0.030 C 
ATOM     23  C   LIG    1        0.250   0.001  -0.972  0.00  0.00    +0.030 C 
ATOM     24  C   LIG    1        1.732  -0.407  -0.811  0.00  0.00    +0.050 C 
ATOM     25  O   LIG    1        3.699   0.651   3.065  0.00  0.00    -0.540 OA
ATOM     26  C   LIG    1        3.857   0.846  -0.311  0.00  0.00    +0.540 C 
ATOM     27  O   LIG    1        4.441   0.923  -1.370  0.00  0.00    -0.450 OA
ENDBRANCH  15  16
ENDBRANCH   3  15
TORSDOF 4
