REMARK  Name = ZINCqH0000001bf2.0
REMARK                            x       y       z     vdW  Elec       q    Type
REMARK                         _______ _______ _______ _____ _____    ______ ____
ROOT
ATOM      1  C   LIG    1       -4.960   3.892   0.056  0.00  0.00    +0.330 C 
ENDROOT
BRANCH   1   6
ATOM      2  C   LIG    1       -7.648   1.532   1.278  0.00  0.00    +0.140 A 
ATOM      3  C   LIG    1       -8.177   1.075   0.078  0.00  0.00    +0.030 A 
ATOM      4  C   LIG    1       -7.663   1.531  -1.120  0.00  0.00    +0.030 A 
ATOM      5  C   LIG    1       -6.626   2.446  -1.126  0.00  0.00    +0.020 A 
ATOM      6  C   LIG    1       -6.093   2.899   0.067  0.00  0.00    -0.100 A 
ATOM      7  C   LIG    1       -6.603   2.447   1.268  0.00  0.00    +0.000 A 
BRANCH   2   9
ATOM      8  C   LIG    1       -9.483   0.810   2.608  0.00  0.00    +0.520 C 
ATOM      9  N   LIG    1       -8.166   1.072   2.493  0.00  0.00    -0.680 N 
ATOM     10  H   LIG    1       -7.577   0.942   3.253  0.00  0.00    +0.410 HD
ATOM     11  O   LIG    1      -10.205   0.893   1.637  0.00  0.00    -0.520 OA
BRANCH   8  13
ATOM     12  C   LIG    1       -9.815   1.536   4.956  0.00  0.00    +0.040 C 
ATOM     13  C   LIG    1      -10.059   0.415   3.944  0.00  0.00    -0.010 C 
ATOM     14  C   LIG    1      -11.563   0.177   3.800  0.00  0.00    +0.050 C 
ENDBRANCH   8  13
ENDBRANCH   2   9
ENDBRANCH   1   6
BRANCH   1  15
ATOM     15  N   LIG    1       -3.682   3.175   0.048  0.00  0.00    -0.720 N 
ATOM     16  H   LIG    1       -3.671   2.205   0.050  0.00  0.00    +0.400 HD
ATOM     17  C   LIG    1       -2.523   3.862   0.037  0.00  0.00    +0.550 C 
ATOM     18  O   LIG    1       -2.538   5.078   0.035  0.00  0.00    -0.500 OA
BRANCH  17  19
ATOM     19  C   LIG    1       -1.235   3.139   0.029  0.00  0.00    -0.080 A 
ATOM     20  C   LIG    1       -1.214   1.743   0.025  0.00  0.00    +0.090 A 
ATOM     21  C   LIG    1       -0.008   1.074   0.022  0.00  0.00    +0.110 A 
ATOM     22  C   LIG    1        1.180   1.782   0.012  0.00  0.00    -0.010 A 
ATOM     23  C   LIG    1        1.169   3.165   0.009  0.00  0.00    +0.110 A 
ATOM     24  C   LIG    1       -0.031   3.849   0.018  0.00  0.00    +0.010 A 
ATOM     25 CL   LIG    1       -0.044   5.585   0.014  0.00  0.00    +0.010 Cl
BRANCH  22  26
ATOM     26  N   LIG    1        2.470   1.056   0.003  0.00  0.00    +0.020 N 
ATOM     27  O   LIG    1        3.518   1.677  -0.006  0.00  0.00    -0.140 OA
ATOM     28  O   LIG    1        2.484  -0.161   0.004  0.00  0.00    -0.140 OA
ENDBRANCH  22  26
ENDBRANCH  17  19
ENDBRANCH   1  15
TORSDOF 6
