REMARK  Name = ZINCrg00000yrcXR.0
REMARK                            x       y       z     vdW  Elec       q    Type
REMARK                         _______ _______ _______ _____ _____    ______ ____
ROOT
ATOM      1  C   LIG    1       -0.947  -8.386  -2.211  0.00  0.00    +0.180 A 
ATOM      2  C   LIG    1        0.039  -7.510  -2.505  0.00  0.00    -0.080 A 
ATOM      3  C   LIG    1        0.854  -8.113  -3.560  0.00  0.00    +0.540 A 
ATOM      4  N   LIG    1        0.307  -9.313  -3.842  0.00  0.00    -0.370 N 
ATOM      5  O   LIG    1        1.839  -7.624  -4.085  0.00  0.00    -0.510 OA
ATOM      6  N   LIG    1       -0.808  -9.487  -3.015  0.00  0.00    -0.390 N 
ATOM      7  C   LIG    1       -1.684 -10.661  -3.005  0.00  0.00    +0.350 C 
ENDROOT
BRANCH   4   8
ATOM      8  C   LIG    1        0.772 -10.224  -4.795  0.00  0.00    +0.150 A 
ATOM      9  C   LIG    1        0.945 -11.560  -4.455  0.00  0.00    +0.000 A 
ATOM     10  C   LIG    1        1.400 -12.458  -5.400  0.00  0.00    +0.030 A 
ATOM     11  C   LIG    1        1.693 -12.028  -6.681  0.00  0.00    +0.010 A 
ATOM     12  C   LIG    1        1.528 -10.698  -7.021  0.00  0.00    +0.030 A 
ATOM     13  C   LIG    1        1.068  -9.795  -6.083  0.00  0.00    +0.030 A 
ENDBRANCH   4   8
BRANCH   2  14
ATOM     14  N   LIG    1        0.247  -6.253  -1.903  0.00  0.00    -0.630 N 
ATOM     15  H   LIG    1        0.356  -6.188  -0.942  0.00  0.00    +0.410 HD
ATOM     16  C   LIG    1        0.295  -5.141  -2.664  0.00  0.00    +0.490 C 
ATOM     17  O   LIG    1        0.251  -5.231  -3.873  0.00  0.00    -0.510 OA
BRANCH  16  18
ATOM     18  C   LIG    1        0.402  -3.787  -2.012  0.00  0.00    +0.240 C 
BRANCH  18  19
ATOM     19  O   LIG    1        0.552  -2.784  -3.020  0.00  0.00    -0.530 OA
ATOM     20  H   LIG    1       -0.183  -2.742  -3.646  0.00  0.00    +0.380 HD
ENDBRANCH  18  19
BRANCH  18  21
ATOM     21  C   LIG    1       -0.865  -3.509  -1.202  0.00  0.00    +0.110 C 
BRANCH  21  22
ATOM     22  C   LIG    1       -0.708  -2.211  -0.452  0.00  0.00    +0.010 A 
ATOM     23  C   LIG    1       -1.547  -1.159  -0.506  0.00  0.00    +0.120 A 
ATOM     24  N   LIG    1       -1.030  -0.197   0.320  0.00  0.00    -0.460 N 
ATOM     25  C   LIG    1        0.103  -0.699   0.857  0.00  0.00    +0.400 A 
ATOM     26  C   LIG    1       -1.602   1.127   0.578  0.00  0.00    +0.330 C 
ATOM     27  N   LIG    1        0.290  -1.903   0.390  0.00  0.00    -0.490 NA
ENDBRANCH  21  22
ENDBRANCH  18  21
ENDBRANCH  16  18
ENDBRANCH   2  14
BRANCH   1  29
ATOM     28  C   LIG    1       -3.275  -7.616  -1.841  0.00  0.00    +0.040 C 
ATOM     29  C   LIG    1       -2.021  -8.185  -1.173  0.00  0.00    +0.120 C 
ENDBRANCH   1  29
TORSDOF 7
