REMARK  Name = ZINCqH0000001VPC.0
REMARK                            x       y       z     vdW  Elec       q    Type
REMARK                         _______ _______ _______ _____ _____    ______ ____
ROOT
ATOM      1  N   LIG    1        6.238   3.419  -3.220  0.00  0.00    -0.740 N 
ATOM      2  H   LIG    1        5.443   3.940  -3.026  0.00  0.00    +0.400 HD
ATOM      3  C   LIG    1        6.124   2.128  -3.591  0.00  0.00    +0.700 C 
ATOM      4  N   LIG    1        4.915   1.532  -3.594  0.00  0.00    -0.620 N 
ATOM      5  C   LIG    1        4.837   0.088  -3.888  0.00  0.00    +0.280 C 
ATOM      6  C   LIG    1        3.836  -0.618  -2.957  0.00  0.00    +0.030 C 
ATOM      7  C   LIG    1        3.964  -0.059  -1.557  0.00  0.00    +0.190 C 
ATOM      8  N   LIG    1        3.013   1.038  -1.391  0.00  0.00    -0.550 NA
ATOM      9  C   LIG    1        3.459   2.321  -1.788  0.00  0.00    +0.160 C 
ATOM     10  C   LIG    1        3.742   2.334  -3.309  0.00  0.00    +0.270 C 
ATOM     11  O   LIG    1        7.112   1.501  -3.921  0.00  0.00    -0.590 OA
ENDROOT
BRANCH   1  18
ATOM     12  C   LIG    1        6.098   5.379  -1.571  0.00  0.00    +0.030 C 
ATOM     13  C   LIG    1        7.514   5.218  -2.128  0.00  0.00    -0.080 C 
ATOM     14  C   LIG    1        7.913   6.475  -2.929  0.00  0.00    +0.020 C 
ATOM     15  C   LIG    1        7.585   6.109  -4.398  0.00  0.00    +0.000 C 
ATOM     16  C   LIG    1        7.989   4.616  -4.477  0.00  0.00    +0.010 C 
ATOM     17  C   LIG    1        8.505   4.989  -0.985  0.00  0.00    +0.030 C 
ATOM     18  C   LIG    1        7.562   4.036  -3.112  0.00  0.00    +0.260 C 
ENDBRANCH   1  18
BRANCH   8  19
ATOM     19  C   LIG    1        2.476   1.068  -0.024  0.00  0.00    +0.240 C 
BRANCH  19  20
ATOM     20  C   LIG    1        1.158   1.798  -0.017  0.00  0.00    -0.090 A 
ATOM     21  C   LIG    1        1.082   3.082   0.488  0.00  0.00    +0.020 A 
ATOM     22  C   LIG    1       -0.131   3.750   0.500  0.00  0.00    +0.090 A 
ATOM     23  C   LIG    1       -1.264   3.137  -0.005  0.00  0.00    +0.030 A 
ATOM     24  C   LIG    1       -1.188   1.853  -0.511  0.00  0.00    +0.020 A 
ATOM     25  F   LIG    1       -0.206   5.003   0.999  0.00  0.00    -0.130 F 
ATOM     26  C   LIG    1        0.023   1.182  -0.518  0.00  0.00    +0.120 A 
ATOM     27  F   LIG    1        0.098  -0.072  -1.012  0.00  0.00    -0.130 F 
ENDBRANCH  19  20
ENDBRANCH   8  19
TORSDOF 3
