REMARK  Name = ZINCpk00000e9ED6.0
REMARK                            x       y       z     vdW  Elec       q    Type
REMARK                         _______ _______ _______ _____ _____    ______ ____
ROOT
ATOM      1  N   LIG    1        2.289   3.947   0.000  0.00  0.00    -0.470 N 
ATOM      2  C   LIG    1        3.503   3.382  -0.015  0.00  0.00    +0.460 A 
ATOM      3  C   LIG    1        3.679   2.013  -0.024  0.00  0.00    -0.330 A 
ATOM      4  C   LIG    1        2.489   1.146  -0.015  0.00  0.00    +0.430 A 
ATOM      5  C   LIG    1        1.174   1.811   0.001  0.00  0.00    -0.230 A 
ATOM      6  C   LIG    1       -0.013   1.076   0.008  0.00  0.00    +0.180 A 
ATOM      7  C   LIG    1       -1.208   1.772   0.017  0.00  0.00    -0.050 A 
ATOM      8  C   LIG    1       -1.185   3.158   0.030  0.00  0.00    +0.200 A 
ATOM      9  N   LIG    1       -0.053   3.830   0.023  0.00  0.00    -0.520 NA
ATOM     10  C   LIG    1       -2.489   3.914   0.046  0.00  0.00    +0.140 C 
ATOM     11  O   LIG    1        2.587  -0.068  -0.022  0.00  0.00    -0.440 OA
ATOM     12  C   LIG    1        1.124   3.216   0.008  0.00  0.00    +0.380 A 
ENDROOT
BRANCH   1  14
ATOM     13  C   LIG    1        2.181   5.911   1.454  0.00  0.00    +0.040 C 
ATOM     14  C   LIG    1        2.198   5.410   0.008  0.00  0.00    +0.300 C 
ENDBRANCH   1  14
BRANCH   3  15
ATOM     15  C   LIG    1        5.029   1.432  -0.040  0.00  0.00    +0.540 C 
ATOM     16  O   LIG    1        6.004   2.158  -0.046  0.00  0.00    -0.530 OA
BRANCH  15  17
ATOM     17  O   LIG    1        5.186   0.093  -0.049  0.00  0.00    -0.300 OA
BRANCH  17  18
ATOM     18  C   LIG    1        6.548  -0.411  -0.065  0.00  0.00    +0.250 C 
BRANCH  18  19
ATOM     19  C   LIG    1        6.526  -1.918  -0.073  0.00  0.00    +0.510 C 
ATOM     20  N   LIG    1        7.683  -2.609  -0.088  0.00  0.00    -0.730 N 
ATOM     21  H   LIG    1        8.530  -2.136  -0.094  0.00  0.00    +0.400 HD
ATOM     22  O   LIG    1        5.467  -2.509  -0.066  0.00  0.00    -0.500 OA
BRANCH  20  23
ATOM     23  C   LIG    1        7.662  -4.074  -0.096  0.00  0.00    +0.290 C 
BRANCH  23  24
ATOM     24  C   LIG    1        9.096  -4.604  -0.113  0.00  0.00    -0.060 C 
ATOM     25  C   LIG    1        9.537  -5.409  -1.337  0.00  0.00    +0.020 C 
ATOM     26  C   LIG    1        9.291  -6.118  -0.004  0.00  0.00    +0.030 C 
ENDBRANCH  23  24
ENDBRANCH  20  23
ENDBRANCH  18  19
ENDBRANCH  17  18
ENDBRANCH  15  17
ENDBRANCH   3  15
TORSDOF 7
