REMARK  Name = ZINCb70000001O1z.0
REMARK                            x       y       z     vdW  Elec       q    Type
REMARK                         _______ _______ _______ _____ _____    ______ ____
ROOT
ATOM      1  C   LIG    1       -2.092   4.571   0.692  0.00  0.00    -0.000 C 
ATOM      2  C   LIG    1       -0.775   4.125   0.031  0.00  0.00    +0.130 C 
ATOM      3  C   LIG    1       -1.356   2.711   0.028  0.00  0.00    -0.100 C 
ATOM      4  C   LIG    1       -0.958   1.695  -1.043  0.00  0.00    +0.050 C 
ATOM      5  C   LIG    1       -0.013   1.086   0.008  0.00  0.00    +0.010 C 
ATOM      6  C   LIG    1       -0.938   1.683   1.083  0.00  0.00    +0.070 C 
ATOM      7  C   LIG    1       -2.750   3.339   0.044  0.00  0.00    +0.110 C 
ENDROOT
BRANCH   1  11
ATOM      8  N   LIG    1       -2.878   5.309   2.918  0.00  0.00    -0.850 N 
ATOM      9  H   LIG    1       -2.857   5.274   3.887  0.00  0.00    +0.430 HD
ATOM     10  H   LIG    1       -3.488   5.913   2.468  0.00  0.00    +0.390 HD
ATOM     11  C   LIG    1       -2.059   4.517   2.198  0.00  0.00    +0.530 C 
ATOM     12  O   LIG    1       -1.296   3.761   2.761  0.00  0.00    -0.460 OA
ENDBRANCH   1  11
BRANCH   1  13
ATOM     13  N   LIG    1       -2.604   5.849   0.179  0.00  0.00    -0.630 N 
ATOM     14  H   LIG    1       -1.923   6.575   0.344  0.00  0.00    +0.440 HD
ATOM     15  H   LIG    1       -3.464   6.081   0.652  0.00  0.00    +0.430 HD
ATOM     16  H   LIG    1       -2.776   5.768  -0.812  0.00  0.00    +0.440 HD
ENDBRANCH   1  13
TORSDOF 2
