REMARK  Name = ZINCrD00000F5Lwq.0
REMARK                            x       y       z     vdW  Elec       q    Type
REMARK                         _______ _______ _______ _____ _____    ______ ____
ROOT
ATOM      1  N   LIG    1        2.886  -0.471   2.417  0.00  0.00    -0.570 N 
ENDROOT
BRANCH   1   2
ATOM      2  C   LIG    1        3.571  -1.668   2.369  0.00  0.00    +0.630 A 
ATOM      3  N   LIG    1        4.215  -2.111   3.446  0.00  0.00    -0.610 NA
ATOM      4  C   LIG    1        4.871  -3.257   3.401  0.00  0.00    +0.460 A 
ATOM      5  N   LIG    1        4.891  -3.968   2.287  0.00  0.00    -0.640 NA
ATOM      6  C   LIG    1        4.250  -3.531   1.205  0.00  0.00    +0.630 A 
ATOM      7  N   LIG    1        3.585  -2.382   1.248  0.00  0.00    -0.650 NA
BRANCH   6   8
ATOM      8  N   LIG    1        4.271  -4.273   0.042  0.00  0.00    -0.810 N 
ATOM      9  H   LIG    1        3.804  -3.955  -0.746  0.00  0.00    +0.420 HD
ATOM     10  H   LIG    1        4.754  -5.114   0.012  0.00  0.00    +0.420 HD
ENDBRANCH   6   8
BRANCH   4  11
ATOM     11  C   LIG    1        5.598  -3.756   4.623  0.00  0.00    +0.030 C 
ATOM     12  C   LIG    1        6.506  -4.976   4.456  0.00  0.00    +0.060 C 
ATOM     13  C   LIG    1        5.172  -5.109   5.196  0.00  0.00    +0.040 C 
ENDBRANCH   4  11
ENDBRANCH   1   2
BRANCH   1  14
ATOM     14  C   LIG    1        2.866   0.312   3.655  0.00  0.00    +0.430 C 
BRANCH  14  19
ATOM     15  C   LIG    1        0.470  -2.350   7.089  0.00  0.00    +0.140 C 
ATOM     16  C   LIG    1        0.588  -1.285   6.030  0.00  0.00    +0.070 A 
ATOM     17  C   LIG    1       -0.437  -0.505   5.672  0.00  0.00    -0.080 A 
ATOM     18  S   LIG    1        0.130   0.592   4.415  0.00  0.00    +0.120 S 
ATOM     19  C   LIG    1        1.688  -0.107   4.496  0.00  0.00    +0.030 A 
ATOM     20  N   LIG    1        1.708  -1.048   5.378  0.00  0.00    -0.440 NA
ENDBRANCH  14  19
ENDBRANCH   1  14
BRANCH   1  21
ATOM     21  C   LIG    1        2.178   0.016   1.231  0.00  0.00    +0.300 C 
BRANCH  21  22
ATOM     22  C   LIG    1        0.742  -0.513   1.241  0.00  0.00    +0.010 C 
BRANCH  22  23
ATOM     23  C   LIG    1        0.002  -0.004   0.002  0.00  0.00    -0.060 C 
ATOM     24  C   LIG    1        0.715  -0.500  -1.260  0.00  0.00    +0.010 C 
ATOM     25  C   LIG    1       -0.079  -0.051  -2.492  0.00  0.00    +0.200 C 
ATOM     26  O   LIG    1       -1.413  -0.554  -2.408  0.00  0.00    -0.380 OA
ATOM     27  C   LIG    1       -2.143  -0.086  -1.272  0.00  0.00    +0.200 C 
ATOM     28  C   LIG    1       -0.019   1.526   0.010  0.00  0.00    +0.030 C 
ATOM     29  C   LIG    1       -1.434  -0.536   0.008  0.00  0.00    +0.000 C 
ENDBRANCH  22  23
ENDBRANCH  21  22
ENDBRANCH   1  21
TORSDOF 8
