REMARK  Name = ZINCpe000000WWsQ.0
REMARK                            x       y       z     vdW  Elec       q    Type
REMARK                         _______ _______ _______ _____ _____    ______ ____
ROOT
ATOM      1  C   LIG    1        1.288  -2.903  -1.138  0.00  0.00    +0.090 C 
ATOM      2  C   LIG    1        0.025  -2.195  -0.644  0.00  0.00    +0.230 C 
ATOM      3  C   LIG    1       -0.004  -0.755  -1.117  0.00  0.00    +0.530 C 
ATOM      4  N   LIG    1        0.002  -0.004   0.002  0.00  0.00    -0.570 N 
ATOM      5  C   LIG    1        0.022  -0.761   1.105  0.00  0.00    +0.700 C 
ATOM      6  O   LIG    1        0.027  -0.311   2.234  0.00  0.00    -0.500 OA
ATOM      7  O   LIG    1       -0.025  -0.361  -2.263  0.00  0.00    -0.440 OA
ATOM      8  N   LIG    1        0.037  -2.077   0.824  0.00  0.00    -0.560 N 
ENDROOT
BRANCH   8   9
ATOM      9  C   LIG    1        0.060  -3.129   1.747  0.00  0.00    +0.190 A 
ATOM     10  C   LIG    1        0.068  -4.444   1.303  0.00  0.00    -0.030 A 
ATOM     11  C   LIG    1        0.096  -5.480   2.217  0.00  0.00    +0.040 A 
ATOM     12  C   LIG    1        0.105  -5.208   3.572  0.00  0.00    -0.010 A 
ATOM     13  C   LIG    1        0.092  -3.899   4.018  0.00  0.00    +0.040 A 
ATOM     14  C   LIG    1        0.070  -2.859   3.109  0.00  0.00    +0.000 A 
ENDBRANCH   8   9
BRANCH   4  15
ATOM     15  C   LIG    1       -0.018   1.461   0.010  0.00  0.00    +0.450 C 
BRANCH  15  16
ATOM     16  C   LIG    1        1.396   1.982  -0.001  0.00  0.00    +0.400 A 
ATOM     17  N   LIG    1        2.023   2.209   1.140  0.00  0.00    -0.610 NA
ATOM     18  C   LIG    1        3.274   2.666   1.135  0.00  0.00    +0.630 A 
ATOM     19  N   LIG    1        3.888   2.903  -0.019  0.00  0.00    -0.650 NA
ATOM     20  C   LIG    1        3.252   2.678  -1.164  0.00  0.00    +0.630 A 
ATOM     21  N   LIG    1        2.003   2.217  -1.151  0.00  0.00    -0.620 NA
BRANCH  20  22
ATOM     22  N   LIG    1        3.885   2.922  -2.366  0.00  0.00    -0.800 N 
ATOM     23  H   LIG    1        4.795   3.259  -2.375  0.00  0.00    +0.420 HD
ATOM     24  H   LIG    1        3.420   2.759  -3.201  0.00  0.00    +0.420 HD
ENDBRANCH  20  22
BRANCH  18  25
ATOM     25  N   LIG    1        3.930   2.898   2.326  0.00  0.00    -0.580 N 
ATOM     26  C   LIG    1        3.252   2.637   3.599  0.00  0.00    +0.320 C 
ATOM     27  C   LIG    1        5.304   3.406   2.319  0.00  0.00    +0.300 C 
ENDBRANCH  18  25
ENDBRANCH  15  16
ENDBRANCH   4  15
TORSDOF 5
