REMARK  Name = ZINCb80000002HDM.0
REMARK                            x       y       z     vdW  Elec       q    Type
REMARK                         _______ _______ _______ _____ _____    ______ ____
ROOT
ATOM      1  O   LIG    1        3.474  -3.135  -0.046  0.00  0.00    -0.520 OA
ATOM      2  C   LIG    1        2.845  -2.094  -0.035  0.00  0.00    +0.700 A 
ATOM      3  N   LIG    1        1.501  -1.999  -0.022  0.00  0.00    -0.620 N 
ATOM      4  H   LIG    1        0.881  -2.745  -0.020  0.00  0.00    +0.450 HD
ATOM      5  C   LIG    1        1.154  -0.661  -0.013  0.00  0.00    +0.370 A 
ATOM      6  N   LIG    1        0.002  -0.004   0.002  0.00  0.00    -0.500 NA
ATOM      7  C   LIG    1       -0.016   1.314   0.009  0.00  0.00    +0.560 A 
ATOM      8  N   LIG    1        1.090   2.032   0.003  0.00  0.00    -0.500 NA
ATOM      9  C   LIG    1        2.283   1.452  -0.012  0.00  0.00    +0.240 A 
ATOM     10 CL   LIG    1        3.732   2.408  -0.021  0.00  0.00    +0.010 Cl
ATOM     11  C   LIG    1        2.350   0.068  -0.020  0.00  0.00    +0.000 A 
ATOM     12  N   LIG    1        3.386  -0.860  -0.034  0.00  0.00    -0.620 N 
ATOM     13  H   LIG    1        4.334  -0.654  -0.042  0.00  0.00    +0.450 HD
ENDROOT
TORSDOF 0
