REMARK  Name = ZINCrD0000073lzm.0
REMARK                            x       y       z     vdW  Elec       q    Type
REMARK                         _______ _______ _______ _____ _____    ______ ____
ROOT
ATOM      1  C   LIG    1        3.589   1.569   5.276  0.00  0.00    +0.130 A 
ATOM      2  C   LIG    1        3.359   2.883   5.447  0.00  0.00    -0.110 A 
ATOM      3  S   LIG    1        2.051   3.358   4.365  0.00  0.00    +0.210 S 
ATOM      4  C   LIG    1        1.932   1.701   3.781  0.00  0.00    +0.270 A 
ATOM      5  N   LIG    1        2.815   0.967   4.384  0.00  0.00    -0.500 NA
ENDROOT
BRANCH   1   9
ATOM      6  C   LIG    1        6.595  -0.516   7.449  0.00  0.00    +0.100 A 
ATOM      7  C   LIG    1        5.812  -1.193   6.527  0.00  0.00    -0.040 A 
ATOM      8  C   LIG    1        4.836  -0.520   5.821  0.00  0.00    +0.090 A 
ATOM      9  C   LIG    1        4.637   0.843   6.034  0.00  0.00    -0.030 A 
ATOM     10  C   LIG    1        5.429   1.524   6.958  0.00  0.00    +0.050 A 
ATOM     11  C   LIG    1        6.401   0.844   7.665  0.00  0.00    +0.070 A 
ATOM     12  F   LIG    1        7.166   1.501   8.564  0.00  0.00    -0.130 F 
BRANCH   6  14
ATOM     13  C   LIG    1        7.702  -2.578   7.870  0.00  0.00    +0.250 C 
ATOM     14  O   LIG    1        7.556  -1.183   8.143  0.00  0.00    -0.310 OA
ENDBRANCH   6  14
ENDBRANCH   1   9
BRANCH   4  15
ATOM     15  N   LIG    1        1.036   1.251   2.819  0.00  0.00    -0.620 N 
ATOM     16  H   LIG    1        1.040   0.319   2.550  0.00  0.00    +0.430 HD
ATOM     17  C   LIG    1        0.161   2.110   2.259  0.00  0.00    +0.500 C 
ATOM     18  O   LIG    1        0.155   3.275   2.595  0.00  0.00    -0.470 OA
BRANCH  17  19
ATOM     19  C   LIG    1       -0.811   1.621   1.216  0.00  0.00    +0.280 C 
ATOM     20  C   LIG    1       -0.013   1.086   0.008  0.00  0.00    +0.170 C 
ATOM     21  S   LIG    1       -0.994   1.741  -1.409  0.00  0.00    -0.230 S 
ATOM     22  C   LIG    1       -1.503   3.247  -0.492  0.00  0.00    +0.170 C 
ATOM     23  C   LIG    1       -2.877   3.732  -0.979  0.00  0.00    +0.090 C 
ATOM     24  C   LIG    1       -3.506   4.198   0.358  0.00  0.00    +0.100 C 
ATOM     25  C   LIG    1       -2.807   3.365   1.408  0.00  0.00    +0.550 C 
ATOM     26  O   LIG    1       -3.150   3.287   2.569  0.00  0.00    -0.500 OA
ATOM     27  C   LIG    1       -0.442   4.349  -0.536  0.00  0.00    +0.080 C 
ATOM     28  N   LIG    1       -1.726   2.719   0.874  0.00  0.00    -0.610 N 
ENDBRANCH  17  19
ENDBRANCH   4  15
TORSDOF 4
