REMARK  Name = ZINCrH000004qnbr.0
REMARK                            x       y       z     vdW  Elec       q    Type
REMARK                         _______ _______ _______ _____ _____    ______ ____
ROOT
ATOM      1  C   LIG    1        9.704   6.642  -0.050  0.00  0.00    +0.120 C 
ATOM      2  C   LIG    1        8.250   7.039  -0.035  0.00  0.00    +0.010 A 
ATOM      3  C   LIG    1        7.210   6.188  -0.030  0.00  0.00    +0.000 A 
ATOM      4  C   LIG    1        5.998   7.017  -0.015  0.00  0.00    -0.270 A 
ATOM      5  C   LIG    1        6.436   8.328  -0.017  0.00  0.00    +0.120 A 
ATOM      6  C   LIG    1        5.558   9.553  -0.010  0.00  0.00    +0.150 C 
ATOM      7  N   LIG    1        7.781   8.320  -0.023  0.00  0.00    -0.430 N 
ENDROOT
BRANCH   4   8
ATOM      8  C   LIG    1        4.610   6.550  -0.005  0.00  0.00    +0.430 C 
ATOM      9  O   LIG    1        3.700   7.353   0.007  0.00  0.00    -0.450 OA
BRANCH   8  10
ATOM     10  C   LIG    1        4.311   5.073  -0.010  0.00  0.00    +0.260 C 
BRANCH  10  11
ATOM     11  O   LIG    1        2.897   4.873   0.001  0.00  0.00    -0.270 OA
BRANCH  11  12
ATOM     12  C   LIG    1        2.456   3.589  -0.002  0.00  0.00    +0.340 A 
ATOM     13  N   LIG    1        3.204   2.511  -0.014  0.00  0.00    -0.290 NA
ATOM     14  N   LIG    1        2.467   1.456  -0.013  0.00  0.00    -0.270 NA
ATOM     15  C   LIG    1        1.193   1.805   0.000  0.00  0.00    +0.200 A 
ATOM     16  C   LIG    1       -0.013   1.076   0.008  0.00  0.00    +0.080 A 
ATOM     17  C   LIG    1       -1.194   1.747   0.017  0.00  0.00    +0.060 A 
ATOM     18  C   LIG    1       -1.200   3.154   0.028  0.00  0.00    +0.020 A 
ATOM     19  C   LIG    1       -0.041   3.842   0.021  0.00  0.00    +0.240 A 
ATOM     20  N   LIG    1        1.156   3.182   0.008  0.00  0.00    -0.390 N 
ENDBRANCH  11  12
ENDBRANCH  10  11
ENDBRANCH   8  10
ENDBRANCH   4   8
BRANCH   7  21
ATOM     21  C   LIG    1        8.623   9.519  -0.024  0.00  0.00    +0.300 C 
BRANCH  21  22
ATOM     22  C   LIG    1        8.903   9.944  -1.467  0.00  0.00    +0.110 C 
BRANCH  22  23
ATOM     23  C   LIG    1        9.769  11.177  -1.468  0.00  0.00    -0.190 A 
ATOM     24  C   LIG    1       11.103  11.180  -1.480  0.00  0.00    +0.010 A 
ATOM     25  C   LIG    1       11.684  12.437  -1.479  0.00  0.00    +0.000 A 
ATOM     26  C   LIG    1       10.822  13.454  -1.466  0.00  0.00    -0.040 A 
ATOM     27  S   LIG    1        9.176  12.833  -1.462  0.00  0.00    +0.100 S 
ENDBRANCH  22  23
ENDBRANCH  21  22
ENDBRANCH   7  21
TORSDOF 7
