REMARK  Name = ZINC580000002DBY.0
REMARK                            x       y       z     vdW  Elec       q    Type
REMARK                         _______ _______ _______ _____ _____    ______ ____
ROOT
ATOM      1  N   LIG    1       -0.022   1.402   2.459  0.00  0.00    -0.640 N 
ATOM      2  H   LIG    1       -0.009   0.393   2.453  0.00  0.00    +0.440 HD
ATOM      3  H   LIG    1       -0.495   1.727   3.289  0.00  0.00    +0.450 HD
ATOM      4  H   LIG    1        0.924   1.751   2.451  0.00  0.00    +0.440 HD
ENDROOT
BRANCH   1   5
ATOM      5  C   LIG    1       -0.733   1.888   1.268  0.00  0.00    +0.290 C 
BRANCH   5   6
ATOM      6  C   LIG    1       -0.017   1.395   0.010  0.00  0.00    +0.400 C 
ATOM      7  F   LIG    1        1.296   1.879  -0.000  0.00  0.00    -0.190 F 
ATOM      8  F   LIG    1        0.002  -0.004   0.002  0.00  0.00    -0.190 F 
ENDBRANCH   5   6
ENDBRANCH   1   5
TORSDOF 2
