REMARK  Name = ZINC580000002DBY.1
REMARK                            x       y       z     vdW  Elec       q    Type
REMARK                         _______ _______ _______ _____ _____    ______ ____
ROOT
ATOM      1  C   LIG    1       -0.729   1.579   1.267  0.00  0.00    +0.170 C 
ENDROOT
BRANCH   1   2
ATOM      2  N   LIG    1       -0.749   3.048   1.275  0.00  0.00    -0.850 NA
ATOM      3  H   LIG    1       -1.217   3.399   2.097  0.00  0.00    +0.350 HD
ATOM      4  H   LIG    1       -1.175   3.409   0.434  0.00  0.00    +0.350 HD
ENDBRANCH   1   2
BRANCH   1   5
ATOM      5  C   LIG    1       -0.013   1.086   0.008  0.00  0.00    +0.370 C 
ATOM      6  F   LIG    1       -0.689   1.549  -1.125  0.00  0.00    -0.210 F 
ATOM      7  F   LIG    1        1.300   1.570  -0.002  0.00  0.00    -0.200 F 
ENDBRANCH   1   5
TORSDOF 2
