REMARK  Name = ZINCrg000000sROA.2
REMARK                            x       y       z     vdW  Elec       q    Type
REMARK                         _______ _______ _______ _____ _____    ______ ____
ROOT
ATOM      1  C   LIG    1        1.097   5.330   3.902  0.00  0.00    +0.150 C 
ENDROOT
BRANCH   1   2
ATOM      2  N   LIG    1        0.199   4.298   4.439  0.00  0.00    -0.500 NA
ATOM      3  C   LIG    1        0.837   3.568   5.542  0.00  0.00    +0.160 C 
ATOM      4  C   LIG    1       -0.174   2.605   6.169  0.00  0.00    +0.030 C 
ATOM      5  C   LIG    1       -0.668   1.625   5.102  0.00  0.00    +0.010 C 
ATOM      6  C   LIG    1       -1.284   2.413   3.942  0.00  0.00    +0.040 C 
ATOM      7  C   LIG    1       -0.241   3.382   3.380  0.00  0.00    +0.130 C 
BRANCH   7   8
ATOM      8  C   LIG    1       -0.849   4.174   2.251  0.00  0.00    +0.520 C 
ATOM      9  N   LIG    1       -0.843   3.676   0.998  0.00  0.00    -0.620 N 
ATOM     10  C   LIG    1       -0.155   2.412   0.690  0.00  0.00    +0.250 C 
ATOM     11  C   LIG    1        0.759   2.641  -0.519  0.00  0.00    +0.220 C 
ATOM     12  O   LIG    1        0.001   3.227  -1.579  0.00  0.00    -0.380 OA
ATOM     13  C   LIG    1       -0.541   4.514  -1.270  0.00  0.00    +0.220 C 
ATOM     14  C   LIG    1       -1.523   4.380  -0.100  0.00  0.00    +0.260 C 
ATOM     15  O   LIG    1       -1.343   5.259   2.469  0.00  0.00    -0.510 OA
ENDBRANCH   7   8
ENDBRANCH   1   2
BRANCH   1  16
ATOM     16  C   LIG    1        1.221   6.473   4.912  0.00  0.00    +0.230 C 
BRANCH  16  17
ATOM     17  O   LIG    1       -0.068   7.041   5.150  0.00  0.00    -0.530 OA
ATOM     18  H   LIG    1       -0.490   7.403   4.359  0.00  0.00    +0.380 HD
ENDBRANCH  16  17
BRANCH  16  19
ATOM     19  C   LIG    1        2.156   7.548   4.353  0.00  0.00    +0.160 C 
BRANCH  19  20
ATOM     20  O   LIG    1        2.365   8.558   5.342  0.00  0.00    -0.290 OA
BRANCH  20  24
ATOM     21  C   LIG    1        4.833  11.704   4.314  0.00  0.00    -0.070 A 
ATOM     22  C   LIG    1        4.244  11.661   5.581  0.00  0.00    +0.110 A 
ATOM     23  C   LIG    1        3.421  10.609   5.919  0.00  0.00    -0.010 A 
ATOM     24  C   LIG    1        3.176   9.593   5.004  0.00  0.00    +0.160 A 
ATOM     25  C   LIG    1        3.765   9.629   3.745  0.00  0.00    -0.070 A 
ATOM     26  C   LIG    1        4.584  10.680   3.397  0.00  0.00    +0.110 A 
BRANCH  21  28
ATOM     27  N   LIG    1        6.369  13.661   3.675  0.00  0.00    -0.420 NA
ATOM     28  C   LIG    1        5.689  12.795   3.958  0.00  0.00    +0.260 C 
ENDBRANCH  21  28
ENDBRANCH  20  24
ENDBRANCH  19  20
ENDBRANCH  16  19
ENDBRANCH   1  16
TORSDOF 8
