REMARK  Name = ZINCAx0000000dID.0
REMARK                            x       y       z     vdW  Elec       q    Type
REMARK                         _______ _______ _______ _____ _____    ______ ____
ROOT
ATOM      1  N   LIG    1        9.754  -0.708  -2.107  0.00  0.00    -0.410 N 
ATOM      2  C   LIG    1       10.680  -1.469  -1.492  0.00  0.00    +0.500 A 
ATOM      3  N   LIG    1       10.476  -1.454  -0.200  0.00  0.00    -0.490 NA
ATOM      4  C   LIG    1        9.418  -0.690   0.083  0.00  0.00    +0.320 A 
ATOM      5  N   LIG    1        8.777  -0.335   1.258  0.00  0.00    -0.500 N 
ATOM      6  C   LIG    1        7.705   0.480   1.223  0.00  0.00    +0.710 A 
ATOM      7  O   LIG    1        7.157   0.785   2.265  0.00  0.00    -0.530 OA
ATOM      8  N   LIG    1        7.222   0.960   0.064  0.00  0.00    -0.540 N 
ATOM      9  C   LIG    1        7.804   0.650  -1.113  0.00  0.00    +0.600 A 
ATOM     10  O   LIG    1        7.360   1.095  -2.156  0.00  0.00    -0.510 OA
ATOM     11  C   LIG    1        8.933  -0.197  -1.122  0.00  0.00    -0.150 A 
ENDROOT
BRANCH   1  12
ATOM     12  C   LIG    1        9.640  -0.467  -3.547  0.00  0.00    +0.340 C 
BRANCH  12  13
ATOM     13  C   LIG    1       10.361   0.835  -3.906  0.00  0.00    +0.170 C 
BRANCH  13  15
ATOM     14  C   LIG    1       10.893   2.267  -5.753  0.00  0.00    +0.200 C 
ATOM     15  O   LIG    1       10.250   1.069  -5.311  0.00  0.00    -0.380 OA
ENDBRANCH  13  15
ENDBRANCH  12  13
ENDBRANCH   1  12
BRANCH   5  16
ATOM     16  C   LIG    1        9.268  -0.841   2.542  0.00  0.00    +0.320 C 
BRANCH  16  17
ATOM     17  C   LIG    1       10.302   0.133   3.112  0.00  0.00    -0.040 C 
ATOM     18  C   LIG    1       11.526   0.171   2.196  0.00  0.00    +0.030 C 
ATOM     19  C   LIG    1       10.723  -0.330   4.508  0.00  0.00    +0.040 C 
ENDBRANCH  16  17
ENDBRANCH   5  16
BRANCH   8  20
ATOM     20  C   LIG    1        6.050   1.839   0.080  0.00  0.00    +0.320 C 
BRANCH  20  21
ATOM     21  C   LIG    1        4.779   0.995  -0.038  0.00  0.00    +0.220 C 
BRANCH  21  22
ATOM     22  O   LIG    1        4.807   0.261  -1.264  0.00  0.00    -0.540 OA
ATOM     23  H   LIG    1        4.855   0.816  -2.054  0.00  0.00    +0.380 HD
ENDBRANCH  21  22
BRANCH  21  24
ATOM     24  C   LIG    1        3.554   1.913  -0.022  0.00  0.00    +0.180 C 
BRANCH  24  25
ATOM     25  O   LIG    1        2.365   1.120  -0.015  0.00  0.00    -0.300 OA
BRANCH  25  26
ATOM     26  C   LIG    1        1.181   1.786   0.000  0.00  0.00    +0.130 A 
ATOM     27  C   LIG    1       -0.013   1.076   0.008  0.00  0.00    -0.020 A 
ATOM     28  C   LIG    1       -1.216   1.748   0.017  0.00  0.00    +0.060 A 
ATOM     29  C   LIG    1       -1.234   3.142   0.031  0.00  0.00    -0.090 A 
ATOM     30  C   LIG    1       -0.035   3.852   0.023  0.00  0.00    +0.060 A 
ATOM     31  C   LIG    1        1.166   3.174   0.007  0.00  0.00    -0.080 A 
BRANCH  29  32
ATOM     32  C   LIG    1       -2.528   3.868   0.047  0.00  0.00    -0.040 A 
ATOM     33  C   LIG    1       -2.547   5.262   0.060  0.00  0.00    +0.000 A 
ATOM     34  C   LIG    1       -3.754   5.932   0.070  0.00  0.00    +0.000 A 
ATOM     35  C   LIG    1       -4.942   5.224   0.077  0.00  0.00    +0.000 A 
ATOM     36  C   LIG    1       -4.928   3.841   0.070  0.00  0.00    +0.000 A 
ATOM     37  C   LIG    1       -3.728   3.160   0.055  0.00  0.00    +0.010 A 
ENDBRANCH  29  32
ENDBRANCH  25  26
ENDBRANCH  24  25
ENDBRANCH  21  24
ENDBRANCH  20  21
ENDBRANCH   8  20
TORSDOF 12
