REMARK  Name = ZINCrD0000071nTp.0
REMARK                            x       y       z     vdW  Elec       q    Type
REMARK                         _______ _______ _______ _____ _____    ______ ____
ROOT
ATOM      1  C   LIG    1       -4.132  -4.707   0.018  0.00  0.00    +0.310 C 
ENDROOT
BRANCH   1   2
ATOM      2  N   LIG    1       -4.032  -6.168   0.009  0.00  0.00    -0.700 N 
ATOM      3  H   LIG    1       -3.235  -6.602   0.354  0.00  0.00    +0.420 HD
ATOM      4  C   LIG    1       -5.045  -6.911  -0.478  0.00  0.00    +0.660 C 
ATOM      5  O   LIG    1       -6.043  -6.368  -0.910  0.00  0.00    -0.560 OA
BRANCH   4   6
ATOM      6  O   LIG    1       -4.953  -8.254  -0.486  0.00  0.00    -0.360 OA
BRANCH   6   7
ATOM      7  C   LIG    1       -6.082  -8.989  -1.026  0.00  0.00    +0.290 C 
BRANCH   7   8
ATOM      8  C   LIG    1       -5.800 -10.468  -0.953  0.00  0.00    -0.100 A 
ATOM      9  C   LIG    1       -5.182 -11.107  -2.012  0.00  0.00    +0.040 A 
ATOM     10  C   LIG    1       -4.919 -12.462  -1.943  0.00  0.00    +0.010 A 
ATOM     11  C   LIG    1       -5.283 -13.181  -0.820  0.00  0.00    +0.020 A 
ATOM     12  C   LIG    1       -5.906 -12.543   0.236  0.00  0.00    +0.010 A 
ATOM     13  C   LIG    1       -6.165 -11.187   0.170  0.00  0.00    +0.040 A 
ENDBRANCH   7   8
ENDBRANCH   6   7
ENDBRANCH   4   6
ENDBRANCH   1   2
BRANCH   1  15
ATOM     14  C   LIG    1       -4.980  -2.728   1.286  0.00  0.00    +0.040 C 
ATOM     15  C   LIG    1       -4.875  -4.255   1.277  0.00  0.00    -0.020 C 
ATOM     16  C   LIG    1       -6.279  -4.863   1.288  0.00  0.00    +0.040 C 
ENDBRANCH   1  15
BRANCH   1  17
ATOM     17  C   LIG    1       -2.750  -4.108   0.007  0.00  0.00    +0.460 C 
ATOM     18  O   LIG    1       -1.779  -4.828  -0.006  0.00  0.00    -0.500 OA
BRANCH  17  19
ATOM     19  O   LIG    1       -2.596  -2.774   0.013  0.00  0.00    -0.320 OA
BRANCH  19  20
ATOM     20  C   LIG    1       -1.235  -2.268   0.002  0.00  0.00    +0.240 C 
BRANCH  20  21
ATOM     21  C   LIG    1       -1.260  -0.761   0.011  0.00  0.00    +0.400 C 
ATOM     22  O   LIG    1       -2.320  -0.172   0.024  0.00  0.00    -0.420 OA
BRANCH  21  23
ATOM     23  C   LIG    1        0.002  -0.004   0.002  0.00  0.00    -0.170 A 
ATOM     24  C   LIG    1       -0.017   1.394   0.010  0.00  0.00    +0.080 A 
ATOM     25  C   LIG    1        1.170   2.096   0.002  0.00  0.00    +0.000 A 
ATOM     26  C   LIG    1        2.378   1.421  -0.013  0.00  0.00    +0.050 A 
ATOM     27  C   LIG    1        2.405   0.037  -0.021  0.00  0.00    +0.000 A 
ATOM     28  C   LIG    1        1.227  -0.679  -0.013  0.00  0.00    +0.050 A 
ENDBRANCH  21  23
ENDBRANCH  20  21
ENDBRANCH  19  20
ENDBRANCH  17  19
ENDBRANCH   1  17
TORSDOF 10
