REMARK  Name = ZINCnE000001LTK0.1
REMARK                            x       y       z     vdW  Elec       q    Type
REMARK                         _______ _______ _______ _____ _____    ______ ____
ROOT
ATOM      1  N   LIG    1        2.820   0.750   1.414  0.00  0.00    -1.080 NA
ENDROOT
BRANCH   1   6
ATOM      2  C   LIG    1        5.164  -1.498   3.137  0.00  0.00    -0.620 A 
ATOM      3  C   LIG    1        6.184  -1.577   2.207  0.00  0.00    +0.020 A 
ATOM      4  C   LIG    1        6.091  -0.886   1.012  0.00  0.00    +0.020 A 
ATOM      5  C   LIG    1        4.977  -0.112   0.745  0.00  0.00    -0.020 A 
ATOM      6  C   LIG    1        3.949  -0.031   1.680  0.00  0.00    +0.240 A 
ATOM      7  F   LIG    1        4.886   0.564  -0.421  0.00  0.00    -0.140 F 
ATOM      8  C   LIG    1        4.050  -0.723   2.879  0.00  0.00    +0.080 A 
BRANCH   2  10
ATOM      9  C   LIG    1        6.105  -1.221   5.788  0.00  0.00    -0.270 C 
ATOM     10  S   LIG    1        5.289  -2.381   4.656  0.00  0.00    +2.500 S 
ATOM     11  O   LIG    1        6.147  -3.473   4.357  0.00  0.00    -0.950 OA
ATOM     12  O   LIG    1        3.940  -2.595   5.049  0.00  0.00    -0.940 OA
ENDBRANCH   2  10
ENDBRANCH   1   6
BRANCH   1  13
ATOM     13  S   LIG    1        2.705   1.580  -0.015  0.00  0.00    +2.610 S 
ATOM     14  O   LIG    1        3.721   2.573   0.016  0.00  0.00    -1.020 OA
ATOM     15  O   LIG    1        2.605   0.602  -1.040  0.00  0.00    -1.000 OA
BRANCH  13  16
ATOM     16  C   LIG    1        1.167   2.440   0.004  0.00  0.00    -0.610 A 
ATOM     17  C   LIG    1        1.149   3.822   0.011  0.00  0.00    +0.150 A 
ATOM     18  C   LIG    1       -0.058   4.497   0.025  0.00  0.00    +0.030 A 
ATOM     19  C   LIG    1       -1.246   3.790   0.033  0.00  0.00    -0.040 A 
ATOM     20  C   LIG    1       -1.228   2.407   0.021  0.00  0.00    +0.040 A 
ATOM     21 BR   LIG    1       -2.896   4.714   0.053  0.00  0.00    -0.040 Br
ATOM     22  C   LIG    1       -0.021   1.732   0.012  0.00  0.00    +0.060 A 
ATOM     23 CL   LIG    1        0.002  -0.004   0.002  0.00  0.00    -0.020 Cl
ENDBRANCH  13  16
ENDBRANCH   1  13
TORSDOF 4
