REMARK  Name = ZINCqH0000032J00.0
REMARK                            x       y       z     vdW  Elec       q    Type
REMARK                         _______ _______ _______ _____ _____    ______ ____
ROOT
ATOM      1  C   LIG    1        1.817   0.163   6.987  0.00  0.00    -0.690 A 
ATOM      2  C   LIG    1        0.638   0.857   7.188  0.00  0.00    +0.140 A 
ATOM      3  C   LIG    1       -0.117   1.267   6.106  0.00  0.00    +0.010 A 
ATOM      4  C   LIG    1        0.309   0.980   4.816  0.00  0.00    +0.200 A 
ATOM      5  C   LIG    1        1.491   0.277   4.618  0.00  0.00    -0.030 A 
ATOM      6  C   LIG    1        2.244  -0.124   5.704  0.00  0.00    +0.140 A 
ENDROOT
BRANCH   4   7
ATOM      7  N   LIG    1       -0.453   1.393   3.718  0.00  0.00    -0.680 N 
ATOM      8  H   LIG    1       -0.500   0.838   2.924  0.00  0.00    +0.420 HD
ATOM      9  C   LIG    1       -1.122   2.562   3.763  0.00  0.00    +0.520 C 
ATOM     10  O   LIG    1       -1.131   3.216   4.785  0.00  0.00    -0.510 OA
BRANCH   9  11
ATOM     11  C   LIG    1       -1.858   3.057   2.545  0.00  0.00    +0.070 C 
BRANCH  11  12
ATOM     12  C   LIG    1       -2.527   4.396   2.862  0.00  0.00    +0.140 C 
BRANCH  12  13
ATOM     13  C   LIG    1       -3.263   4.891   1.643  0.00  0.00    -0.180 A 
ATOM     14  C   LIG    1       -4.535   4.618   1.350  0.00  0.00    +0.010 A 
ATOM     15  C   LIG    1       -4.997   5.185   0.175  0.00  0.00    +0.000 A 
ATOM     16  C   LIG    1       -4.100   5.918  -0.486  0.00  0.00    -0.050 A 
ATOM     17  S   LIG    1       -2.578   5.923   0.395  0.00  0.00    +0.100 S 
ENDBRANCH  12  13
ENDBRANCH  11  12
ENDBRANCH   9  11
ENDBRANCH   4   7
BRANCH   1  18
ATOM     18  S   LIG    1        2.777  -0.358   8.370  0.00  0.00    +2.690 S 
ATOM     19  O   LIG    1        2.433   0.505   9.445  0.00  0.00    -0.950 OA
ATOM     20  O   LIG    1        4.107  -0.518   7.898  0.00  0.00    -0.950 OA
BRANCH  18  25
ATOM     21  C   LIG    1        2.568  -5.239  11.372  0.00  0.00    +0.030 C 
ATOM     22  C   LIG    1        2.126  -4.283  10.261  0.00  0.00    -0.020 C 
ATOM     23  C   LIG    1        3.309  -3.998   9.334  0.00  0.00    +0.020 C 
ATOM     24  C   LIG    1        2.853  -3.068   8.204  0.00  0.00    +0.280 C 
ATOM     25  N   LIG    1        2.246  -1.868   8.795  0.00  0.00    -1.000 NA
ATOM     26  C   LIG    1        1.163  -2.033   9.774  0.00  0.00    +0.280 C 
ATOM     27  C   LIG    1        1.634  -2.974  10.882  0.00  0.00    +0.020 C 
ENDBRANCH  18  25
ENDBRANCH   1  18
TORSDOF 6
