REMARK  Name = ZINCqH0000050jiB.0
REMARK                            x       y       z     vdW  Elec       q    Type
REMARK                         _______ _______ _______ _____ _____    ______ ____
ROOT
ATOM      1  C   LIG    1        4.417   4.250   0.612  0.00  0.00    +0.600 C 
ATOM      2  N   LIG    1        3.402   3.483   0.168  0.00  0.00    -0.610 N 
ATOM      3  C   LIG    1        3.309   2.068   0.554  0.00  0.00    +0.290 C 
ATOM      4  C   LIG    1        3.231   1.217  -0.720  0.00  0.00    +0.300 C 
ATOM      5  N   LIG    1        2.197   1.781  -1.599  0.00  0.00    -0.630 N 
ATOM      6  C   LIG    1        2.292   3.194  -1.989  0.00  0.00    +0.270 C 
ATOM      7  C   LIG    1        1.181   1.014  -2.043  0.00  0.00    +0.710 C 
ATOM      8  N   LIG    1        0.238   1.544  -2.846  0.00  0.00    -0.740 N 
ATOM      9  H   LIG    1        0.284   2.480  -3.097  0.00  0.00    +0.390 HD
ATOM     10  O   LIG    1        1.120  -0.158  -1.723  0.00  0.00    -0.580 OA
ATOM     11  C   LIG    1        2.368   4.047  -0.711  0.00  0.00    +0.260 C 
ATOM     12  O   LIG    1        5.383   3.734   1.143  0.00  0.00    -0.520 OA
ENDROOT
BRANCH   8  13
ATOM     13  C   LIG    1       -0.859   0.707  -3.339  0.00  0.00    +0.250 C 
ATOM     14  C   LIG    1       -1.978   0.665  -2.297  0.00  0.00    +0.010 C 
ATOM     15  C   LIG    1       -3.123  -0.209  -2.812  0.00  0.00    -0.010 C 
ATOM     16  C   LIG    1       -3.664   0.377  -4.118  0.00  0.00    +0.020 C 
ATOM     17  C   LIG    1       -2.545   0.418  -5.161  0.00  0.00    -0.060 C 
ATOM     18  C   LIG    1       -2.030  -1.000  -5.413  0.00  0.00    +0.020 C 
ATOM     19  C   LIG    1       -3.085   1.004  -6.466  0.00  0.00    +0.030 C 
ATOM     20  C   LIG    1       -4.242  -0.250  -1.770  0.00  0.00    +0.010 C 
ATOM     21  C   LIG    1       -1.399   1.293  -4.645  0.00  0.00    +0.020 C 
ENDBRANCH   8  13
BRANCH   1  26
ATOM     22  C   LIG    1        3.171   9.475   0.021  0.00  0.00    +0.140 C 
ATOM     23  C   LIG    1        3.781   8.106   0.184  0.00  0.00    -0.200 A 
ATOM     24  C   LIG    1        5.095   7.864   0.244  0.00  0.00    -0.010 A 
ATOM     25  C   LIG    1        5.439   6.541   0.395  0.00  0.00    +0.110 A 
ATOM     26  C   LIG    1        4.359   5.706   0.456  0.00  0.00    -0.280 A 
ATOM     27  S   LIG    1        2.887   6.658   0.309  0.00  0.00    +0.210 S 
ENDBRANCH   1  26
TORSDOF 2
