REMARK  Name = ZINCkj00000dD4fi.0
REMARK                            x       y       z     vdW  Elec       q    Type
REMARK                         _______ _______ _______ _____ _____    ______ ____
ROOT
ATOM      1  N   LIG    1       -0.100   6.380  -1.547  0.00  0.00    -1.110 NA
ATOM      2  H   LIG    1        0.652   6.875  -1.910  0.00  0.00    +0.430 HD
ENDROOT
BRANCH   1   6
ATOM      3  N   LIG    1       -2.257   7.719  -3.872  0.00  0.00    -0.390 N 
ATOM      4  C   LIG    1       -1.920   6.519  -4.680  0.00  0.00    +0.270 C 
ATOM      5  C   LIG    1       -0.799   5.837  -3.854  0.00  0.00    +0.010 C 
ATOM      6  C   LIG    1       -1.253   6.073  -2.396  0.00  0.00    +0.270 C 
ATOM      7  C   LIG    1       -0.730   4.340  -4.164  0.00  0.00    +0.080 C 
ATOM      8  C   LIG    1       -2.206   7.282  -2.460  0.00  0.00    +0.260 C 
ATOM      9  H   LIG    1       -1.581   8.450  -4.035  0.00  0.00    +0.430 HD
BRANCH   3  11
ATOM     10  C   LIG    1       -3.611   8.756  -5.630  0.00  0.00    +0.080 C 
ATOM     11  C   LIG    1       -3.607   8.193  -4.207  0.00  0.00    +0.250 C 
ENDBRANCH   3  11
ENDBRANCH   1   6
BRANCH   1  12
ATOM     12  S   LIG    1       -0.078   5.883   0.032  0.00  0.00    +2.690 S 
ATOM     13  O   LIG    1        1.171   6.298   0.567  0.00  0.00    -0.940 OA
ATOM     14  O   LIG    1       -1.328   6.264   0.590  0.00  0.00    -0.950 OA
BRANCH  12  15
ATOM     15  C   LIG    1       -0.054   4.121   0.024  0.00  0.00    -0.730 A 
ATOM     16  C   LIG    1        1.153   3.447   0.009  0.00  0.00    +0.170 A 
ATOM     17  C   LIG    1        1.175   2.066   0.002  0.00  0.00    -0.020 A 
ATOM     18  C   LIG    1       -0.016   1.355   0.009  0.00  0.00    +0.190 A 
ATOM     19  C   LIG    1       -1.226   2.033   0.019  0.00  0.00    -0.090 A 
ATOM     20  C   LIG    1       -1.242   3.414   0.031  0.00  0.00    +0.150 A 
BRANCH  18  21
ATOM     21  O   LIG    1        0.002  -0.004   0.002  0.00  0.00    -0.310 OA
ATOM     22  C   LIG    1       -1.262  -0.670   0.011  0.00  0.00    +0.250 C 
ENDBRANCH  18  21
ENDBRANCH  12  15
ENDBRANCH   1  12
TORSDOF 5
