REMARK  Name = ZINCkj00000dD4fi.1
REMARK                            x       y       z     vdW  Elec       q    Type
REMARK                         _______ _______ _______ _____ _____    ______ ____
ROOT
ATOM      1  N   LIG    1       -0.636   0.327   4.660  0.00  0.00    -1.110 NA
ATOM      2  H   LIG    1       -0.842  -0.620   4.619  0.00  0.00    +0.430 HD
ENDROOT
BRANCH   1   6
ATOM      3  N   LIG    1       -0.700   1.560   1.217  0.00  0.00    -0.390 N 
ATOM      4  C   LIG    1       -2.025   0.913   1.337  0.00  0.00    +0.270 C 
ATOM      5  C   LIG    1       -2.279   0.680   2.838  0.00  0.00    +0.010 C 
ATOM      6  C   LIG    1       -1.010   1.206   3.549  0.00  0.00    +0.260 C 
ATOM      7  C   LIG    1       -3.509   1.465   3.298  0.00  0.00    +0.070 C 
ATOM      8  C   LIG    1        0.059   1.158   2.429  0.00  0.00    +0.260 C 
ATOM      9  H   LIG    1       -0.804   2.563   1.188  0.00  0.00    +0.430 HD
BRANCH   3  11
ATOM     10  C   LIG    1       -0.753   1.593  -1.232  0.00  0.00    +0.080 C 
ATOM     11  C   LIG    1       -0.013   1.086   0.008  0.00  0.00    +0.250 C 
ENDBRANCH   3  11
ENDBRANCH   1   6
BRANCH   1  12
ATOM     12  S   LIG    1        0.137   0.951   5.985  0.00  0.00    +2.690 S 
ATOM     13  O   LIG    1        1.204   1.747   5.489  0.00  0.00    -0.950 OA
ATOM     14  O   LIG    1        0.328  -0.132   6.885  0.00  0.00    -0.940 OA
BRANCH  12  15
ATOM     15  C   LIG    1       -0.986   2.058   6.770  0.00  0.00    -0.730 A 
ATOM     16  C   LIG    1       -1.002   3.394   6.413  0.00  0.00    +0.150 A 
ATOM     17  C   LIG    1       -1.885   4.263   7.023  0.00  0.00    -0.090 A 
ATOM     18  C   LIG    1       -2.749   3.798   8.004  0.00  0.00    +0.190 A 
ATOM     19  C   LIG    1       -2.728   2.458   8.365  0.00  0.00    -0.020 A 
ATOM     20  C   LIG    1       -1.846   1.592   7.747  0.00  0.00    +0.170 A 
BRANCH  18  21
ATOM     21  O   LIG    1       -3.615   4.652   8.610  0.00  0.00    -0.310 OA
ATOM     22  C   LIG    1       -3.582   6.017   8.188  0.00  0.00    +0.250 C 
ENDBRANCH  18  21
ENDBRANCH  12  15
ENDBRANCH   1  12
TORSDOF 5
