REMARK  Name = ZINCqH00000050HM.0
REMARK                            x       y       z     vdW  Elec       q    Type
REMARK                         _______ _______ _______ _____ _____    ______ ____
ROOT
ATOM      1  N   LIG    1       -1.365  -0.792   0.120  0.00  0.00    -0.710 N 
ATOM      2  H   LIG    1       -2.266  -0.438   0.050  0.00  0.00    +0.400 HD
ATOM      3  C   LIG    1       -0.330   0.041   0.347  0.00  0.00    +0.520 C 
ATOM      4  O   LIG    1        0.796  -0.402   0.434  0.00  0.00    -0.530 OA
ENDROOT
BRANCH   1   5
ATOM      5  C   LIG    1       -1.131  -2.231  -0.023  0.00  0.00    +0.250 C 
BRANCH   5   8
ATOM      6  C   LIG    1       -0.565  -4.740   2.811  0.00  0.00    +0.290 C 
ATOM      7  N   LIG    1       -0.505  -4.069   1.510  0.00  0.00    -0.620 N 
ATOM      8  C   LIG    1       -1.102  -2.872   1.341  0.00  0.00    +0.500 C 
ATOM      9  O   LIG    1       -1.616  -2.312   2.286  0.00  0.00    -0.530 OA
ATOM     10  C   LIG    1        0.203  -4.699   0.393  0.00  0.00    +0.290 C 
ENDBRANCH   5   8
BRANCH   5  11
ATOM     11  C   LIG    1       -2.255  -2.851  -0.855  0.00  0.00    +0.100 C 
BRANCH  11  12
ATOM     12  C   LIG    1       -2.205  -2.300  -2.256  0.00  0.00    -0.080 A 
ATOM     13  C   LIG    1       -2.919  -1.160  -2.576  0.00  0.00    +0.010 A 
ATOM     14  C   LIG    1       -2.869  -0.651  -3.861  0.00  0.00    +0.000 A 
ATOM     15  C   LIG    1       -2.115  -1.289  -4.828  0.00  0.00    +0.000 A 
ATOM     16  C   LIG    1       -1.406  -2.432  -4.509  0.00  0.00    +0.000 A 
ATOM     17  C   LIG    1       -1.451  -2.937  -3.224  0.00  0.00    +0.010 A 
ENDBRANCH  11  12
ENDBRANCH   5  11
ENDBRANCH   1   5
BRANCH   3  18
ATOM     18  C   LIG    1       -0.572   1.521   0.494  0.00  0.00    +0.070 C 
BRANCH  18  19
ATOM     19  C   LIG    1        0.759   2.233   0.744  0.00  0.00    +0.110 C 
BRANCH  19  20
ATOM     20  C   LIG    1        0.518   3.713   0.890  0.00  0.00    -0.070 A 
ATOM     21  C   LIG    1        0.559   4.534  -0.222  0.00  0.00    -0.020 A 
ATOM     22  C   LIG    1        0.332   5.892  -0.088  0.00  0.00    +0.040 A 
ATOM     23  C   LIG    1        0.075   6.430   1.159  0.00  0.00    +0.040 A 
ATOM     24  C   LIG    1        0.039   5.611   2.272  0.00  0.00    +0.040 A 
ATOM     25 CL   LIG    1        0.889   3.860  -1.787  0.00  0.00    -0.050 Cl
ATOM     26  C   LIG    1        0.260   4.252   2.138  0.00  0.00    -0.020 A 
ATOM     27 CL   LIG    1        0.215   3.223   3.536  0.00  0.00    -0.050 Cl
ENDBRANCH  19  20
ENDBRANCH  18  19
ENDBRANCH   3  18
TORSDOF 7
