REMARK  Name = ZINCrD000000BtPg.0
REMARK                            x       y       z     vdW  Elec       q    Type
REMARK                         _______ _______ _______ _____ _____    ______ ____
ROOT
ATOM      1  O   LIG    1        0.713   0.466   2.522  0.00  0.00    -0.490 OA
ATOM      2  C   LIG    1       -0.290   1.148   2.428  0.00  0.00    +0.560 C 
ATOM      3  N   LIG    1       -0.802   1.430   1.214  0.00  0.00    -0.730 N 
ATOM      4  H   LIG    1       -1.602   1.974   1.139  0.00  0.00    +0.390 HD
ENDROOT
BRANCH   2   5
ATOM      5  C   LIG    1       -0.945   1.667   3.643  0.00  0.00    -0.170 A 
ATOM      6  C   LIG    1       -2.033   2.542   3.547  0.00  0.00    +0.100 A 
ATOM      7  C   LIG    1       -2.613   3.000   4.717  0.00  0.00    -0.050 A 
ATOM      8  C   LIG    1       -2.108   2.585   5.936  0.00  0.00    +0.300 A 
ATOM      9  N   LIG    1       -1.082   1.759   6.005  0.00  0.00    -0.520 NA
ATOM     10  C   LIG    1       -0.493   1.286   4.918  0.00  0.00    +0.350 A 
BRANCH  10  11
ATOM     11  N   LIG    1        0.576   0.418   5.037  0.00  0.00    -0.450 N 
ATOM     12  C   LIG    1        1.831   1.155   5.337  0.00  0.00    +0.190 C 
ATOM     13  C   LIG    1        2.748   0.064   5.941  0.00  0.00    +0.030 C 
ATOM     14  C   LIG    1        1.766  -0.791   6.775  0.00  0.00    +0.010 C 
ATOM     15  C   LIG    1        0.378  -0.515   6.168  0.00  0.00    +0.180 C 
ENDBRANCH  10  11
ENDBRANCH   2   5
BRANCH   3  16
ATOM     16  C   LIG    1       -0.151   0.915   0.007  0.00  0.00    +0.340 C 
BRANCH  16  17
ATOM     17  C   LIG    1       -0.916   1.369  -1.210  0.00  0.00    -0.190 A 
ATOM     18  C   LIG    1       -1.796   0.512  -1.846  0.00  0.00    +0.120 A 
ATOM     19  C   LIG    1       -2.483   0.975  -2.959  0.00  0.00    -0.070 A 
ATOM     20  C   LIG    1       -2.262   2.263  -3.402  0.00  0.00    +0.310 A 
ATOM     21  N   LIG    1       -1.411   3.056  -2.778  0.00  0.00    -0.540 NA
ATOM     22  C   LIG    1       -0.742   2.653  -1.711  0.00  0.00    +0.340 A 
BRANCH  22  23
ATOM     23  O   LIG    1        0.122   3.502  -1.100  0.00  0.00    -0.290 OA
BRANCH  23  24
ATOM     24  C   LIG    1        0.257   4.808  -1.664  0.00  0.00    +0.170 C 
ATOM     25  C   LIG    1        1.424   4.831  -2.672  0.00  0.00    +0.000 C 
ATOM     26  C   LIG    1        2.071   6.224  -2.472  0.00  0.00    +0.020 C 
ATOM     27  C   LIG    1        1.975   6.429  -0.940  0.00  0.00    +0.020 C 
ATOM     28  C   LIG    1        0.607   5.824  -0.562  0.00  0.00    +0.040 C 
ENDBRANCH  23  24
ENDBRANCH  22  23
ENDBRANCH  16  17
ENDBRANCH   3  16
TORSDOF 6
