REMARK  Name = ZINCrg000012xypK.0
REMARK                            x       y       z     vdW  Elec       q    Type
REMARK                         _______ _______ _______ _____ _____    ______ ____
ROOT
ATOM      1  C   LIG    1        0.593  -0.635   5.883  0.00  0.00    +0.570 C 
ATOM      2  N   LIG    1        0.223  -0.079   4.712  0.00  0.00    -0.640 N 
ATOM      3  C   LIG    1        1.247   0.362   3.758  0.00  0.00    +0.280 C 
ATOM      4  C   LIG    1        1.009   1.847   3.466  0.00  0.00    +0.270 C 
ATOM      5  N   LIG    1       -0.394   2.007   3.062  0.00  0.00    -0.600 N 
ATOM      6  C   LIG    1       -1.471   1.524   3.910  0.00  0.00    +0.230 C 
ATOM      7  C   LIG    1       -1.522   2.301   5.242  0.00  0.00    +0.200 C 
ATOM      8  O   LIG    1       -2.146   1.403   6.174  0.00  0.00    -0.360 OA
ATOM      9  C   LIG    1       -1.975   0.049   5.739  0.00  0.00    +0.220 C 
ATOM     10  C   LIG    1       -0.685   2.603   1.889  0.00  0.00    +0.520 C 
ATOM     11  O   LIG    1       -1.841   2.735   1.546  0.00  0.00    -0.500 OA
ATOM     12  C   LIG    1       -1.201   0.082   4.399  0.00  0.00    +0.220 C 
ATOM     13  O   LIG    1        0.006  -0.344   6.907  0.00  0.00    -0.450 OA
ENDROOT
BRANCH   1  19
ATOM     14  C   LIG    1        2.223  -2.034   7.151  0.00  0.00    +0.190 A 
ATOM     15  C   LIG    1        3.273  -2.939   7.176  0.00  0.00    -0.080 A 
ATOM     16  C   LIG    1        3.813  -3.406   5.994  0.00  0.00    +0.080 A 
ATOM     17  C   LIG    1        3.310  -2.976   4.776  0.00  0.00    -0.040 A 
ATOM     18  C   LIG    1        2.263  -2.081   4.733  0.00  0.00    +0.090 A 
ATOM     19  C   LIG    1        1.711  -1.597   5.921  0.00  0.00    -0.190 A 
BRANCH  14  21
ATOM     20  C   LIG    1        2.264  -2.065   9.526  0.00  0.00    +0.250 C 
ATOM     21  O   LIG    1        1.692  -1.575   8.312  0.00  0.00    -0.280 OA
ENDBRANCH  14  21
ENDBRANCH   1  19
BRANCH  10  22
ATOM     22  C   LIG    1        0.425   3.107   1.004  0.00  0.00    +0.230 C 
BRANCH  22  23
ATOM     23  O   LIG    1       -0.133   3.695  -0.173  0.00  0.00    -0.350 OA
BRANCH  23  24
ATOM     24  C   LIG    1        0.840   4.207  -1.085  0.00  0.00    +0.170 C 
BRANCH  24  25
ATOM     25  C   LIG    1        0.133   4.810  -2.301  0.00  0.00    +0.400 C 
ATOM     26  F   LIG    1       -0.708   5.848  -1.885  0.00  0.00    -0.200 F 
ATOM     27  F   LIG    1       -0.627   3.821  -2.936  0.00  0.00    -0.200 F 
ENDBRANCH  24  25
ENDBRANCH  23  24
ENDBRANCH  22  23
ENDBRANCH  10  22
TORSDOF 6
