REMARK  Name = ZINCrH000004pzq9.0
REMARK                            x       y       z     vdW  Elec       q    Type
REMARK                         _______ _______ _______ _____ _____    ______ ____
ROOT
ATOM      1  C   LIG    1       -4.330  -1.226   1.187  0.00  0.00    +0.100 C 
ATOM      2  C   LIG    1       -3.709  -1.068  -0.203  0.00  0.00    +0.020 C 
ENDROOT
BRANCH   2   3
ATOM      3  C   LIG    1       -2.413  -0.307  -0.091  0.00  0.00    +0.550 C 
ATOM      4  N   LIG    1       -2.428   1.037   0.019  0.00  0.00    -0.660 N 
ATOM      5  H   LIG    1       -3.272   1.507   0.106  0.00  0.00    +0.420 HD
ATOM      6  O   LIG    1       -1.357  -0.903  -0.099  0.00  0.00    -0.490 OA
BRANCH   4   7
ATOM      7  C   LIG    1       -1.224   1.754   0.006  0.00  0.00    +0.140 A 
ATOM      8  C   LIG    1       -0.102   1.218  -0.610  0.00  0.00    +0.080 A 
ATOM      9  C   LIG    1        1.083   1.928  -0.627  0.00  0.00    +0.050 A 
ATOM     10  C   LIG    1        1.155   3.173  -0.026  0.00  0.00    +0.080 A 
ATOM     11  C   LIG    1        0.038   3.711   0.595  0.00  0.00    +0.060 A 
ATOM     12  F   LIG    1        0.110   4.926   1.180  0.00  0.00    -0.110 F 
ATOM     13  F   LIG    1        2.315   3.865  -0.045  0.00  0.00    -0.120 F 
ATOM     14  C   LIG    1       -1.151   3.002   0.615  0.00  0.00    +0.070 A 
ATOM     15  F   LIG    1       -2.240   3.524   1.220  0.00  0.00    -0.120 F 
ENDBRANCH   4   7
ENDBRANCH   2   3
BRANCH   2  16
ATOM     16  S   LIG    1       -3.389  -2.706  -0.912  0.00  0.00    +0.090 S 
BRANCH  16  17
ATOM     17  C   LIG    1       -5.006  -3.379  -1.103  0.00  0.00    +0.200 A 
ATOM     18  N   LIG    1       -6.130  -2.783  -0.788  0.00  0.00    -0.280 NA
ATOM     19  N   LIG    1       -7.184  -3.654  -1.095  0.00  0.00    -0.320 NA
ATOM     20  C   LIG    1       -6.668  -4.756  -1.590  0.00  0.00    +0.440 A 
ATOM     21  N   LIG    1       -6.989  -6.004  -2.097  0.00  0.00    -0.600 N 
ATOM     22  H   LIG    1       -7.884  -6.364  -2.199  0.00  0.00    +0.450 HD
ATOM     23  C   LIG    1       -5.806  -6.644  -2.451  0.00  0.00    +0.140 A 
ATOM     24  C   LIG    1       -5.537  -7.891  -2.999  0.00  0.00    +0.020 A 
ATOM     25  C   LIG    1       -4.231  -8.270  -3.239  0.00  0.00    +0.060 A 
ATOM     26  C   LIG    1       -3.189  -7.412  -2.934  0.00  0.00    +0.020 A 
ATOM     27  C   LIG    1       -3.446  -6.170  -2.388  0.00  0.00    +0.070 A 
ATOM     28  C   LIG    1       -4.754  -5.779  -2.144  0.00  0.00    +0.060 A 
ATOM     29  N   LIG    1       -5.309  -4.613  -1.613  0.00  0.00    -0.440 N 
ENDBRANCH  16  17
ENDBRANCH   2  16
TORSDOF 4
