REMARK  Name = ZINCkj000005kuqZ.0
REMARK                            x       y       z     vdW  Elec       q    Type
REMARK                         _______ _______ _______ _____ _____    ______ ____
ROOT
ATOM      1  C   LIG    1        2.787   3.998   0.314  0.00  0.00    +0.230 C 
ENDROOT
BRANCH   1   8
ATOM      2  C   LIG    1        2.781   5.824  -1.925  0.00  0.00    +0.090 C 
ATOM      3  C   LIG    1        2.602   6.349  -0.524  0.00  0.00    -0.050 A 
ATOM      4  C   LIG    1        2.435   7.704  -0.310  0.00  0.00    +0.040 A 
ATOM      5  C   LIG    1        2.271   8.186   0.975  0.00  0.00    +0.050 A 
ATOM      6  C   LIG    1        2.274   7.312   2.046  0.00  0.00    +0.040 A 
ATOM      7  C   LIG    1        2.436   5.956   1.832  0.00  0.00    -0.010 A 
ATOM      8  C   LIG    1        2.605   5.475   0.547  0.00  0.00    -0.140 A 
ENDBRANCH   1   8
BRANCH   1   9
ATOM      9  N   LIG    1        3.228   3.356   1.559  0.00  0.00    -0.500 N 
ATOM     10  H   LIG    1        3.250   2.355   1.432  0.00  0.00    +0.440 HD
ATOM     11  H   LIG    1        2.585   3.586   2.302  0.00  0.00    +0.420 HD
BRANCH   9  12
ATOM     12  C   LIG    1        4.572   3.835   1.908  0.00  0.00    +0.220 C 
BRANCH  12  13
ATOM     13  C   LIG    1        5.031   3.166   3.206  0.00  0.00    +0.200 C 
ATOM     14  C   LIG    1        6.375   3.757   3.635  0.00  0.00    +0.050 C 
BRANCH  13  15
ATOM     15  O   LIG    1        5.174   1.761   2.992  0.00  0.00    -0.550 OA
ATOM     16  H   LIG    1        5.819   1.530   2.309  0.00  0.00    +0.390 HD
ENDBRANCH  13  15
ENDBRANCH  12  13
ENDBRANCH   9  12
ENDBRANCH   1   9
BRANCH   1  17
ATOM     17  C   LIG    1        1.458   3.385  -0.134  0.00  0.00    +0.230 C 
BRANCH  17  18
ATOM     18  N   LIG    1        1.618   1.933  -0.295  0.00  0.00    -0.550 NA
ATOM     19  C   LIG    1        2.539   1.625  -1.399  0.00  0.00    +0.140 C 
ATOM     20  C   LIG    1        2.723   0.108  -1.494  0.00  0.00    +0.230 C 
ATOM     21  O   LIG    1        1.446  -0.513  -1.664  0.00  0.00    -0.380 OA
ATOM     22  C   LIG    1        0.524  -0.234  -0.606  0.00  0.00    +0.230 C 
ATOM     23  C   LIG    1        0.318   1.280  -0.503  0.00  0.00    +0.180 C 
ENDBRANCH  17  18
ENDBRANCH   1  17
TORSDOF 7
