REMARK  Name = ZINCkj00000GeR3f.0
REMARK                            x       y       z     vdW  Elec       q    Type
REMARK                         _______ _______ _______ _____ _____    ______ ____
ROOT
ATOM      1  O   LIG    1       -0.859   2.125  -6.088  0.00  0.00    -0.930 OA
ATOM      2  S   LIG    1        0.012   1.504  -5.153  0.00  0.00    +2.700 S 
ATOM      3  O   LIG    1        1.361   1.907  -4.962  0.00  0.00    -0.930 OA
ENDROOT
BRANCH   2   4
ATOM      4  C   LIG    1        0.060  -0.206  -5.578  0.00  0.00    -0.710 A 
ATOM      5  C   LIG    1       -0.658  -0.667  -6.664  0.00  0.00    +0.210 A 
ATOM      6  C   LIG    1       -0.618  -2.007  -7.003  0.00  0.00    +0.020 A 
ATOM      7  C   LIG    1        0.133  -2.891  -6.247  0.00  0.00    +0.160 A 
ATOM      8  C   LIG    1        0.849  -2.430  -5.153  0.00  0.00    +0.020 A 
ATOM      9  F   LIG    1        1.583  -3.291  -4.414  0.00  0.00    -0.110 F 
ATOM     10  F   LIG    1        0.167  -4.201  -6.575  0.00  0.00    -0.100 F 
ATOM     11  C   LIG    1        0.812  -1.086  -4.819  0.00  0.00    +0.190 A 
ATOM     12  F   LIG    1        1.509  -0.635  -3.753  0.00  0.00    -0.100 F 
ENDBRANCH   2   4
BRANCH   2  13
ATOM     13  N   LIG    1       -0.725   1.622  -3.675  0.00  0.00    -1.120 NA
ATOM     14  H   LIG    1       -1.579   2.075  -3.594  0.00  0.00    +0.420 HD
BRANCH  13  15
ATOM     15  C   LIG    1       -0.089   1.041  -2.491  0.00  0.00    +0.300 C 
BRANCH  15  16
ATOM     16  C   LIG    1       -0.756   1.595  -1.230  0.00  0.00    -0.010 C 
ATOM     17  C   LIG    1       -0.013   1.086   0.008  0.00  0.00    +0.050 C 
ATOM     18  C   LIG    1       -0.733   1.581   1.266  0.00  0.00    +0.060 C 
ATOM     19  C   LIG    1       -2.190   1.111   1.229  0.00  0.00    +0.260 C 
ATOM     20  N   LIG    1       -2.854   1.652   0.036  0.00  0.00    -0.500 N 
ATOM     21  H   LIG    1       -3.826   1.384   0.044  0.00  0.00    +0.430 HD
ATOM     22  H   LIG    1       -2.784   2.659   0.041  0.00  0.00    +0.430 HD
ATOM     23  C   LIG    1       -2.212   1.124  -1.173  0.00  0.00    +0.260 C 
ENDBRANCH  15  16
ENDBRANCH  13  15
ENDBRANCH   2  13
TORSDOF 4
