REMARK  Name = ZINCpe00000Lg0nr.0
REMARK                            x       y       z     vdW  Elec       q    Type
REMARK                         _______ _______ _______ _____ _____    ______ ____
ROOT
ATOM      1  C   LIG    1       -2.337   1.137  -2.831  0.00  0.00    +0.530 C 
ATOM      2  N   LIG    1       -1.811   1.561  -1.665  0.00  0.00    -0.620 N 
ATOM      3  C   LIG    1       -2.641   1.659  -0.454  0.00  0.00    +0.290 C 
ATOM      4  C   LIG    1       -1.929   0.922   0.685  0.00  0.00    +0.190 C 
ATOM      5  N   LIG    1       -0.563   1.445   0.825  0.00  0.00    -0.480 NA
ATOM      6  C   LIG    1        0.231   1.190  -0.385  0.00  0.00    +0.130 C 
ATOM      7  C   LIG    1       -0.393   1.938  -1.568  0.00  0.00    +0.310 C 
ATOM      8  O   LIG    1       -1.618   0.963  -3.792  0.00  0.00    -0.520 OA
ENDROOT
BRANCH   1  16
ATOM      9  C   LIG    1       -5.209   1.419  -6.939  0.00  0.00    +0.140 A 
ATOM     10  C   LIG    1       -5.047   2.569  -6.181  0.00  0.00    -0.080 A 
ATOM     11  C   LIG    1       -4.600   2.476  -4.878  0.00  0.00    +0.060 A 
ATOM     12  C   LIG    1       -4.313   1.240  -4.324  0.00  0.00    -0.120 A 
ATOM     13  C   LIG    1       -4.474   0.092  -5.078  0.00  0.00    -0.040 A 
ATOM     14  C   LIG    1       -4.097  -1.120  -4.252  0.00  0.00    +0.090 C 
ATOM     15  C   LIG    1       -4.110  -0.630  -2.786  0.00  0.00    +0.060 C 
ATOM     16  C   LIG    1       -3.817   0.877  -2.940  0.00  0.00    +0.040 C 
ATOM     17  C   LIG    1       -4.921   0.181  -6.385  0.00  0.00    -0.010 A 
BRANCH   9  19
ATOM     18  C   LIG    1       -5.925   2.813  -8.727  0.00  0.00    +0.250 C 
ATOM     19  O   LIG    1       -5.649   1.505  -8.222  0.00  0.00    -0.320 OA
ENDBRANCH   9  19
ENDBRANCH   1  16
BRANCH   6  20
ATOM     20  C   LIG    1        1.642   1.674  -0.172  0.00  0.00    +0.520 C 
ATOM     21  O   LIG    1        1.866   2.557   0.629  0.00  0.00    -0.510 OA
ATOM     22  N   LIG    1        2.655   1.125  -0.871  0.00  0.00    -0.850 N 
ATOM     23  H   LIG    1        3.563   1.436  -0.734  0.00  0.00    +0.410 HD
ATOM     24  H   LIG    1        2.476   0.419  -1.511  0.00  0.00    +0.400 HD
ENDBRANCH   6  20
BRANCH   5  25
ATOM     25  C   LIG    1        0.096   0.888   2.014  0.00  0.00    +0.140 C 
ATOM     26  C   LIG    1       -0.579  -0.297   2.706  0.00  0.00    -0.020 C 
ATOM     27  C   LIG    1       -0.598   1.084   3.363  0.00  0.00    +0.040 C 
ENDBRANCH   5  25
TORSDOF 4
