REMARK  Name = ZINCkj000018RCOn.1
REMARK                            x       y       z     vdW  Elec       q    Type
REMARK                         _______ _______ _______ _____ _____    ______ ____
ROOT
ATOM      1  N   LIG    1       -3.014   2.199  -1.545  0.00  0.00    -0.560 NA
ATOM      2  C   LIG    1       -2.158   1.025  -1.228  0.00  0.00    +0.220 C 
ATOM      3  C   LIG    1       -0.685   1.560  -1.297  0.00  0.00    +0.040 C 
ATOM      4  C   LIG    1       -0.013   1.086   0.008  0.00  0.00    +0.030 C 
ATOM      5  C   LIG    1       -0.661   1.547   1.331  0.00  0.00    +0.260 C 
ATOM      6  N   LIG    1       -0.656   3.058   1.270  0.00  0.00    -0.520 N 
ATOM      7  C   LIG    1       -2.037   3.463   1.634  0.00  0.00    +0.250 C 
ATOM      8  C   LIG    1       -3.190   2.916   0.767  0.00  0.00    +0.250 C 
ATOM      9  F   LIG    1       -3.207   1.518   0.810  0.00  0.00    -0.160 F 
ATOM     10  F   LIG    1       -4.414   3.431   1.208  0.00  0.00    -0.140 F 
ATOM     11  H   LIG    1        0.006   3.436   1.931  0.00  0.00    +0.440 HD
ATOM     12  H   LIG    1       -0.434   3.369   0.336  0.00  0.00    +0.430 HD
ATOM     13  C   LIG    1       -2.887   3.411  -0.691  0.00  0.00    +0.270 C 
ENDROOT
BRANCH   1  14
ATOM     14  C   LIG    1       -4.421   1.801  -1.688  0.00  0.00    +0.290 C 
BRANCH  14  18
ATOM     15  C   LIG    1       -6.620   4.982  -3.286  0.00  0.00    +0.290 A 
ATOM     16  C   LIG    1       -6.388   4.893  -1.917  0.00  0.00    +0.220 A 
ATOM     17  N   LIG    1       -5.691   3.882  -1.432  0.00  0.00    -0.400 NA
ATOM     18  C   LIG    1       -5.216   2.954  -2.245  0.00  0.00    +0.010 A 
ATOM     19  C   LIG    1       -5.440   3.043  -3.607  0.00  0.00    +0.300 A 
ATOM     20  N   LIG    1       -6.141   4.051  -4.098  0.00  0.00    -0.500 NA
BRANCH  15  22
ATOM     21  C   LIG    1       -7.534   6.046  -5.202  0.00  0.00    +0.260 C 
ATOM     22  O   LIG    1       -7.335   6.020  -3.788  0.00  0.00    -0.300 OA
ENDBRANCH  15  22
ENDBRANCH  14  18
ENDBRANCH   1  14
TORSDOF 3
