REMARK  Name = ZINCvU00000008vy.0
REMARK                            x       y       z     vdW  Elec       q    Type
REMARK                         _______ _______ _______ _____ _____    ______ ____
ROOT
ATOM      1  C   LIG    1        4.886   3.739  -0.911  0.00  0.00    +0.350 A 
ATOM      2  N   LIG    1        3.641   3.297  -0.893  0.00  0.00    -0.530 NA
ATOM      3  C   LIG    1        3.276   2.246  -1.612  0.00  0.00    +0.400 A 
ATOM      4  C   LIG    1        4.248   1.587  -2.405  0.00  0.00    -0.140 A 
ATOM      5  C   LIG    1        4.124   0.423  -3.274  0.00  0.00    -0.020 A 
ATOM      6  C   LIG    1        5.255   0.066  -3.880  0.00  0.00    -0.010 A 
ATOM      7  S   LIG    1        6.574   1.137  -3.447  0.00  0.00    +0.190 S 
ATOM      8  C   LIG    1        5.547   2.096  -2.393  0.00  0.00    +0.090 A 
ATOM      9  N   LIG    1        5.819   3.165  -1.634  0.00  0.00    -0.470 NA
ENDROOT
BRANCH   5  10
ATOM     10  C   LIG    1        2.846  -0.303  -3.467  0.00  0.00    -0.030 A 
ATOM     11  C   LIG    1        2.168  -0.831  -2.369  0.00  0.00    +0.060 A 
ATOM     12  C   LIG    1        0.977  -1.500  -2.554  0.00  0.00    -0.010 A 
ATOM     13  C   LIG    1        0.460  -1.659  -3.827  0.00  0.00    +0.010 A 
ATOM     14  C   LIG    1        1.131  -1.143  -4.921  0.00  0.00    +0.000 A 
ATOM     15  C   LIG    1        2.321  -0.466  -4.748  0.00  0.00    +0.020 A 
ENDBRANCH   5  10
BRANCH   3  16
ATOM     16  N   LIG    1        1.969   1.794  -1.583  0.00  0.00    -0.470 N 
ATOM     17  C   LIG    1        1.525   1.553  -0.203  0.00  0.00    +0.180 C 
ATOM     18  C   LIG    1        0.097   1.000  -0.221  0.00  0.00    +0.240 C 
ATOM     19  O   LIG    1       -0.755   1.917  -0.911  0.00  0.00    -0.370 OA
ATOM     20  C   LIG    1       -0.352   2.174  -2.260  0.00  0.00    +0.220 C 
ATOM     21  C   LIG    1        1.070   2.739  -2.262  0.00  0.00    +0.190 C 
BRANCH  20  22
ATOM     22  C   LIG    1       -1.292   3.173  -2.884  0.00  0.00    -0.100 A 
ATOM     23  C   LIG    1       -1.755   4.244  -2.141  0.00  0.00    +0.080 A 
ATOM     24  C   LIG    1       -2.612   5.164  -2.715  0.00  0.00    -0.020 A 
ATOM     25  C   LIG    1       -3.017   5.006  -4.029  0.00  0.00    +0.100 A 
ATOM     26  C   LIG    1       -2.557   3.931  -4.770  0.00  0.00    -0.010 A 
ATOM     27  F   LIG    1       -3.860   5.902  -4.589  0.00  0.00    -0.140 F 
ATOM     28  C   LIG    1       -1.695   3.015  -4.197  0.00  0.00    +0.060 A 
ENDBRANCH  20  22
ENDBRANCH   3  16
BRANCH   1  29
ATOM     29  C   LIG    1        5.245   4.939  -0.074  0.00  0.00    +0.290 C 
BRANCH  29  31
ATOM     30  C   LIG    1        6.027   5.575   2.101  0.00  0.00    +0.220 C 
ATOM     31  O   LIG    1        5.662   4.508   1.223  0.00  0.00    -0.380 OA
ENDBRANCH  29  31
ENDBRANCH   1  29
TORSDOF 5
