REMARK  Name = ZINCrD00000F5Lj4.0
REMARK                            x       y       z     vdW  Elec       q    Type
REMARK                         _______ _______ _______ _____ _____    ______ ____
ROOT
ATOM      1  C   LIG    1       -1.213   3.532   0.027  0.00  0.00    -0.150 A 
ATOM      2  C   LIG    1       -0.016   4.250   0.025  0.00  0.00    +0.100 A 
ATOM      3  C   LIG    1       -0.042   5.629   0.033  0.00  0.00    +0.000 A 
ATOM      4  C   LIG    1       -1.251   6.301   0.042  0.00  0.00    +0.160 A 
ATOM      5  C   LIG    1       -2.442   5.596   0.044  0.00  0.00    -0.680 A 
ATOM      6  C   LIG    1       -2.430   4.217   0.031  0.00  0.00    +0.200 A 
ENDROOT
BRANCH   1   8
ATOM      7  O   LIG    1       -2.238   1.433   0.020  0.00  0.00    -0.490 OA
ATOM      8  C   LIG    1       -1.193   2.055   0.019  0.00  0.00    +0.580 C 
ATOM      9  N   LIG    1       -0.017   1.397   0.010  0.00  0.00    -0.580 N 
ATOM     10  H   LIG    1        0.816   1.893   0.004  0.00  0.00    +0.390 HD
BRANCH   9  11
ATOM     11  N   LIG    1        0.002  -0.004   0.002  0.00  0.00    -0.220 NA
ATOM     12  C   LIG    1        1.135  -0.638  -0.012  0.00  0.00    +0.240 C 
BRANCH  12  13
ATOM     13  C   LIG    1        1.155  -2.112  -0.020  0.00  0.00    -0.050 A 
ATOM     14  C   LIG    1       -0.043  -2.830  -0.007  0.00  0.00    +0.080 A 
ATOM     15  C   LIG    1       -0.018  -4.210  -0.021  0.00  0.00    +0.020 A 
ATOM     16  C   LIG    1        1.191  -4.882  -0.036  0.00  0.00    +0.070 A 
ATOM     17  C   LIG    1        2.383  -4.177  -0.043  0.00  0.00    -0.100 A 
ATOM     18 BR   LIG    1        4.029  -5.108  -0.064  0.00  0.00    -0.040 Br
ATOM     19  C   LIG    1        2.372  -2.797  -0.036  0.00  0.00    +0.080 A 
ENDBRANCH  12  13
ENDBRANCH   9  11
ENDBRANCH   1   8
BRANCH   5  20
ATOM     20  S   LIG    1       -3.976   6.463   0.055  0.00  0.00    +2.690 S 
ATOM     21  O   LIG    1       -3.709   7.745   0.605  0.00  0.00    -0.950 OA
ATOM     22  O   LIG    1       -4.937   5.569   0.598  0.00  0.00    -0.950 OA
BRANCH  20  23
ATOM     23  N   LIG    1       -4.409   6.712  -1.524  0.00  0.00    -0.990 NA
ATOM     24  C   LIG    1       -3.989   7.928  -2.233  0.00  0.00    +0.290 C 
ATOM     25  C   LIG    1       -3.281   7.516  -3.533  0.00  0.00    +0.010 C 
ATOM     26  C   LIG    1       -4.206   6.605  -4.343  0.00  0.00    +0.020 C 
ATOM     27  C   LIG    1       -4.510   5.339  -3.539  0.00  0.00    +0.010 C 
ATOM     28  C   LIG    1       -5.227   5.723  -2.241  0.00  0.00    +0.290 C 
ENDBRANCH  20  23
ENDBRANCH   5  20
TORSDOF 5
