REMARK  Name = ZINCrH000004tMvM.0
REMARK                            x       y       z     vdW  Elec       q    Type
REMARK                         _______ _______ _______ _____ _____    ______ ____
ROOT
ATOM      1  O   LIG    1        2.066  -0.095   1.254  0.00  0.00    -0.510 OA
ATOM      2  C   LIG    1        2.331   0.926   0.654  0.00  0.00    +0.520 C 
ATOM      3  N   LIG    1        1.362   1.593  -0.002  0.00  0.00    -0.730 N 
ATOM      4  H   LIG    1        1.574   2.409  -0.482  0.00  0.00    +0.400 HD
ENDROOT
BRANCH   3   5
ATOM      5  C   LIG    1       -0.013   1.086   0.008  0.00  0.00    +0.390 C 
BRANCH   5   6
ATOM      6  C   LIG    1       -0.742   1.585  -1.213  0.00  0.00    -0.100 A 
ATOM      7  C   LIG    1       -0.551   2.883  -1.648  0.00  0.00    +0.050 A 
ATOM      8  C   LIG    1       -1.214   3.340  -2.771  0.00  0.00    -0.010 A 
ATOM      9  C   LIG    1       -2.079   2.501  -3.453  0.00  0.00    +0.110 A 
ATOM     10  C   LIG    1       -2.274   1.203  -3.013  0.00  0.00    -0.010 A 
ATOM     11  F   LIG    1       -2.734   2.949  -4.547  0.00  0.00    -0.140 F 
ATOM     12  C   LIG    1       -1.605   0.746  -1.893  0.00  0.00    +0.070 A 
ENDBRANCH   5   6
BRANCH   5  13
ATOM     13  C   LIG    1       -0.718   1.572   1.248  0.00  0.00    -0.190 A 
ATOM     14  C   LIG    1       -1.561   0.849   1.986  0.00  0.00    +0.020 A 
ATOM     15  C   LIG    1       -2.087   1.507   3.084  0.00  0.00    +0.010 A 
ATOM     16  C   LIG    1       -1.677   2.768   3.233  0.00  0.00    -0.050 A 
ATOM     17  S   LIG    1       -0.561   3.182   1.938  0.00  0.00    +0.100 S 
ENDBRANCH   5  13
ENDBRANCH   3   5
BRANCH   2  18
ATOM     18  C   LIG    1        3.745   1.447   0.644  0.00  0.00    +0.210 C 
BRANCH  18  19
ATOM     19  N   LIG    1        4.605   0.548   1.425  0.00  0.00    -0.510 NA
ATOM     20  C   LIG    1        4.244   0.582   2.851  0.00  0.00    +0.150 C 
ATOM     21  C   LIG    1        5.128  -0.401   3.624  0.00  0.00    +0.230 C 
ATOM     22  O   LIG    1        6.505  -0.081   3.401  0.00  0.00    -0.380 OA
ATOM     23  C   LIG    1        6.880  -0.115   2.023  0.00  0.00    +0.170 C 
ATOM     24  C   LIG    1        8.355   0.258   1.869  0.00  0.00    +0.040 C 
ATOM     25  C   LIG    1        8.736   0.205   0.387  0.00  0.00    +0.020 C 
ATOM     26  C   LIG    1        7.871   1.189  -0.402  0.00  0.00    +0.010 C 
ATOM     27  C   LIG    1        6.394   0.824  -0.237  0.00  0.00    +0.040 C 
ATOM     28  C   LIG    1        6.022   0.887   1.245  0.00  0.00    +0.110 C 
ENDBRANCH  18  19
ENDBRANCH   2  18
TORSDOF 5
