REMARK  Name = ZINCrD0000073FlN.1
REMARK                            x       y       z     vdW  Elec       q    Type
REMARK                         _______ _______ _______ _____ _____    ______ ____
ROOT
ATOM      1  N   LIG    1        1.755   1.111   0.703  0.00  0.00    -0.730 N 
ATOM      2  H   LIG    1        1.342   1.987   0.657  0.00  0.00    +0.410 HD
ATOM      3  C   LIG    1        1.059   0.062   1.183  0.00  0.00    +0.520 C 
ATOM      4  O   LIG    1        1.575  -1.034   1.241  0.00  0.00    -0.520 OA
ENDROOT
BRANCH   1   5
ATOM      5  C   LIG    1        3.136   0.927   0.249  0.00  0.00    +0.270 C 
BRANCH   5   6
ATOM      6  C   LIG    1        3.658   2.239  -0.340  0.00  0.00    +0.210 C 
BRANCH   6  11
ATOM      7  C   LIG    1        6.712   1.894  -2.539  0.00  0.00    +0.130 A 
ATOM      8  C   LIG    1        7.713   1.722  -1.593  0.00  0.00    -0.070 A 
ATOM      9  C   LIG    1        7.397   1.719  -0.248  0.00  0.00    +0.050 A 
ATOM     10  C   LIG    1        6.087   1.892   0.156  0.00  0.00    -0.020 A 
ATOM     11  C   LIG    1        5.087   2.057  -0.784  0.00  0.00    -0.070 A 
ATOM     12  C   LIG    1        5.396   2.061  -2.130  0.00  0.00    -0.010 A 
BRANCH   7  14
ATOM     13  C   LIG    1        8.394   1.720  -4.210  0.00  0.00    +0.250 C 
ATOM     14  O   LIG    1        7.019   1.898  -3.862  0.00  0.00    -0.320 OA
ENDBRANCH   7  14
ENDBRANCH   6  11
BRANCH   6  15
ATOM     15  N   LIG    1        3.593   3.295   0.680  0.00  0.00    -0.530 NA
ATOM     16  C   LIG    1        4.623   4.316   0.447  0.00  0.00    +0.190 C 
ATOM     17  C   LIG    1        3.709   2.729   2.031  0.00  0.00    +0.190 C 
ENDBRANCH   6  15
ENDBRANCH   5   6
ENDBRANCH   1   5
BRANCH   3  18
ATOM     18  C   LIG    1       -0.364   0.249   1.644  0.00  0.00    +0.150 C 
BRANCH  18  19
ATOM     19  C   LIG    1       -0.914  -1.068   2.125  0.00  0.00    +0.090 A 
ATOM     20  C   LIG    1       -1.438  -1.215   3.347  0.00  0.00    -0.060 A 
ATOM     21  S   LIG    1       -1.964  -2.887   3.525  0.00  0.00    +0.140 S 
ATOM     22  C   LIG    1       -1.410  -3.232   1.888  0.00  0.00    +0.130 A 
ATOM     23  N   LIG    1       -0.913  -2.142   1.369  0.00  0.00    -0.430 NA
BRANCH  22  24
ATOM     24  C   LIG    1       -1.498  -4.536   1.214  0.00  0.00    +0.050 A 
ATOM     25  C   LIG    1       -2.018  -5.678   1.744  0.00  0.00    -0.010 A 
ATOM     26  C   LIG    1       -1.899  -6.674   0.757  0.00  0.00    -0.050 A 
ATOM     27  C   LIG    1       -1.319  -6.101  -0.316  0.00  0.00    +0.200 A 
ATOM     28  O   LIG    1       -1.083  -4.808  -0.039  0.00  0.00    -0.150 OA
ENDBRANCH  22  24
ENDBRANCH  18  19
ENDBRANCH   3  18
TORSDOF 8
