REMARK  Name = ZINCvU0000000DlA.0
REMARK                            x       y       z     vdW  Elec       q    Type
REMARK                         _______ _______ _______ _____ _____    ______ ____
ROOT
ATOM      1  N   LIG    1        2.403   1.084  -0.163  0.00  0.00    -0.340 N 
ATOM      2  N   LIG    1        3.683   1.660  -0.214  0.00  0.00    -0.290 NA
ATOM      3  C   LIG    1        4.544   0.688  -0.006  0.00  0.00    +0.310 A 
ATOM      4  N   LIG    1        3.868  -0.457   0.162  0.00  0.00    -0.500 NA
ATOM      5  C   LIG    1        2.584  -0.231   0.069  0.00  0.00    +0.290 A 
ENDROOT
BRANCH   5   6
ATOM      6  C   LIG    1        1.494  -1.262   0.201  0.00  0.00    +0.260 C 
ATOM      7  C   LIG    1        1.370  -1.710   1.676  0.00  0.00    +0.060 C 
ATOM      8  C   LIG    1        1.148  -3.225   1.534  0.00  0.00    -0.120 C 
ATOM      9  C   LIG    1        1.956  -3.570   0.276  0.00  0.00    +0.230 C 
ATOM     10  C   LIG    1        1.421  -4.067   2.772  0.00  0.00    +0.040 C 
ATOM     11  C   LIG    1       -0.084  -3.943   3.076  0.00  0.00    +0.010 C 
ATOM     12  C   LIG    1       -0.297  -3.703   1.569  0.00  0.00    +0.040 C 
ATOM     13  O   LIG    1        1.823  -2.420  -0.579  0.00  0.00    -0.350 OA
ENDBRANCH   5   6
BRANCH   1  17
ATOM     14  C   LIG    1       -1.240   3.054  -0.655  0.00  0.00    +0.140 A 
ATOM     15  C   LIG    1       -0.923   1.972  -1.463  0.00  0.00    -0.010 A 
ATOM     16  C   LIG    1        0.281   1.315  -1.296  0.00  0.00    +0.080 A 
ATOM     17  C   LIG    1        1.178   1.747  -0.329  0.00  0.00    +0.150 A 
ATOM     18  C   LIG    1        0.862   2.834   0.475  0.00  0.00    -0.130 A 
ATOM     19  C   LIG    1       -0.344   3.486   0.312  0.00  0.00    +0.070 A 
BRANCH  18  20
ATOM     20  C   LIG    1        1.836   3.302   1.526  0.00  0.00    +0.510 C 
ATOM     21  F   LIG    1        3.039   3.671   0.916  0.00  0.00    -0.150 F 
ATOM     22  F   LIG    1        2.073   2.267   2.437  0.00  0.00    -0.170 F 
ATOM     23  F   LIG    1        1.298   4.403   2.202  0.00  0.00    -0.170 F 
ENDBRANCH  18  20
BRANCH  14  25
ATOM     24  C   LIG    1       -3.302   3.199  -1.831  0.00  0.00    +0.250 C 
ATOM     25  O   LIG    1       -2.428   3.697  -0.816  0.00  0.00    -0.300 OA
ENDBRANCH  14  25
ENDBRANCH   1  17
BRANCH   3  26
ATOM     26  C   LIG    1        6.021   0.833   0.030  0.00  0.00    -0.120 A 
ATOM     27  C   LIG    1        6.736   1.976  -0.135  0.00  0.00    +0.050 A 
ATOM     28  O   LIG    1        8.039   1.680  -0.030  0.00  0.00    -0.180 OA
ATOM     29  C   LIG    1        8.212   0.369   0.201  0.00  0.00    +0.170 A 
ATOM     30  C   LIG    1        6.161   3.345  -0.394  0.00  0.00    +0.190 C 
ATOM     31  C   LIG    1        7.009  -0.227   0.259  0.00  0.00    -0.010 A 
ENDBRANCH   3  26
TORSDOF 5
