REMARK  Name = ZINCkj00000GeRs7.1
REMARK                            x       y       z     vdW  Elec       q    Type
REMARK                         _______ _______ _______ _____ _____    ______ ____
ROOT
ATOM      1  N   LIG    1        0.647   6.265   5.683  0.00  0.00    -0.380 N 
ATOM      2  C   LIG    1        1.106   5.141   4.857  0.00  0.00    +0.280 C 
ATOM      3  C   LIG    1       -0.055   4.628   4.001  0.00  0.00    +0.220 C 
ATOM      4  N   LIG    1       -1.153   4.198   4.878  0.00  0.00    -0.540 NA
ATOM      5  C   LIG    1       -1.607   5.306   5.729  0.00  0.00    +0.230 C 
ATOM      6  C   LIG    1       -0.433   5.813   6.571  0.00  0.00    +0.180 C 
ATOM      7  H   LIG    1        0.305   7.003   5.086  0.00  0.00    +0.430 HD
ENDROOT
BRANCH   6   8
ATOM      8  C   LIG    1       -0.898   6.981   7.443  0.00  0.00    +0.030 C 
ATOM      9  C   LIG    1       -1.970   6.492   8.419  0.00  0.00    +0.060 C 
ENDBRANCH   6   8
BRANCH   1  10
ATOM     10  C   LIG    1        1.766   6.768   6.491  0.00  0.00    +0.270 C 
BRANCH  10  11
ATOM     11  C   LIG    1        2.830   7.367   5.570  0.00  0.00    +0.200 C 
BRANCH  11  12
ATOM     12  O   LIG    1        2.296   8.515   4.908  0.00  0.00    -0.400 OA
BRANCH  12  14
ATOM     13  C   LIG    1        2.539  10.364   3.370  0.00  0.00    +0.050 C 
ATOM     14  C   LIG    1        3.215   9.154   4.019  0.00  0.00    +0.180 C 
ENDBRANCH  12  14
ENDBRANCH  11  12
ENDBRANCH  10  11
ENDBRANCH   1  10
BRANCH   4  15
ATOM     15  C   LIG    1       -2.266   3.646   4.095  0.00  0.00    +0.350 C 
BRANCH  15  16
ATOM     16  C   LIG    1       -1.824   2.372   3.422  0.00  0.00    +0.160 A 
ATOM     17  N   LIG    1       -1.912   1.172   3.913  0.00  0.00    -0.360 NA
ATOM     18  O   LIG    1       -1.470   0.362   3.125  0.00  0.00    +0.090 OA
ATOM     19  C   LIG    1       -1.044   0.988   2.024  0.00  0.00    +0.200 A 
ATOM     20  C   LIG    1       -0.427   0.345   0.808  0.00  0.00    +0.250 C 
ATOM     21  N   LIG    1       -1.261   2.268   2.205  0.00  0.00    -0.490 NA
ENDBRANCH  15  16
ENDBRANCH   4  15
TORSDOF 7
