REMARK  Name = ZINCkj00000GeRs7.0
REMARK                            x       y       z     vdW  Elec       q    Type
REMARK                         _______ _______ _______ _____ _____    ______ ____
ROOT
ATOM      1  N   LIG    1        2.081   3.145   4.165  0.00  0.00    -0.380 N 
ATOM      2  C   LIG    1        3.273   3.066   3.311  0.00  0.00    +0.270 C 
ATOM      3  C   LIG    1        2.914   2.365   1.999  0.00  0.00    +0.210 C 
ATOM      4  N   LIG    1        1.851   3.118   1.318  0.00  0.00    -0.510 NA
ATOM      5  C   LIG    1        0.660   3.226   2.172  0.00  0.00    +0.220 C 
ATOM      6  C   LIG    1        1.037   3.920   3.483  0.00  0.00    +0.170 C 
ATOM      7  H   LIG    1        1.739   2.214   4.353  0.00  0.00    +0.430 HD
ENDROOT
BRANCH   6   8
ATOM      8  C   LIG    1        1.560   5.326   3.183  0.00  0.00    +0.040 C 
ATOM      9  C   LIG    1        0.442   6.164   2.559  0.00  0.00    +0.060 C 
ENDBRANCH   6   8
BRANCH   1  10
ATOM     10  C   LIG    1        2.429   3.802   5.432  0.00  0.00    +0.280 C 
BRANCH  10  11
ATOM     11  C   LIG    1        1.228   3.755   6.379  0.00  0.00    +0.200 C 
BRANCH  11  12
ATOM     12  O   LIG    1        0.935   2.396   6.710  0.00  0.00    -0.400 OA
BRANCH  12  14
ATOM     13  C   LIG    1       -0.397   0.752   7.878  0.00  0.00    +0.050 C 
ATOM     14  C   LIG    1       -0.176   2.240   7.594  0.00  0.00    +0.180 C 
ENDBRANCH  12  14
ENDBRANCH  11  12
ENDBRANCH  10  11
ENDBRANCH   1  10
BRANCH   4  15
ATOM     15  C   LIG    1        1.518   2.506   0.025  0.00  0.00    +0.390 C 
BRANCH  15  16
ATOM     16  C   LIG    1        0.905   1.148   0.254  0.00  0.00    +0.120 A 
ATOM     17  N   LIG    1        1.544   0.019   0.332  0.00  0.00    -0.370 NA
ATOM     18  O   LIG    1        0.766  -0.891   0.522  0.00  0.00    +0.080 OA
ATOM     19  C   LIG    1       -0.481  -0.416   0.585  0.00  0.00    +0.190 A 
ATOM     20  C   LIG    1       -1.737  -1.218   0.807  0.00  0.00    +0.250 C 
ATOM     21  N   LIG    1       -0.403   0.882   0.416  0.00  0.00    -0.480 NA
ENDBRANCH  15  16
ENDBRANCH   4  15
TORSDOF 7
