REMARK  Name = ZINCpk000000oorM.0
REMARK                            x       y       z     vdW  Elec       q    Type
REMARK                         _______ _______ _______ _____ _____    ______ ____
ROOT
ATOM      1  N   LIG    1        3.622  -0.662  -0.041  0.00  0.00    -0.670 N 
ATOM      2  H   LIG    1        4.453  -0.170  -0.134  0.00  0.00    +0.410 HD
ATOM      3  C   LIG    1        3.642  -2.006   0.057  0.00  0.00    +0.710 C 
ATOM      4  N   LIG    1        4.819  -2.658   0.143  0.00  0.00    -0.620 N 
ATOM      5  C   LIG    1        6.082  -1.912   0.240  0.00  0.00    +0.260 C 
ATOM      6  C   LIG    1        6.830  -2.387   1.498  0.00  0.00    +0.290 C 
ATOM      7  N   LIG    1        6.873  -3.856   1.490  0.00  0.00    -1.010 NA
ATOM      8  C   LIG    1        5.611  -4.601   1.388  0.00  0.00    +0.290 C 
ATOM      9  C   LIG    1        4.862  -4.127   0.136  0.00  0.00    +0.300 C 
ATOM     10  O   LIG    1        2.599  -2.630   0.068  0.00  0.00    -0.570 OA
ENDROOT
BRANCH   1  16
ATOM     11  C   LIG    1        2.291   1.281  -0.605  0.00  0.00    +0.100 A 
ATOM     12  C   LIG    1        1.081   1.955  -0.571  0.00  0.00    -0.060 A 
ATOM     13  C   LIG    1       -0.013   1.382   0.051  0.00  0.00    +0.030 A 
ATOM     14  C   LIG    1        0.096   0.137   0.640  0.00  0.00    +0.000 A 
ATOM     15  C   LIG    1        1.300  -0.543   0.612  0.00  0.00    +0.050 A 
ATOM     16  C   LIG    1        2.401   0.025  -0.010  0.00  0.00    +0.140 A 
BRANCH  11  17
ATOM     17  O   LIG    1        3.367   1.843  -1.216  0.00  0.00    -0.320 OA
BRANCH  17  18
ATOM     18  C   LIG    1        3.180   3.132  -1.804  0.00  0.00    +0.180 C 
BRANCH  18  20
ATOM     19  C   LIG    1        4.291   4.978  -3.069  0.00  0.00    +0.040 C 
ATOM     20  C   LIG    1        4.492   3.598  -2.439  0.00  0.00    +0.020 C 
ENDBRANCH  18  20
ENDBRANCH  17  18
ENDBRANCH  11  17
ENDBRANCH   1  16
BRANCH   7  21
ATOM     21  S   LIG    1        8.319  -4.657   1.596  0.00  0.00    +2.780 S 
ATOM     22  O   LIG    1        8.025  -5.949   2.111  0.00  0.00    -0.970 OA
ATOM     23  O   LIG    1        9.229  -3.761   2.219  0.00  0.00    -0.970 OA
BRANCH  21  24
ATOM     24  N   LIG    1        8.868  -4.883   0.051  0.00  0.00    -1.010 NA
ATOM     25  C   LIG    1        8.500  -6.094  -0.688  0.00  0.00    +0.300 C 
ATOM     26  C   LIG    1        9.723  -3.873  -0.578  0.00  0.00    +0.290 C 
ENDBRANCH  21  24
ENDBRANCH   7  21
TORSDOF 6
