REMARK  Name = ZINCrH000004jxZc.0
REMARK                            x       y       z     vdW  Elec       q    Type
REMARK                         _______ _______ _______ _____ _____    ______ ____
ROOT
ATOM      1  C   LIG    1       -3.754   3.527   1.796  0.00  0.00    +0.310 C 
ATOM      2  N   LIG    1       -3.235   2.170   1.985  0.00  0.00    -0.570 N 
ATOM      3  C   LIG    1       -2.545   1.862   3.101  0.00  0.00    +0.530 C 
ATOM      4  O   LIG    1       -2.034   0.768   3.216  0.00  0.00    -0.510 OA
ENDROOT
BRANCH   2   5
ATOM      5  C   LIG    1       -3.455   1.195   1.009  0.00  0.00    +0.150 A 
ATOM      6  C   LIG    1       -4.512   0.306   1.139  0.00  0.00    +0.020 A 
ATOM      7  C   LIG    1       -4.728  -0.658   0.173  0.00  0.00    +0.020 A 
ATOM      8  C   LIG    1       -3.894  -0.743  -0.928  0.00  0.00    +0.020 A 
ATOM      9  C   LIG    1       -2.842   0.139  -1.074  0.00  0.00    +0.030 A 
ATOM     10  C   LIG    1       -2.610   1.111  -0.104  0.00  0.00    -0.040 A 
BRANCH  10  11
ATOM     11  C   LIG    1       -1.478   2.057  -0.252  0.00  0.00    -0.050 A 
ATOM     12  C   LIG    1       -1.372   2.848  -1.395  0.00  0.00    +0.010 A 
ATOM     13  C   LIG    1       -0.319   3.730  -1.525  0.00  0.00    +0.000 A 
ATOM     14  C   LIG    1        0.634   3.826  -0.527  0.00  0.00    +0.010 A 
ATOM     15  C   LIG    1        0.537   3.039   0.607  0.00  0.00    +0.000 A 
ATOM     16  C   LIG    1       -0.512   2.154   0.748  0.00  0.00    +0.020 A 
ENDBRANCH  10  11
ENDBRANCH   2   5
BRANCH   3  17
ATOM     17  C   LIG    1       -2.408   2.877   4.207  0.00  0.00    +0.000 C 
ATOM     18  C   LIG    1       -1.108   3.699   4.046  0.00  0.00    +0.090 C 
ATOM     19  C   LIG    1       -0.624   3.909   5.463  0.00  0.00    +0.530 C 
ATOM     20  N   LIG    1       -1.242   3.052   6.295  0.00  0.00    -0.620 N 
ATOM     21  O   LIG    1        0.202   4.731   5.801  0.00  0.00    -0.500 OA
ATOM     22  C   LIG    1       -2.176   2.184   5.568  0.00  0.00    +0.300 C 
BRANCH  20  23
ATOM     23  C   LIG    1       -1.011   2.992   7.740  0.00  0.00    +0.350 C 
BRANCH  23  24
ATOM     24  C   LIG    1        0.124   2.009   8.035  0.00  0.00    +0.430 C 
ATOM     25  F   LIG    1       -0.225   0.739   7.565  0.00  0.00    -0.180 F 
ATOM     26  F   LIG    1        0.344   1.952   9.416  0.00  0.00    -0.180 F 
ATOM     27  F   LIG    1        1.291   2.439   7.395  0.00  0.00    -0.170 F 
ENDBRANCH  23  24
ENDBRANCH  20  23
ENDBRANCH   3  17
TORSDOF 5
