REMARK  Name = ZINCvU000000054G.0
REMARK                            x       y       z     vdW  Elec       q    Type
REMARK                         _______ _______ _______ _____ _____    ______ ____
ROOT
ATOM      1  O   LIG    1        4.195  -4.205   0.338  0.00  0.00    -0.490 OA
ATOM      2  C   LIG    1        3.458  -3.245   0.421  0.00  0.00    +0.570 C 
ATOM      3  N   LIG    1        2.125  -3.408   0.302  0.00  0.00    -0.470 N 
ATOM      4  N   LIG    1        1.165  -2.388   0.308  0.00  0.00    -0.220 NA
ATOM      5  C   LIG    1       -0.022  -2.797   0.025  0.00  0.00    +0.140 C 
ATOM      6  C   LIG    1       -1.265  -2.127   0.111  0.00  0.00    -0.080 C 
ATOM      7  C   LIG    1       -2.554  -2.887   0.028  0.00  0.00    +0.090 C 
ATOM      8  C   LIG    1       -2.395  -4.339  -0.378  0.00  0.00    +0.020 C 
ATOM      9  C   LIG    1       -1.110  -4.977   0.144  0.00  0.00    +0.050 C 
ATOM     10  C   LIG    1       -1.290  -0.789   0.275  0.00  0.00    +0.090 C 
ATOM     11  C   LIG    1        0.079  -4.237  -0.473  0.00  0.00    +0.010 C 
ATOM     12  C   LIG    1        1.413  -4.696   0.140  0.00  0.00    +0.260 C 
ENDROOT
BRANCH  10  13
ATOM     13  C   LIG    1       -0.046  -0.011   0.167  0.00  0.00    -0.080 A 
ATOM     14  C   LIG    1        0.210   1.033   1.062  0.00  0.00    +0.030 A 
ATOM     15  C   LIG    1        1.379   1.757   0.955  0.00  0.00    -0.010 A 
ATOM     16  C   LIG    1        2.297   1.454  -0.036  0.00  0.00    +0.040 A 
ATOM     17  C   LIG    1        2.051   0.422  -0.925  0.00  0.00    -0.020 A 
ATOM     18  C   LIG    1        0.887  -0.311  -0.831  0.00  0.00    +0.050 A 
ENDBRANCH  10  13
BRANCH  12  19
ATOM     19  C   LIG    1        2.155  -5.609  -0.802  0.00  0.00    -0.080 A 
ATOM     20  C   LIG    1        2.768  -5.090  -1.927  0.00  0.00    +0.020 A 
ATOM     21  C   LIG    1        3.452  -5.927  -2.789  0.00  0.00    +0.010 A 
ATOM     22  C   LIG    1        3.516  -7.283  -2.531  0.00  0.00    +0.010 A 
ATOM     23  C   LIG    1        2.900  -7.803  -1.408  0.00  0.00    +0.000 A 
ATOM     24  C   LIG    1        2.219  -6.965  -0.544  0.00  0.00    +0.020 A 
ENDBRANCH  12  19
BRANCH   2  25
ATOM     25  C   LIG    1        4.031  -1.872   0.657  0.00  0.00    +0.120 C 
BRANCH  25  26
ATOM     26  S   LIG    1        5.808  -2.007   0.976  0.00  0.00    +0.100 S 
BRANCH  26  27
ATOM     27  C   LIG    1        6.207  -0.307   1.210  0.00  0.00    -0.020 A 
ATOM     28  N   LIG    1        5.375   0.695   1.143  0.00  0.00    -0.260 NA
ATOM     29  N   LIG    1        5.836   1.851   1.344  0.00  0.00    -0.250 NA
ATOM     30  C   LIG    1        7.100   1.966   1.591  0.00  0.00    +0.220 A 
ATOM     31  S   LIG    1        7.806   0.348   1.570  0.00  0.00    +0.120 S 
ENDBRANCH  26  27
ENDBRANCH  25  26
ENDBRANCH   2  25
TORSDOF 5
