REMARK  Name = ZINCqH0000001PwQ.0
REMARK                            x       y       z     vdW  Elec       q    Type
REMARK                         _______ _______ _______ _____ _____    ______ ____
ROOT
ATOM      1  C   LIG    1       -2.128   3.829  -9.609  0.00  0.00    -0.050 A 
ATOM      2  C   LIG    1       -2.432   2.617  -8.983  0.00  0.00    +0.090 A 
ATOM      3  C   LIG    1       -2.183   2.457  -7.639  0.00  0.00    +0.000 A 
ATOM      4  C   LIG    1       -1.628   3.499  -6.903  0.00  0.00    +0.180 A 
ATOM      5  C   LIG    1       -1.329   4.708  -7.522  0.00  0.00    +0.020 A 
ATOM      6  C   LIG    1       -1.571   4.874  -8.868  0.00  0.00    +0.100 A 
ENDROOT
BRANCH   1  10
ATOM      7  C   LIG    1       -2.555   4.784 -13.017  0.00  0.00    +0.180 A 
ATOM      8  N   LIG    1       -3.003   3.563 -13.001  0.00  0.00    -0.380 NA
ATOM      9  O   LIG    1       -2.921   3.095 -11.886  0.00  0.00    +0.080 OA
ATOM     10  C   LIG    1       -2.393   4.004 -11.051  0.00  0.00    +0.230 A 
ATOM     11  N   LIG    1       -2.163   5.089 -11.770  0.00  0.00    -0.470 NA
BRANCH   7  13
ATOM     12  C   LIG    1       -1.614   5.058 -15.295  0.00  0.00    +0.040 C 
ATOM     13  C   LIG    1       -2.494   5.694 -14.217  0.00  0.00    +0.090 C 
ATOM     14  C   LIG    1       -3.905   5.905 -14.769  0.00  0.00    +0.040 C 
ENDBRANCH   7  13
ENDBRANCH   1  10
BRANCH   4  15
ATOM     15  N   LIG    1       -1.377   3.333  -5.541  0.00  0.00    -0.650 N 
ATOM     16  H   LIG    1       -1.964   2.779  -5.004  0.00  0.00    +0.430 HD
ATOM     17  C   LIG    1       -0.319   3.944  -4.972  0.00  0.00    +0.580 C 
ATOM     18  O   LIG    1        0.470   4.560  -5.661  0.00  0.00    -0.490 OA
BRANCH  17  19
ATOM     19  C   LIG    1       -0.117   3.864  -3.504  0.00  0.00    +0.130 A 
ATOM     20  C   LIG    1        0.974   4.491  -2.903  0.00  0.00    -0.010 A 
ATOM     21  C   LIG    1        1.117   4.386  -1.526  0.00  0.00    +0.340 A 
ATOM     22  N   LIG    1        0.218   3.704  -0.836  0.00  0.00    -0.500 NA
ATOM     23  C   LIG    1       -0.800   3.119  -1.437  0.00  0.00    +0.360 A 
ATOM     24  N   LIG    1       -0.975   3.192  -2.739  0.00  0.00    -0.490 NA
BRANCH  23  25
ATOM     25  C   LIG    1       -1.794   2.348  -0.608  0.00  0.00    +0.020 C 
ATOM     26  C   LIG    1       -1.270   1.160   0.201  0.00  0.00    +0.060 C 
ATOM     27  C   LIG    1       -1.674   2.451   0.915  0.00  0.00    +0.060 C 
ENDBRANCH  23  25
ENDBRANCH  17  19
ENDBRANCH   4  15
TORSDOF 5
