REMARK  Name = ZINCrD00000l0wI7.0
REMARK                            x       y       z     vdW  Elec       q    Type
REMARK                         _______ _______ _______ _____ _____    ______ ____
ROOT
ATOM      1  C   LIG    1        2.842  -0.175   4.258  0.00  0.00    +0.090 A 
ATOM      2  C   LIG    1        4.076   0.120   4.670  0.00  0.00    -0.120 A 
ATOM      3  S   LIG    1        4.143  -0.126   6.413  0.00  0.00    +0.260 S 
ATOM      4  C   LIG    1        2.501  -0.603   6.419  0.00  0.00    +0.250 A 
ATOM      5  N   LIG    1        2.019  -0.554   5.217  0.00  0.00    -0.490 NA
ENDROOT
BRANCH   4   6
ATOM      6  N   LIG    1        1.787  -0.982   7.549  0.00  0.00    -0.620 N 
ATOM      7  H   LIG    1        0.855  -1.240   7.469  0.00  0.00    +0.420 HD
ATOM      8  C   LIG    1        2.388  -0.991   8.755  0.00  0.00    +0.560 C 
ATOM      9  O   LIG    1        3.556  -0.668   8.854  0.00  0.00    -0.500 OA
BRANCH   8  10
ATOM     10  C   LIG    1        1.628  -1.394   9.957  0.00  0.00    -0.110 A 
ATOM     11  C   LIG    1        0.287  -1.766   9.845  0.00  0.00    +0.020 A 
ATOM     12  C   LIG    1       -0.420  -2.142  10.969  0.00  0.00    +0.050 A 
ATOM     13  C   LIG    1        0.196  -2.152  12.207  0.00  0.00    -0.080 A 
ATOM     14  C   LIG    1        1.530  -1.784  12.328  0.00  0.00    +0.120 A 
ATOM     15  C   LIG    1       -0.583  -2.565  13.429  0.00  0.00    +0.120 C 
ATOM     16  C   LIG    1        2.250  -1.411  11.206  0.00  0.00    +0.010 A 
BRANCH  14  17
ATOM     17  O   LIG    1        2.130  -1.797  13.547  0.00  0.00    -0.310 OA
ATOM     18  C   LIG    1        3.504  -1.407  13.598  0.00  0.00    +0.250 C 
ENDBRANCH  14  17
ENDBRANCH   8  10
ENDBRANCH   4   6
BRANCH   1  19
ATOM     19  C   LIG    1        2.421  -0.077   2.814  0.00  0.00    +0.280 C 
BRANCH  19  26
ATOM     20  N   LIG    1        1.367  -1.676   1.111  0.00  0.00    -0.490 N 
ATOM     21  C   LIG    1        0.952  -2.958   1.091  0.00  0.00    +0.470 A 
ATOM     22  N   LIG    1        1.169  -3.472   2.320  0.00  0.00    -0.480 N 
ATOM     23  H   LIG    1        0.969  -4.377   2.608  0.00  0.00    +0.470 HD
ATOM     24  N   LIG    1        1.736  -2.457   3.102  0.00  0.00    -0.250 NA
ATOM     25  S   LIG    1        0.273  -3.782  -0.247  0.00  0.00    -0.580 S 
ATOM     26  C   LIG    1        1.851  -1.398   2.366  0.00  0.00    +0.280 A 
BRANCH  20  27
ATOM     27  C   LIG    1        1.317  -0.740  -0.015  0.00  0.00    +0.380 C 
BRANCH  27  29
ATOM     28  C   LIG    1       -0.016   1.306   0.009  0.00  0.00    +0.050 C 
ATOM     29  C   LIG    1        0.002  -0.004   0.002  0.00  0.00    -0.060 C 
ENDBRANCH  27  29
ENDBRANCH  20  27
ENDBRANCH  19  26
ENDBRANCH   1  19
TORSDOF 7
