REMARK  Name = ZINCpk000005RvvZ.0
REMARK                            x       y       z     vdW  Elec       q    Type
REMARK                         _______ _______ _______ _____ _____    ______ ____
ROOT
ATOM      1  C   LIG    1        0.002  -0.004   0.002  0.00  0.00    -0.010 C 
ATOM      2  C   LIG    1        1.229  -0.304   0.904  0.00  0.00    +0.030 C 
ATOM      3  C   LIG    1        2.202   0.841   0.555  0.00  0.00    +0.240 C 
ATOM      4  N   LIG    1        1.401   1.942  -0.001  0.00  0.00    -0.620 N 
ATOM      5  C   LIG    1        1.884   3.118  -0.448  0.00  0.00    +0.530 C 
ATOM      6  O   LIG    1        1.127   3.957  -0.888  0.00  0.00    -0.520 OA
ATOM      7  C   LIG    1       -0.019   1.545   0.011  0.00  0.00    +0.280 C 
ENDROOT
BRANCH   1   8
ATOM      8  C   LIG    1       -1.280  -0.573   0.612  0.00  0.00    +0.350 C 
BRANCH   8  11
ATOM      9  C   LIG    1       -1.363  -4.156   0.920  0.00  0.00    +0.050 A 
ATOM     10  C   LIG    1       -1.427  -2.919   1.491  0.00  0.00    +0.190 A 
ATOM     11  N   LIG    1       -1.279  -2.032   0.479  0.00  0.00    -0.290 N 
ATOM     12  N   LIG    1       -1.141  -2.687  -0.620  0.00  0.00    -0.070 NA
ATOM     13  N   LIG    1       -1.180  -3.953  -0.397  0.00  0.00    -0.250 NA
BRANCH   9  16
ATOM     14  C   LIG    1       -2.297  -6.852  -0.369  0.00  0.00    +0.200 C 
ATOM     15  C   LIG    1       -1.876  -6.634   1.061  0.00  0.00    -0.000 A 
ATOM     16  C   LIG    1       -1.473  -5.465   1.614  0.00  0.00    +0.050 A 
ATOM     17  N   LIG    1       -1.184  -5.710   2.911  0.00  0.00    -0.480 NA
ATOM     18  C   LIG    1       -1.404  -6.969   3.156  0.00  0.00    +0.430 A 
ATOM     19  O   LIG    1       -1.829  -7.565   2.034  0.00  0.00    -0.200 OA
ENDBRANCH   9  16
ENDBRANCH   8  11
ENDBRANCH   1   8
BRANCH   5  20
ATOM     20  C   LIG    1        3.365   3.391  -0.400  0.00  0.00    +0.040 C 
BRANCH  20  21
ATOM     21  C   LIG    1        3.646   4.786  -0.962  0.00  0.00    +0.230 C 
BRANCH  21  22
ATOM     22  C   LIG    1        5.131   5.113  -0.799  0.00  0.00    -0.060 C 
ATOM     23  C   LIG    1        5.502   5.077   0.685  0.00  0.00    +0.030 C 
ATOM     24  C   LIG    1        5.411   6.508  -1.361  0.00  0.00    +0.030 C 
ENDBRANCH  21  22
BRANCH  21  25
ATOM     25  O   LIG    1        3.300   4.819  -2.348  0.00  0.00    -0.540 OA
ATOM     26  H   LIG    1        3.792   4.188  -2.891  0.00  0.00    +0.370 HD
ENDBRANCH  21  25
ENDBRANCH  20  21
ENDBRANCH   5  20
TORSDOF 7
