REMARK  Name = ZINCvU0000000Fky.0
REMARK                            x       y       z     vdW  Elec       q    Type
REMARK                         _______ _______ _______ _____ _____    ______ ____
ROOT
ATOM      1  C   LIG    1        3.007   1.042   1.166  0.00  0.00    +0.370 A 
ATOM      2  N   LIG    1        4.150   0.406   1.227  0.00  0.00    -0.520 NA
ATOM      3  C   LIG    1        4.815   0.035   0.107  0.00  0.00    +0.160 A 
ATOM      4  C   LIG    1        6.035  -0.643   0.173  0.00  0.00    +0.030 A 
ATOM      5  C   LIG    1        6.679  -1.001  -0.990  0.00  0.00    +0.070 A 
ATOM      6  C   LIG    1        6.132  -0.696  -2.229  0.00  0.00    +0.000 A 
ATOM      7  C   LIG    1        4.931  -0.029  -2.321  0.00  0.00    +0.100 A 
ATOM      8  C   LIG    1        4.261   0.344  -1.156  0.00  0.00    -0.190 A 
ATOM      9  C   LIG    1        2.975   1.053  -1.196  0.00  0.00    +0.560 A 
ATOM     10  O   LIG    1        2.446   1.342  -2.253  0.00  0.00    -0.490 OA
ATOM     11  N   LIG    1        2.403   1.378  -0.013  0.00  0.00    -0.480 N 
ENDROOT
BRANCH  11  12
ATOM     12  C   LIG    1        1.178   2.060   0.002  0.00  0.00    +0.050 A 
ATOM     13  C   LIG    1        1.154   3.447   0.009  0.00  0.00    +0.080 A 
ATOM     14  C   LIG    1       -0.055   4.116   0.024  0.00  0.00    +0.020 A 
ATOM     15  C   LIG    1       -1.241   3.406   0.032  0.00  0.00    +0.070 A 
ATOM     16  C   LIG    1       -1.222   2.023   0.019  0.00  0.00    +0.000 A 
ATOM     17  C   LIG    1       -0.016   1.347   0.009  0.00  0.00    +0.130 A 
ATOM     18  F   LIG    1        0.002  -0.004   0.002  0.00  0.00    -0.130 F 
ENDBRANCH  11  12
BRANCH   1  19
ATOM     19  S   LIG    1        2.211   1.486   2.674  0.00  0.00    +0.070 S 
BRANCH  19  21
ATOM     20  C   LIG    1        4.724   1.583   3.741  0.00  0.00    +0.110 C 
ATOM     21  C   LIG    1        3.402   0.823   3.865  0.00  0.00    +0.150 C 
BRANCH  21  22
ATOM     22  C   LIG    1        2.859   0.985   5.262  0.00  0.00    +0.170 A 
ATOM     23  N   LIG    1        2.296   2.054   5.749  0.00  0.00    -0.250 NA
ATOM     24  N   LIG    1        1.949   1.841   6.969  0.00  0.00    -0.260 NA
ATOM     25  C   LIG    1        2.289   0.617   7.309  0.00  0.00    +0.250 A 
ATOM     26  O   LIG    1        2.873   0.052   6.232  0.00  0.00    -0.210 OA
BRANCH  25  27
ATOM     27  C   LIG    1        2.075  -0.017   8.618  0.00  0.00    -0.160 A 
ATOM     28  C   LIG    1        1.483   0.574   9.692  0.00  0.00    +0.110 A 
ATOM     29  C   LIG    1        1.397  -0.228  10.809  0.00  0.00    +0.020 A 
ATOM     30  C   LIG    1        1.905  -1.456  10.668  0.00  0.00    -0.010 A 
ATOM     31  S   LIG    1        2.537  -1.661   9.040  0.00  0.00    +0.180 S 
ENDBRANCH  25  27
ENDBRANCH  21  22
ENDBRANCH  19  21
ENDBRANCH   1  19
TORSDOF 5
