REMARK  Name = ZINCvU00000009cO.0
REMARK                            x       y       z     vdW  Elec       q    Type
REMARK                         _______ _______ _______ _____ _____    ______ ____
ROOT
ATOM      1  C   LIG    1        3.026   4.085  -0.021  0.00  0.00    +0.110 C 
ENDROOT
BRANCH   1   4
ATOM      2  N   LIG    1        3.820   6.428   0.004  0.00  0.00    -0.660 N 
ATOM      3  H   LIG    1        2.894   6.711  -0.054  0.00  0.00    +0.420 HD
ATOM      4  C   LIG    1        4.126   5.116  -0.013  0.00  0.00    +0.540 C 
ATOM      5  O   LIG    1        5.287   4.764  -0.023  0.00  0.00    -0.500 OA
BRANCH   2  10
ATOM      6  C   LIG    1        7.069   8.104  -0.402  0.00  0.00    -0.640 A 
ATOM      7  C   LIG    1        6.852   9.271   0.306  0.00  0.00    +0.140 A 
ATOM      8  C   LIG    1        5.630   9.499   0.914  0.00  0.00    +0.040 A 
ATOM      9  C   LIG    1        4.623   8.558   0.816  0.00  0.00    -0.010 A 
ATOM     10  C   LIG    1        4.838   7.383   0.105  0.00  0.00    +0.130 A 
ATOM     11 CL   LIG    1        3.090   8.843   1.580  0.00  0.00    -0.050 Cl
ATOM     12  C   LIG    1        6.067   7.157  -0.499  0.00  0.00    +0.160 A 
BRANCH   6  14
ATOM     13  C   LIG    1        9.611   6.969   0.089  0.00  0.00    -0.240 C 
ATOM     14  S   LIG    1        8.626   7.820  -1.175  0.00  0.00    +2.500 S 
ATOM     15  O   LIG    1        9.141   9.123  -1.415  0.00  0.00    -0.930 OA
ATOM     16  O   LIG    1        8.328   6.940  -2.250  0.00  0.00    -0.930 OA
ENDBRANCH   6  14
ENDBRANCH   2  10
ENDBRANCH   1   4
BRANCH   1  17
ATOM     17  S   LIG    1        3.753   2.428  -0.044  0.00  0.00    +0.070 S 
BRANCH  17  18
ATOM     18  C   LIG    1        2.287   1.451  -0.049  0.00  0.00    +0.190 A 
ATOM     19  C   LIG    1        2.364   0.033  -0.066  0.00  0.00    -0.160 A 
ATOM     20  C   LIG    1        3.516  -0.843  -0.082  0.00  0.00    +0.060 A 
ATOM     21  C   LIG    1        3.225  -2.144  -0.097  0.00  0.00    -0.120 A 
ATOM     22  S   LIG    1        1.491  -2.406  -0.091  0.00  0.00    +0.200 S 
ATOM     23  C   LIG    1        1.160  -0.680  -0.069  0.00  0.00    +0.090 A 
ATOM     24  N   LIG    1        0.004  -0.005  -0.056  0.00  0.00    -0.490 NA
ATOM     25  C   LIG    1       -0.014   1.308  -0.041  0.00  0.00    +0.540 A 
ATOM     26  N   LIG    1        1.093   2.028  -0.038  0.00  0.00    -0.530 NA
BRANCH  21  27
ATOM     27  C   LIG    1        4.233  -3.225  -0.115  0.00  0.00    -0.030 A 
ATOM     28  C   LIG    1        5.594  -2.914  -0.124  0.00  0.00    +0.030 A 
ATOM     29  C   LIG    1        6.530  -3.928  -0.135  0.00  0.00    +0.020 A 
ATOM     30  C   LIG    1        6.122  -5.250  -0.149  0.00  0.00    +0.020 A 
ATOM     31  C   LIG    1        4.775  -5.564  -0.145  0.00  0.00    +0.020 A 
ATOM     32  C   LIG    1        3.829  -4.560  -0.129  0.00  0.00    +0.010 A 
ENDBRANCH  21  27
ENDBRANCH  17  18
ENDBRANCH   1  17
TORSDOF 6
