REMARK  Name = ZINCvU00000009CO.1
REMARK                            x       y       z     vdW  Elec       q    Type
REMARK                         _______ _______ _______ _____ _____    ______ ____
ROOT
ATOM      1  C   LIG    1       -3.422  -2.537  -0.311  0.00  0.00    +0.060 A 
ATOM      2  N   LIG    1       -3.320  -3.346   0.690  0.00  0.00    -0.450 NA
ATOM      3  C   LIG    1       -3.063  -4.609   0.417  0.00  0.00    +0.080 A 
ATOM      4  C   LIG    1       -2.941  -4.881  -0.886  0.00  0.00    -0.050 A 
ATOM      5  S   LIG    1       -3.188  -3.382  -1.778  0.00  0.00    +0.160 S 
ENDROOT
BRANCH   1   6
ATOM      6  C   LIG    1       -3.711  -1.062  -0.201  0.00  0.00    +0.190 C 
BRANCH   6   9
ATOM      7  N   LIG    1       -2.427   1.041   0.019  0.00  0.00    -0.670 N 
ATOM      8  H   LIG    1       -3.271   1.512   0.106  0.00  0.00    +0.410 HD
ATOM      9  C   LIG    1       -2.414  -0.303  -0.090  0.00  0.00    +0.520 C 
ATOM     10  O   LIG    1       -1.359  -0.900  -0.098  0.00  0.00    -0.500 OA
BRANCH   7  17
ATOM     11  C   LIG    1       -2.363   3.587   1.289  0.00  0.00    +0.080 C 
ATOM     12  C   LIG    1       -1.149   3.002   0.614  0.00  0.00    -0.120 A 
ATOM     13  C   LIG    1        0.038   3.707   0.596  0.00  0.00    +0.030 A 
ATOM     14  C   LIG    1        1.153   3.171  -0.024  0.00  0.00    -0.010 A 
ATOM     15  C   LIG    1        1.082   1.928  -0.626  0.00  0.00    +0.030 A 
ATOM     16  C   LIG    1       -0.102   1.218  -0.610  0.00  0.00    +0.010 A 
ATOM     17  C   LIG    1       -1.224   1.755   0.006  0.00  0.00    +0.150 A 
ENDBRANCH   7  17
ENDBRANCH   6   9
ENDBRANCH   1   6
BRANCH   3  18
ATOM     18  C   LIG    1       -2.919  -5.661   1.486  0.00  0.00    +0.200 C 
BRANCH  18  19
ATOM     19  S   LIG    1       -4.535  -6.403   1.825  0.00  0.00    -0.010 S 
BRANCH  19  20
ATOM     20  C   LIG    1       -4.085  -7.561   3.074  0.00  0.00    +0.190 A 
ATOM     21  N   LIG    1       -2.874  -7.751   3.545  0.00  0.00    -0.470 NA
ATOM     22  C   LIG    1       -2.909  -8.708   4.487  0.00  0.00    +0.020 A 
ATOM     23  C   LIG    1       -4.176  -9.140   4.605  0.00  0.00    -0.010 A 
ATOM     24  C   LIG    1       -4.675 -10.212   5.538  0.00  0.00    +0.160 C 
ATOM     25  N   LIG    1       -4.932  -8.416   3.710  0.00  0.00    -0.550 N 
ATOM     26  H   LIG    1       -5.887  -8.499   3.561  0.00  0.00    +0.420 HD
BRANCH  22  27
ATOM     27  C   LIG    1       -1.727  -9.217   5.272  0.00  0.00    +0.180 C 
BRANCH  27  28
ATOM     28  C   LIG    1       -1.092 -10.368   4.535  0.00  0.00    -0.070 A 
ATOM     29  C   LIG    1       -1.512 -11.662   4.781  0.00  0.00    +0.000 A 
ATOM     30  C   LIG    1       -0.932 -12.717   4.102  0.00  0.00    +0.000 A 
ATOM     31  C   LIG    1        0.073 -12.479   3.184  0.00  0.00    +0.000 A 
ATOM     32  C   LIG    1        0.497 -11.186   2.942  0.00  0.00    +0.000 A 
ATOM     33  C   LIG    1       -0.086 -10.130   3.617  0.00  0.00    +0.010 A 
ENDBRANCH  27  28
ENDBRANCH  22  27
ENDBRANCH  19  20
ENDBRANCH  18  19
ENDBRANCH   3  18
TORSDOF 8
