REMARK  Name = ZINCrD0000071fWu.0
REMARK                            x       y       z     vdW  Elec       q    Type
REMARK                         _______ _______ _______ _____ _____    ______ ____
ROOT
ATOM      1  C   LIG    1        3.661   0.826   2.317  0.00  0.00    +0.530 C 
ATOM      2  N   LIG    1        2.495   0.618   1.674  0.00  0.00    -0.720 N 
ATOM      3  H   LIG    1        1.678   0.486   2.180  0.00  0.00    +0.400 HD
ATOM      4  O   LIG    1        4.682   0.991   1.685  0.00  0.00    -0.520 OA
ENDROOT
BRANCH   2   5
ATOM      5  C   LIG    1        2.462   0.591   0.209  0.00  0.00    +0.270 C 
ATOM      6  C   LIG    1        2.303   2.018  -0.331  0.00  0.00    +0.030 C 
ATOM      7  C   LIG    1        1.069   2.651   0.314  0.00  0.00    +0.070 C 
ATOM      8  C   LIG    1       -0.116   1.740   0.185  0.00  0.00    +0.520 C 
ATOM      9  N   LIG    1       -0.013   0.429  -0.056  0.00  0.00    -0.710 N 
ATOM     10  H   LIG    1       -0.824  -0.101  -0.095  0.00  0.00    +0.400 HD
ATOM     11  O   LIG    1       -1.225   2.218   0.301  0.00  0.00    -0.550 OA
ATOM     12  C   LIG    1        1.267  -0.237  -0.264  0.00  0.00    +0.130 C 
ATOM     13  C   LIG    1        1.444  -0.802  -1.680  0.00  0.00    +0.030 C 
ATOM     14  C   LIG    1        2.104  -2.026  -1.023  0.00  0.00    +0.030 C 
ATOM     15  C   LIG    1        1.295  -1.687   0.241  0.00  0.00    +0.030 C 
ENDBRANCH   2   5
BRANCH   1  16
ATOM     16  C   LIG    1        3.695   0.854   3.824  0.00  0.00    -0.030 C 
ATOM     17  C   LIG    1        3.079  -0.434   4.372  0.00  0.00    +0.050 C 
ATOM     18  C   LIG    1        2.896   2.057   4.330  0.00  0.00    +0.060 C 
BRANCH  16  22
ATOM     19  C   LIG    1        7.745   1.174   5.151  0.00  0.00    +0.130 A 
ATOM     20  C   LIG    1        6.852   2.210   5.388  0.00  0.00    -0.020 A 
ATOM     21  C   LIG    1        5.543   2.104   4.958  0.00  0.00    +0.060 A 
ATOM     22  C   LIG    1        5.123   0.967   4.292  0.00  0.00    -0.100 A 
ATOM     23  C   LIG    1        6.009  -0.068   4.059  0.00  0.00    +0.070 A 
ATOM     24  C   LIG    1        7.320   0.035   4.482  0.00  0.00    -0.080 A 
BRANCH  19  25
ATOM     25  O   LIG    1        9.032   1.276   5.572  0.00  0.00    -0.310 OA
BRANCH  25  26
ATOM     26  C   LIG    1        9.896   0.172   5.294  0.00  0.00    +0.180 C 
BRANCH  26  28
ATOM     27  C   LIG    1       12.185  -0.762   5.653  0.00  0.00    +0.040 C 
ATOM     28  C   LIG    1       11.294   0.468   5.840  0.00  0.00    -0.010 C 
ATOM     29  C   LIG    1       11.897   1.653   5.084  0.00  0.00    +0.020 C 
ENDBRANCH  26  28
ENDBRANCH  25  26
ENDBRANCH  19  25
ENDBRANCH  16  22
ENDBRANCH   1  16
TORSDOF 6
