REMARK  Name = ZINCvU00000004f2.0
REMARK                            x       y       z     vdW  Elec       q    Type
REMARK                         _______ _______ _______ _____ _____    ______ ____
ROOT
ATOM      1  C   LIG    1       -1.290   1.926   0.019  0.00  0.00    -0.140 A 
ATOM      2  C   LIG    1       -1.950   2.292   1.176  0.00  0.00    +0.120 A 
ATOM      3  S   LIG    1       -3.444   3.129   0.791  0.00  0.00    +0.120 S 
ATOM      4  C   LIG    1       -3.167   2.978  -0.935  0.00  0.00    -0.130 A 
ATOM      5  C   LIG    1       -1.990   2.327  -1.183  0.00  0.00    +0.020 A 
ENDROOT
BRANCH   5   6
ATOM      6  C   LIG    1       -1.483   2.056  -2.546  0.00  0.00    -0.040 A 
ATOM      7  C   LIG    1       -1.828   0.871  -3.198  0.00  0.00    +0.060 A 
ATOM      8  C   LIG    1       -1.356   0.626  -4.471  0.00  0.00    +0.010 A 
ATOM      9  C   LIG    1       -0.535   1.546  -5.098  0.00  0.00    +0.030 A 
ATOM     10  C   LIG    1       -0.185   2.721  -4.455  0.00  0.00    +0.030 A 
ATOM     11  C   LIG    1       -0.654   2.981  -3.183  0.00  0.00    -0.010 A 
ATOM     12 CL   LIG    1       -0.213   4.455  -2.378  0.00  0.00    -0.050 Cl
ENDBRANCH   5   6
BRANCH   1  13
ATOM     13  C   LIG    1       -0.014   1.212   0.009  0.00  0.00    +0.560 C 
ATOM     14  O   LIG    1        0.002  -0.004   0.002  0.00  0.00    -0.500 OA
BRANCH  13  15
ATOM     15  O   LIG    1        1.145   1.903   0.001  0.00  0.00    -0.340 OA
BRANCH  15  17
ATOM     16  C   LIG    1        3.554   2.090  -0.021  0.00  0.00    +0.070 C 
ATOM     17  C   LIG    1        2.354   1.141  -0.014  0.00  0.00    +0.190 C 
ENDBRANCH  15  17
ENDBRANCH  13  15
ENDBRANCH   1  13
BRANCH   4  18
ATOM     18  C   LIG    1       -4.069   3.486  -1.969  0.00  0.00    +0.250 C 
ATOM     19  N   LIG    1       -5.167   4.099  -1.631  0.00  0.00    -0.230 NA
BRANCH  19  20
ATOM     20  N   LIG    1       -6.032   4.585  -2.621  0.00  0.00    -0.580 N 
ATOM     21  H   LIG    1       -5.812   4.465  -3.558  0.00  0.00    +0.390 HD
BRANCH  20  22
ATOM     22  C   LIG    1       -7.207   5.242  -2.259  0.00  0.00    +0.210 A 
ATOM     23  C   LIG    1       -7.526   5.410  -0.916  0.00  0.00    -0.030 A 
ATOM     24  C   LIG    1       -8.690   6.065  -0.562  0.00  0.00    +0.040 A 
ATOM     25  C   LIG    1       -9.541   6.544  -1.540  0.00  0.00    -0.040 A 
ATOM     26  C   LIG    1       -9.229   6.375  -2.877  0.00  0.00    +0.040 A 
ATOM     27  C   LIG    1       -8.066   5.725  -3.240  0.00  0.00    -0.060 A 
ENDBRANCH  20  22
ENDBRANCH  19  20
ENDBRANCH   4  18
BRANCH   2  28
ATOM     28  N   LIG    1       -1.506   2.042   2.428  0.00  0.00    -0.550 NA
ATOM     29  C   LIG    1       -2.208   2.433   3.460  0.00  0.00    +0.540 C 
BRANCH  29  30
ATOM     30  N   LIG    1       -1.761   2.180   4.723  0.00  0.00    -0.580 N 
ATOM     31  C   LIG    1       -2.547   2.617   5.880  0.00  0.00    +0.300 C 
ATOM     32  C   LIG    1       -0.494   1.472   4.924  0.00  0.00    +0.300 C 
ENDBRANCH  29  30
ENDBRANCH   2  28
TORSDOF 9
