REMARK  Name = ZINCrD000000BxdO.0
REMARK                            x       y       z     vdW  Elec       q    Type
REMARK                         _______ _______ _______ _____ _____    ______ ____
ROOT
ATOM      1  O   LIG    1       -1.077   1.937   0.018  0.00  0.00    -0.580 OA
ATOM      2  C   LIG    1       -0.016   1.344   0.009  0.00  0.00    +0.710 C 
ATOM      3  N   LIG    1        0.002  -0.004   0.002  0.00  0.00    -0.740 N 
ATOM      4  H   LIG    1        0.849  -0.478  -0.009  0.00  0.00    +0.390 HD
ATOM      5  N   LIG    1        1.142   2.033   0.002  0.00  0.00    -0.740 N 
ATOM      6  H   LIG    1        1.988   1.560  -0.009  0.00  0.00    +0.400 HD
ENDROOT
BRANCH   3   7
ATOM      7  C   LIG    1       -1.256  -0.754   0.010  0.00  0.00    +0.250 C 
ATOM      8  C   LIG    1       -1.745  -0.914   1.451  0.00  0.00    +0.020 C 
ATOM      9  C   LIG    1       -0.695  -1.673   2.264  0.00  0.00    +0.000 C 
ATOM     10  C   LIG    1       -0.470  -3.054   1.645  0.00  0.00    +0.180 C 
ATOM     11  C   LIG    1        0.019  -2.893   0.204  0.00  0.00    +0.040 C 
ATOM     12  C   LIG    1       -1.032  -2.135  -0.609  0.00  0.00    +0.040 C 
BRANCH  10  13
ATOM     13  C   LIG    1        0.565  -3.801   2.446  0.00  0.00    -0.160 A 
ATOM     14  C   LIG    1        0.185  -4.596   3.516  0.00  0.00    +0.060 A 
ATOM     15  C   LIG    1        1.171  -5.270   4.221  0.00  0.00    -0.030 A 
ATOM     16  C   LIG    1        2.491  -5.118   3.844  0.00  0.00    +0.260 A 
ATOM     17  N   LIG    1        2.817  -4.348   2.823  0.00  0.00    -0.480 NA
ATOM     18  C   LIG    1        1.906  -3.698   2.127  0.00  0.00    +0.250 A 
ENDBRANCH  10  13
BRANCH  10  19
ATOM     19  O   LIG    1       -1.697  -3.785   1.653  0.00  0.00    -0.540 OA
ATOM     20  H   LIG    1       -2.066  -3.925   2.536  0.00  0.00    +0.380 HD
ENDBRANCH  10  19
ENDBRANCH   3   7
BRANCH   5  21
ATOM     21  C   LIG    1        1.122   3.498   0.010  0.00  0.00    +0.410 C 
BRANCH  21  22
ATOM     22  C   LIG    1        2.536   4.020  -0.001  0.00  0.00    +0.060 A 
ATOM     23  N   LIG    1        3.203   4.269  -1.063  0.00  0.00    -0.440 NA
ATOM     24  C   LIG    1        4.458   4.736  -0.923  0.00  0.00    +0.080 A 
ATOM     25  C   LIG    1        5.401   5.093  -1.908  0.00  0.00    +0.080 A 
ATOM     26  C   LIG    1        6.635   5.544  -1.549  0.00  0.00    +0.030 A 
ATOM     27  C   LIG    1        6.988   5.662  -0.213  0.00  0.00    +0.050 A 
ATOM     28  C   LIG    1        6.086   5.322   0.771  0.00  0.00    +0.060 A 
ATOM     29  C   LIG    1        4.820   4.858   0.423  0.00  0.00    -0.180 A 
ATOM     30  S   LIG    1        3.450   4.344   1.403  0.00  0.00    +0.120 S 
ENDBRANCH  21  22
ENDBRANCH   5  21
TORSDOF 5
