REMARK  Name = ZINCpe00000MJMbo.0
REMARK                            x       y       z     vdW  Elec       q    Type
REMARK                         _______ _______ _______ _____ _____    ______ ____
ROOT
ATOM      1  C   LIG    1       -0.013   1.086   0.008  0.00  0.00    +0.260 C 
ATOM      2  O   LIG    1       -0.680   1.547   1.184  0.00  0.00    -0.370 OA
ATOM      3  C   LIG    1       -0.083   1.106   2.405  0.00  0.00    +0.220 C 
ATOM      4  C   LIG    1        1.351   1.637   2.491  0.00  0.00    -0.010 C 
ATOM      5  C   LIG    1        2.140   1.154   1.270  0.00  0.00    +0.020 C 
ATOM      6  C   LIG    1        1.423   1.616  -0.003  0.00  0.00    -0.040 C 
ENDROOT
BRANCH   1  11
ATOM      7  N   LIG    1       -1.525   2.682  -1.278  0.00  0.00    -0.350 N 
ATOM      8  N   LIG    1       -2.009   2.789  -2.588  0.00  0.00    -0.290 NA
ATOM      9  C   LIG    1       -1.530   1.789  -3.284  0.00  0.00    +0.230 A 
ATOM     10  C   LIG    1       -0.724   1.017  -2.441  0.00  0.00    -0.110 A 
ATOM     11  C   LIG    1       -0.742   1.585  -1.212  0.00  0.00    +0.090 A 
BRANCH   7  13
ATOM     12  C   LIG    1       -0.773   4.716  -0.148  0.00  0.00    +0.030 C 
ATOM     13  C   LIG    1       -1.818   3.599  -0.174  0.00  0.00    +0.330 C 
ENDBRANCH   7  13
ENDBRANCH   1  11
BRANCH   6  14
ATOM     14  C   LIG    1        2.159   1.073  -1.230  0.00  0.00    +0.290 C 
BRANCH  14  15
ATOM     15  N   LIG    1        3.494   1.674  -1.304  0.00  0.00    -0.710 N 
ATOM     16  H   LIG    1        3.777   2.311  -0.629  0.00  0.00    +0.410 HD
ATOM     17  C   LIG    1        4.327   1.342  -2.310  0.00  0.00    +0.590 C 
ATOM     18  O   LIG    1        3.972   0.544  -3.155  0.00  0.00    -0.520 OA
BRANCH  17  19
ATOM     19  C   LIG    1        5.673   1.949  -2.385  0.00  0.00    +0.020 A 
ATOM     20  N   LIG    1        6.055   2.812  -1.470  0.00  0.00    -0.180 NA
ATOM     21  N   LIG    1        7.213   3.365  -1.491  0.00  0.00    -0.340 N 
ATOM     22  C   LIG    1        8.111   3.095  -2.457  0.00  0.00    +0.480 A 
ATOM     23  C   LIG    1        7.780   2.178  -3.479  0.00  0.00    -0.020 A 
ATOM     24  O   LIG    1        9.204   3.638  -2.449  0.00  0.00    -0.520 OA
ATOM     25  C   LIG    1        7.567   4.318  -0.436  0.00  0.00    +0.360 C 
ATOM     26  C   LIG    1        6.549   1.594  -3.439  0.00  0.00    +0.140 A 
ENDBRANCH  17  19
ENDBRANCH  14  15
ENDBRANCH   6  14
TORSDOF 5
