REMARK  Name = ZINCrD000003RZjk.0
REMARK                            x       y       z     vdW  Elec       q    Type
REMARK                         _______ _______ _______ _____ _____    ______ ____
ROOT
ATOM      1  C   LIG    1        1.929  -2.961   1.897  0.00  0.00    +0.260 C 
ENDROOT
BRANCH   1   3
ATOM      2  C   LIG    1        2.621  -5.288   2.110  0.00  0.00    +0.530 C 
ATOM      3  N   LIG    1        1.829  -4.372   1.518  0.00  0.00    -0.710 N 
ATOM      4  H   LIG    1        1.192  -4.648   0.840  0.00  0.00    +0.400 HD
ATOM      5  O   LIG    1        3.418  -4.943   2.957  0.00  0.00    -0.520 OA
BRANCH   2   6
ATOM      6  C   LIG    1        2.518  -6.739   1.719  0.00  0.00    +0.090 C 
BRANCH   6   7
ATOM      7  S   LIG    1        3.706  -7.712   2.685  0.00  0.00    -0.030 S 
BRANCH   7  12
ATOM      8  C   LIG    1        2.808 -13.334   0.682  0.00  0.00    +0.090 C 
ATOM      9  C   LIG    1        3.033 -11.931   1.182  0.00  0.00    -0.090 A 
ATOM     10  C   LIG    1        3.982 -11.690   2.159  0.00  0.00    +0.030 A 
ATOM     11  C   LIG    1        4.190 -10.405   2.620  0.00  0.00    +0.040 A 
ATOM     12  C   LIG    1        3.444  -9.353   2.101  0.00  0.00    -0.110 A 
ATOM     13  C   LIG    1        2.487  -9.600   1.124  0.00  0.00    -0.010 A 
ATOM     14  C   LIG    1        2.288 -10.886   0.664  0.00  0.00    +0.020 A 
ENDBRANCH   7  12
ENDBRANCH   6   7
ENDBRANCH   2   6
ENDBRANCH   1   3
BRANCH   1  15
ATOM     15  C   LIG    1        0.927  -2.141   1.082  0.00  0.00    +0.050 C 
BRANCH  15  16
ATOM     16  C   LIG    1        1.157  -0.651   1.341  0.00  0.00    +0.260 C 
ATOM     17  C   LIG    1        0.070   0.164   0.632  0.00  0.00    +0.110 C 
ATOM     18  S   LIG    1        0.400   1.932   0.893  0.00  0.00    -0.250 S 
ATOM     19  C   LIG    1        2.111   2.099   0.302  0.00  0.00    +0.120 C 
ATOM     20  C   LIG    1        2.990   1.088   1.045  0.00  0.00    +0.300 C 
ATOM     21  N   LIG    1        2.472  -0.264   0.828  0.00  0.00    -0.600 N 
ATOM     22  C   LIG    1        3.212  -1.161   0.147  0.00  0.00    +0.540 C 
ATOM     23  O   LIG    1        2.744  -2.242  -0.138  0.00  0.00    -0.480 OA
BRANCH  22  24
ATOM     24  C   LIG    1        4.623  -0.820  -0.259  0.00  0.00    +0.080 C 
ATOM     25  S   LIG    1        4.665   0.798  -1.109  0.00  0.00    -0.190 S 
ATOM     26  C   LIG    1        5.941   0.444  -2.371  0.00  0.00    +0.130 C 
ATOM     27  C   LIG    1        5.579  -0.953  -2.924  0.00  0.00    +0.120 C 
ATOM     28  S   LIG    1        5.235  -2.020  -1.489  0.00  0.00    -0.170 S 
ENDBRANCH  22  24
ENDBRANCH  15  16
ENDBRANCH   1  15
TORSDOF 7
