REMARK  Name = ZINCrg00000fRPa5.0
REMARK                            x       y       z     vdW  Elec       q    Type
REMARK                         _______ _______ _______ _____ _____    ______ ____
ROOT
ATOM      1  N   LIG    1        4.823   3.025   9.013  0.00  0.00    -0.660 N 
ATOM      2  H   LIG    1        5.699   2.724   8.725  0.00  0.00    +0.430 HD
ATOM      3  C   LIG    1        3.772   2.938   8.174  0.00  0.00    +0.520 C 
ATOM      4  O   LIG    1        2.659   3.219   8.565  0.00  0.00    -0.480 OA
ENDROOT
BRANCH   1  10
ATOM      5  C   LIG    1        5.524   3.179  11.328  0.00  0.00    -0.170 A 
ATOM      6  C   LIG    1        5.345   3.715  12.605  0.00  0.00    +0.100 A 
ATOM      7  C   LIG    1        4.308   4.591  12.843  0.00  0.00    -0.010 A 
ATOM      8  C   LIG    1        3.445   4.949  11.820  0.00  0.00    +0.090 A 
ATOM      9  C   LIG    1        3.613   4.432  10.551  0.00  0.00    +0.010 A 
ATOM     10  C   LIG    1        4.652   3.548  10.292  0.00  0.00    +0.220 A 
BRANCH   5  11
ATOM     11  C   LIG    1        6.627   2.236  11.067  0.00  0.00    +0.520 C 
ATOM     12  O   LIG    1        6.838   1.846   9.936  0.00  0.00    -0.520 OA
BRANCH  11  14
ATOM     13  C   LIG    1        8.469   0.880  11.754  0.00  0.00    +0.290 C 
ATOM     14  O   LIG    1        7.401   1.808  12.084  0.00  0.00    -0.350 OA
ENDBRANCH  11  14
ENDBRANCH   5  11
ENDBRANCH   1  10
BRANCH   3  15
ATOM     15  C   LIG    1        3.979   2.490   6.750  0.00  0.00    +0.290 C 
BRANCH  15  16
ATOM     16  O   LIG    1        2.704   2.478   6.056  0.00  0.00    -0.300 OA
BRANCH  16  17
ATOM     17  C   LIG    1        2.714   2.098   4.764  0.00  0.00    +0.570 C 
ATOM     18  O   LIG    1        3.760   1.786   4.231  0.00  0.00    -0.460 OA
BRANCH  17  19
ATOM     19  C   LIG    1        1.451   2.062   3.993  0.00  0.00    +0.260 A 
ATOM     20  N   LIG    1        1.340   1.708   2.726  0.00  0.00    -0.260 NA
ATOM     21  N   LIG    1       -0.016   1.813   2.390  0.00  0.00    -0.320 N 
ATOM     22  C   LIG    1       -0.714   1.582   1.244  0.00  0.00    +0.200 A 
ATOM     23  C   LIG    1       -2.055   1.786   1.237  0.00  0.00    -0.040 A 
ATOM     24  C   LIG    1       -2.688   2.219   2.410  0.00  0.00    +0.420 A 
ATOM     25  N   LIG    1       -1.990   2.434   3.501  0.00  0.00    -0.450 NA
ATOM     26  C   LIG    1       -0.005   1.112  -0.001  0.00  0.00    +0.160 C 
ATOM     27  C   LIG    1       -0.664   2.240   3.517  0.00  0.00    +0.450 A 
ATOM     28  N   LIG    1        0.246   2.382   4.469  0.00  0.00    -0.470 NA
ENDBRANCH  17  19
ENDBRANCH  16  17
ENDBRANCH  15  16
ENDBRANCH   3  15
TORSDOF 7
