REMARK  Name = ZINCrD000000C8jj.0
REMARK                            x       y       z     vdW  Elec       q    Type
REMARK                         _______ _______ _______ _____ _____    ______ ____
ROOT
ATOM      1  O   LIG    1        5.502   3.258   0.144  0.00  0.00    -0.490 OA
ATOM      2  C   LIG    1        5.831   4.345  -0.290  0.00  0.00    +0.560 C 
ATOM      3  N   LIG    1        7.118   4.740  -0.214  0.00  0.00    -0.670 N 
ATOM      4  H   LIG    1        7.393   5.578  -0.618  0.00  0.00    +0.410 HD
ENDROOT
BRANCH   3   5
ATOM      5  C   LIG    1        8.055   3.943   0.448  0.00  0.00    +0.140 A 
ATOM      6  C   LIG    1        7.956   2.564   0.401  0.00  0.00    +0.070 A 
ATOM      7  C   LIG    1        8.886   1.764   1.051  0.00  0.00    +0.020 A 
ATOM      8  C   LIG    1        9.921   2.325   1.766  0.00  0.00    +0.080 A 
ATOM      9  C   LIG    1       10.041   3.713   1.835  0.00  0.00    -0.140 A 
ATOM     10  C   LIG    1       11.124   4.362   2.582  0.00  0.00    +0.550 A 
ATOM     11  O   LIG    1       11.955   3.693   3.169  0.00  0.00    -0.520 OA
ATOM     12  N   LIG    1       11.188   5.708   2.613  0.00  0.00    -0.630 N 
ATOM     13  H   LIG    1       11.906   6.132   3.109  0.00  0.00    +0.420 HD
ATOM     14  C   LIG    1       10.277   6.497   1.969  0.00  0.00    +0.270 A 
ATOM     15  C   LIG    1        9.256   5.985   1.263  0.00  0.00    -0.060 A 
ATOM     16  C   LIG    1        9.101   4.533   1.171  0.00  0.00    -0.020 A 
ENDBRANCH   3   5
BRANCH   2  17
ATOM     17  C   LIG    1        4.823   5.232  -0.901  0.00  0.00    -0.180 A 
ATOM     18  C   LIG    1        5.197   6.479  -1.406  0.00  0.00    +0.080 A 
ATOM     19  C   LIG    1        4.249   7.305  -1.969  0.00  0.00    -0.040 A 
ATOM     20  C   LIG    1        2.926   6.902  -2.043  0.00  0.00    +0.080 A 
ATOM     21  C   LIG    1        2.543   5.669  -1.553  0.00  0.00    -0.080 A 
ATOM     22  C   LIG    1        3.484   4.825  -0.982  0.00  0.00    +0.190 A 
BRANCH  22  23
ATOM     23  O   LIG    1        3.109   3.614  -0.500  0.00  0.00    -0.270 OA
BRANCH  23  24
ATOM     24  C   LIG    1        1.726   3.271  -0.612  0.00  0.00    +0.210 C 
BRANCH  24  25
ATOM     25  C   LIG    1        1.496   1.879  -0.019  0.00  0.00    +0.160 C 
ATOM     26  C   LIG    1       -0.014   1.531  -0.013  0.00  0.00    +0.020 C 
ATOM     27  C   LIG    1        0.010  -0.017  -0.014  0.00  0.00    +0.000 C 
ATOM     28  C   LIG    1        1.409  -0.372  -0.552  0.00  0.00    +0.190 C 
ATOM     29  O   LIG    1        2.073   0.863  -0.867  0.00  0.00    -0.360 OA
ENDBRANCH  24  25
ENDBRANCH  23  24
ENDBRANCH  22  23
ENDBRANCH   2  17
TORSDOF 5
