REMARK  Name = ZINCrH00000No4YG.0
REMARK                            x       y       z     vdW  Elec       q    Type
REMARK                         _______ _______ _______ _____ _____    ______ ____
ROOT
ATOM      1  C   LIG    1       10.685  -3.652  -0.112  0.00  0.00    +0.180 C 
ATOM      2  C   LIG    1       10.046  -2.288  -0.100  0.00  0.00    +0.120 A 
ATOM      3  N   LIG    1       10.684  -1.145  -0.101  0.00  0.00    -0.290 NA
ATOM      4  N   LIG    1        9.739  -0.111  -0.088  0.00  0.00    -0.330 N 
ATOM      5  C   LIG    1        8.500  -0.680  -0.079  0.00  0.00    +0.350 A 
ATOM      6  C   LIG    1        8.672  -2.030  -0.081  0.00  0.00    -0.080 A 
ENDROOT
BRANCH   4   7
ATOM      7  C   LIG    1       10.016   1.251  -0.085  0.00  0.00    +0.530 A 
ATOM      8  N   LIG    1        9.116   2.199  -0.073  0.00  0.00    -0.520 NA
ATOM      9  C   LIG    1        9.730   3.411  -0.073  0.00  0.00    +0.070 A 
ATOM     10  C   LIG    1        9.260   4.726  -0.064  0.00  0.00    +0.060 A 
ATOM     11  C   LIG    1       10.155   5.772  -0.067  0.00  0.00    +0.010 A 
ATOM     12  C   LIG    1       11.521   5.530  -0.079  0.00  0.00    +0.030 A 
ATOM     13  C   LIG    1       12.001   4.238  -0.089  0.00  0.00    +0.030 A 
ATOM     14  C   LIG    1       11.115   3.171  -0.086  0.00  0.00    +0.050 A 
ATOM     15  N   LIG    1       11.267   1.796  -0.088  0.00  0.00    -0.480 N 
ATOM     16  C   LIG    1       12.535   1.062  -0.096  0.00  0.00    +0.360 C 
ENDBRANCH   4   7
BRANCH   5  17
ATOM     17  N   LIG    1        7.283  -0.004  -0.065  0.00  0.00    -0.640 N 
ATOM     18  H   LIG    1        7.267   0.966  -0.060  0.00  0.00    +0.430 HD
ATOM     19  C   LIG    1        6.127  -0.697  -0.058  0.00  0.00    +0.560 C 
ATOM     20  O   LIG    1        6.148  -1.914  -0.064  0.00  0.00    -0.510 OA
BRANCH  19  21
ATOM     21  C   LIG    1        4.848   0.014  -0.043  0.00  0.00    -0.080 C 
ATOM     22  C   LIG    1        3.692  -0.680  -0.035  0.00  0.00    +0.140 C 
BRANCH  22  23
ATOM     23  C   LIG    1        2.405   0.035  -0.020  0.00  0.00    -0.090 A 
ATOM     24  C   LIG    1        1.203  -0.681  -0.013  0.00  0.00    +0.040 A 
ATOM     25  C   LIG    1        0.002  -0.004   0.002  0.00  0.00    +0.010 A 
ATOM     26  C   LIG    1       -0.017   1.380   0.010  0.00  0.00    +0.030 A 
ATOM     27  C   LIG    1        1.168   2.095   0.002  0.00  0.00    +0.010 A 
ATOM     28  C   LIG    1        2.377   1.433  -0.013  0.00  0.00    +0.030 A 
ENDBRANCH  22  23
ENDBRANCH  19  21
ENDBRANCH   5  17
TORSDOF 4
