REMARK  Name = ZINCrD0000072H5b.0
REMARK                            x       y       z     vdW  Elec       q    Type
REMARK                         _______ _______ _______ _____ _____    ______ ____
ROOT
ATOM      1  O   LIG    1        0.549   2.193   1.527  0.00  0.00    -0.330 OA
ENDROOT
BRANCH   1   2
ATOM      2  C   LIG    1        0.820   3.504   1.688  0.00  0.00    +0.520 C 
ATOM      3  O   LIG    1        0.187   4.336   1.069  0.00  0.00    -0.500 OA
BRANCH   2   7
ATOM      4  C   LIG    1        3.879   4.730   4.356  0.00  0.00    +0.310 A 
ATOM      5  C   LIG    1        3.606   3.374   4.195  0.00  0.00    -0.050 A 
ATOM      6  C   LIG    1        2.610   2.972   3.334  0.00  0.00    +0.200 A 
ATOM      7  C   LIG    1        1.884   3.928   2.616  0.00  0.00    -0.190 A 
ATOM      8  C   LIG    1        2.166   5.287   2.784  0.00  0.00    +0.230 A 
ATOM      9  C   LIG    1        3.152   5.680   3.644  0.00  0.00    -0.140 A 
BRANCH   4  11
ATOM     10  C   LIG    1        5.734   4.138   5.881  0.00  0.00    +0.300 C 
ATOM     11  N   LIG    1        4.881   5.136   5.231  0.00  0.00    -0.710 N 
ATOM     12  H   LIG    1        5.015   6.080   5.410  0.00  0.00    +0.420 HD
ENDBRANCH   4  11
BRANCH   9  13
ATOM     13  N   LIG    1        3.447   7.120   3.820  0.00  0.00    +0.050 N 
ATOM     14  O   LIG    1        4.249   7.478   4.664  0.00  0.00    -0.200 OA
ATOM     15  O   LIG    1        2.890   7.946   3.120  0.00  0.00    -0.140 OA
ENDBRANCH   9  13
ENDBRANCH   2   7
ENDBRANCH   1   2
BRANCH   1  16
ATOM     16  C   LIG    1       -0.511   1.849   0.597  0.00  0.00    +0.270 C 
BRANCH  16  17
ATOM     17  C   LIG    1       -0.669   0.351   0.548  0.00  0.00    +0.510 C 
ATOM     18  N   LIG    1       -1.601  -0.202  -0.253  0.00  0.00    -0.670 N 
ATOM     19  H   LIG    1       -2.217   0.364  -0.744  0.00  0.00    +0.410 HD
ATOM     20  O   LIG    1        0.042  -0.356   1.230  0.00  0.00    -0.490 OA
BRANCH  18  21
ATOM     21  C   LIG    1       -1.681  -1.594  -0.376  0.00  0.00    +0.130 A 
ATOM     22  C   LIG    1       -0.545  -2.331  -0.688  0.00  0.00    -0.070 A 
ATOM     23  C   LIG    1       -0.626  -3.704  -0.804  0.00  0.00    +0.020 A 
ATOM     24  C   LIG    1       -1.837  -4.346  -0.621  0.00  0.00    -0.080 A 
ATOM     25  C   LIG    1       -2.971  -3.614  -0.317  0.00  0.00    +0.010 A 
ATOM     26  C   LIG    1       -1.923  -5.844  -0.754  0.00  0.00    +0.090 C 
ATOM     27  C   LIG    1        0.774  -1.632  -0.892  0.00  0.00    +0.090 C 
ATOM     28  C   LIG    1       -2.896  -2.241  -0.194  0.00  0.00    -0.090 A 
ATOM     29  C   LIG    1       -4.131  -1.445   0.139  0.00  0.00    +0.080 C 
ENDBRANCH  18  21
ENDBRANCH  16  17
ENDBRANCH   1  16
TORSDOF 7
