REMARK  Name = ZINCpk00000e9Koa.0
REMARK                            x       y       z     vdW  Elec       q    Type
REMARK                         _______ _______ _______ _____ _____    ______ ____
ROOT
ATOM      1  C   LIG    1       -4.104   2.428   1.089  0.00  0.00    +0.590 C 
ATOM      2  N   LIG    1       -3.547   1.858   0.002  0.00  0.00    -0.580 N 
ATOM      3  C   LIG    1       -2.397   0.946   0.017  0.00  0.00    +0.240 C 
ATOM      4  C   LIG    1       -2.422   0.186  -1.322  0.00  0.00    +0.080 C 
ATOM      5  C   LIG    1       -3.111   1.169  -2.293  0.00  0.00    +0.180 C 
ATOM      6  O   LIG    1       -2.098   2.051  -2.825  0.00  0.00    -0.360 OA
ATOM      7  C   LIG    1       -2.761   3.323  -3.042  0.00  0.00    +0.200 C 
ATOM      8  C   LIG    1       -3.715   3.493  -1.839  0.00  0.00    +0.030 C 
ATOM      9  C   LIG    1       -3.995   2.050  -1.378  0.00  0.00    +0.210 C 
ATOM     10  O   LIG    1       -3.715   2.126   2.201  0.00  0.00    -0.530 OA
ENDROOT
BRANCH   1  15
ATOM     11  C   LIG    1       -6.634   5.099   1.869  0.00  0.00    +0.210 A 
ATOM     12  C   LIG    1       -7.220   5.284   0.623  0.00  0.00    -0.040 A 
ATOM     13  C   LIG    1       -6.793   4.543  -0.464  0.00  0.00    +0.050 A 
ATOM     14  C   LIG    1       -5.779   3.619  -0.319  0.00  0.00    -0.030 A 
ATOM     15  C   LIG    1       -5.187   3.421   0.930  0.00  0.00    -0.080 A 
ATOM     16  C   LIG    1       -5.618   4.169   2.027  0.00  0.00    -0.010 A 
BRANCH  11  18
ATOM     17  C   LIG    1       -6.452   5.654   4.279  0.00  0.00    +0.280 C 
ATOM     18  N   LIG    1       -7.070   5.849   2.964  0.00  0.00    -0.640 N 
ATOM     19  C   LIG    1       -8.143   6.832   2.798  0.00  0.00    +0.280 C 
ENDBRANCH  11  18
ENDBRANCH   1  15
BRANCH   3  20
ATOM     20  C   LIG    1       -1.117   1.731   0.142  0.00  0.00    +0.520 C 
ATOM     21  N   LIG    1        0.068   1.090   0.161  0.00  0.00    -0.700 N 
ATOM     22  H   LIG    1        0.097   0.122   0.094  0.00  0.00    +0.400 HD
ATOM     23  O   LIG    1       -1.153   2.941   0.226  0.00  0.00    -0.520 OA
BRANCH  21  24
ATOM     24  C   LIG    1        1.313   1.853   0.276  0.00  0.00    +0.220 C 
ATOM     25  C   LIG    1        2.475   1.452  -0.635  0.00  0.00    +0.010 C 
ATOM     26  C   LIG    1        2.531   1.135   0.861  0.00  0.00    +0.010 C 
ENDBRANCH  21  24
ENDBRANCH   3  20
TORSDOF 4
