REMARK  Name = ZINCrm00000VuSDv.1
REMARK                            x       y       z     vdW  Elec       q    Type
REMARK                         _______ _______ _______ _____ _____    ______ ____
ROOT
ATOM      1  C   LIG    1       -2.881   1.571   0.041  0.00  0.00    +0.280 C 
ATOM      2  C   LIG    1       -2.114   1.044  -1.173  0.00  0.00    +0.290 C 
ATOM      3  N   LIG    1       -0.740   1.573  -1.168  0.00  0.00    -0.380 N 
ATOM      4  C   LIG    1       -0.090   1.124  -2.400  0.00  0.00    +0.260 C 
ATOM      5  C   LIG    1        1.330   1.684  -2.487  0.00  0.00    +0.060 C 
ATOM      6  C   LIG    1        2.133   1.177  -1.284  0.00  0.00    +0.050 C 
ATOM      7  C   LIG    1        1.424   1.619  -0.003  0.00  0.00    +0.070 C 
ATOM      8  C   LIG    1       -0.013   1.086   0.008  0.00  0.00    +0.170 C 
ATOM      9  C   LIG    1       -0.689   1.583   1.293  0.00  0.00    +0.340 C 
ATOM     10  H   LIG    1       -0.767   2.582  -1.154  0.00  0.00    +0.420 HD
ATOM     11  N   LIG    1       -2.119   1.219   1.249  0.00  0.00    -0.610 N 
ATOM     12  C   LIG    1       -2.705   0.584   2.284  0.00  0.00    +0.660 C 
ATOM     13  O   LIG    1       -3.883   0.293   2.229  0.00  0.00    -0.540 OA
ENDROOT
BRANCH   1  14
ATOM     14  C   LIG    1       -3.023   3.092  -0.057  0.00  0.00    +0.280 C 
BRANCH  14  16
ATOM     15  C   LIG    1       -3.880   4.924   1.301  0.00  0.00    +0.540 C 
ATOM     16  N   LIG    1       -3.653   3.603   1.163  0.00  0.00    -0.720 N 
ATOM     17  H   LIG    1       -3.906   2.991   1.871  0.00  0.00    +0.410 HD
ATOM     18  O   LIG    1       -3.562   5.692   0.413  0.00  0.00    -0.520 OA
BRANCH  15  20
ATOM     19  C   LIG    1       -4.736   6.742   2.663  0.00  0.00    +0.020 C 
ATOM     20  C   LIG    1       -4.512   5.438   2.526  0.00  0.00    +0.000 C 
BRANCH  19  21
ATOM     21  C   LIG    1       -5.383   7.268   3.918  0.00  0.00    +0.310 C 
BRANCH  21  23
ATOM     22  C   LIG    1       -5.213   8.900   5.667  0.00  0.00    +0.330 C 
ATOM     23  N   LIG    1       -4.529   8.304   4.512  0.00  0.00    -0.390 N 
ATOM     24  C   LIG    1       -3.263   7.702   4.951  0.00  0.00    +0.320 C 
ATOM     25  H   LIG    1       -4.341   9.020   3.826  0.00  0.00    +0.430 HD
ENDBRANCH  21  23
ENDBRANCH  19  21
ENDBRANCH  15  20
ENDBRANCH  14  16
ENDBRANCH   1  14
BRANCH  12  26
ATOM     26  O   LIG    1       -1.984   0.273   3.378  0.00  0.00    -0.360 OA
BRANCH  26  27
ATOM     27  C   LIG    1       -2.681  -0.411   4.453  0.00  0.00    +0.140 C 
ATOM     28  C   LIG    1       -3.831   0.466   4.954  0.00  0.00    +0.040 C 
ATOM     29  C   LIG    1       -1.707  -0.679   5.602  0.00  0.00    +0.080 C 
ATOM     30  C   LIG    1       -3.239  -1.738   3.937  0.00  0.00    +0.040 C 
ENDBRANCH  26  27
ENDBRANCH  12  26
TORSDOF 7
