REMARK  Name = ZINCrm00000VuSDv.2
REMARK                            x       y       z     vdW  Elec       q    Type
REMARK                         _______ _______ _______ _____ _____    ______ ____
ROOT
ATOM      1  C   LIG    1        0.009   1.129   0.047  0.00  0.00    +0.250 C 
ATOM      2  C   LIG    1       -0.781   1.595  -1.180  0.00  0.00    +0.250 C 
ATOM      3  N   LIG    1       -0.071   1.192  -2.402  0.00  0.00    -0.380 N 
ATOM      4  C   LIG    1       -0.883   1.546  -3.574  0.00  0.00    +0.260 C 
ATOM      5  C   LIG    1       -1.189   3.045  -3.548  0.00  0.00    +0.050 C 
ATOM      6  C   LIG    1        0.124   3.832  -3.579  0.00  0.00    +0.050 C 
ATOM      7  C   LIG    1        1.000   3.394  -2.402  0.00  0.00    +0.060 C 
ATOM      8  C   LIG    1        1.223   1.882  -2.477  0.00  0.00    +0.170 C 
ATOM      9  C   LIG    1        2.112   1.436  -1.312  0.00  0.00    +0.340 C 
ATOM     10  H   LIG    1        0.081   0.194  -2.387  0.00  0.00    +0.430 HD
ATOM     11  N   LIG    1        1.380   1.653  -0.055  0.00  0.00    -0.610 N 
ATOM     12  C   LIG    1        1.948   2.312   0.974  0.00  0.00    +0.660 C 
ATOM     13  O   LIG    1        1.366   2.397   2.037  0.00  0.00    -0.540 OA
ENDROOT
BRANCH   1  14
ATOM     14  C   LIG    1       -0.651   1.659   1.321  0.00  0.00    +0.340 C 
BRANCH  14  16
ATOM     15  C   LIG    1       -2.848   1.613   2.375  0.00  0.00    +0.540 C 
ATOM     16  N   LIG    1       -2.036   1.186   1.387  0.00  0.00    -0.730 N 
ATOM     17  H   LIG    1       -2.369   0.566   0.720  0.00  0.00    +0.400 HD
ATOM     18  O   LIG    1       -2.431   2.391   3.211  0.00  0.00    -0.510 OA
BRANCH  15  20
ATOM     19  C   LIG    1       -5.039   1.559   3.416  0.00  0.00    +0.010 C 
ATOM     20  C   LIG    1       -4.239   1.138   2.441  0.00  0.00    +0.000 C 
BRANCH  19  21
ATOM     21  C   LIG    1       -6.464   1.072   3.484  0.00  0.00    +0.310 C 
BRANCH  21  23
ATOM     22  C   LIG    1       -6.612   1.521   5.835  0.00  0.00    +0.330 C 
ATOM     23  N   LIG    1       -6.717   0.480   4.804  0.00  0.00    -0.390 N 
ATOM     24  C   LIG    1       -8.066  -0.101   4.830  0.00  0.00    +0.320 C 
ATOM     25  H   LIG    1       -6.036  -0.242   4.985  0.00  0.00    +0.430 HD
ENDBRANCH  21  23
ENDBRANCH  19  21
ENDBRANCH  15  20
ENDBRANCH  14  16
ENDBRANCH   1  14
BRANCH  12  26
ATOM     26  O   LIG    1        3.161   2.878   0.823  0.00  0.00    -0.360 OA
BRANCH  26  27
ATOM     27  C   LIG    1        3.712   3.572   1.973  0.00  0.00    +0.140 C 
ATOM     28  C   LIG    1        2.774   4.712   2.378  0.00  0.00    +0.030 C 
ATOM     29  C   LIG    1        5.084   4.144   1.614  0.00  0.00    +0.080 C 
ATOM     30  C   LIG    1        3.857   2.592   3.139  0.00  0.00    +0.030 C 
ENDBRANCH  26  27
ENDBRANCH  12  26
TORSDOF 7
