REMARK  Name = ZINCpk000000oIMY.0
REMARK                            x       y       z     vdW  Elec       q    Type
REMARK                         _______ _______ _______ _____ _____    ______ ____
ROOT
ATOM      1  C   LIG    1        3.709   3.391  -0.668  0.00  0.00    -0.030 A 
ATOM      2  C   LIG    1        4.887   3.889  -0.176  0.00  0.00    +0.060 A 
ATOM      3  C   LIG    1        5.404   2.878   0.658  0.00  0.00    -0.010 A 
ATOM      4  N   LIG    1        4.552   1.869   0.635  0.00  0.00    -0.200 NA
ATOM      5  N   LIG    1        3.554   2.142  -0.126  0.00  0.00    -0.190 N 
ENDROOT
BRANCH   1  11
ATOM      6  N   LIG    1        4.220   6.511  -4.522  0.00  0.00    -0.540 NA
ATOM      7  C   LIG    1        2.852   5.978  -4.580  0.00  0.00    +0.170 C 
ATOM      8  C   LIG    1        2.283   5.885  -3.161  0.00  0.00    +0.300 C 
ATOM      9  N   LIG    1        3.218   5.109  -2.332  0.00  0.00    -0.600 N 
ATOM     10  C   LIG    1        4.635   5.504  -2.326  0.00  0.00    +0.280 C 
ATOM     11  C   LIG    1        2.787   4.067  -1.594  0.00  0.00    +0.590 C 
ATOM     12  O   LIG    1        1.636   3.686  -1.694  0.00  0.00    -0.520 OA
ATOM     13  C   LIG    1        5.112   5.608  -3.783  0.00  0.00    +0.170 C 
BRANCH   6  15
ATOM     14  C   LIG    1        6.192   7.245  -5.774  0.00  0.00    +0.030 C 
ATOM     15  C   LIG    1        4.739   6.777  -5.870  0.00  0.00    +0.160 C 
ENDBRANCH   6  15
ENDBRANCH   1  11
BRANCH   5  16
ATOM     16  C   LIG    1        2.472   1.288  -0.370  0.00  0.00    +0.100 A 
ATOM     17  C   LIG    1        1.172   1.738  -0.177  0.00  0.00    +0.090 A 
ATOM     18  C   LIG    1        0.107   0.892  -0.418  0.00  0.00    +0.030 A 
ATOM     19  C   LIG    1        0.334  -0.401  -0.852  0.00  0.00    +0.040 A 
ATOM     20  C   LIG    1        1.627  -0.853  -1.045  0.00  0.00    +0.020 A 
ATOM     21  C   LIG    1        2.696  -0.012  -0.806  0.00  0.00    +0.040 A 
ENDBRANCH   5  16
BRANCH   3  22
ATOM     22  C   LIG    1        6.669   2.935   1.418  0.00  0.00    +0.560 C 
ATOM     23  O   LIG    1        7.370   3.925   1.356  0.00  0.00    -0.490 OA
BRANCH  22  24
ATOM     24  O   LIG    1        7.044   1.890   2.180  0.00  0.00    -0.340 OA
ATOM     25  C   LIG    1        8.299   2.015   2.899  0.00  0.00    +0.290 C 
ENDBRANCH  22  24
ENDBRANCH   3  22
TORSDOF 5
