REMARK  Name = ZINCAx0000000cwt.0
REMARK                            x       y       z     vdW  Elec       q    Type
REMARK                         _______ _______ _______ _____ _____    ______ ____
ROOT
ATOM      1  N   LIG    1       -1.234   2.080   0.019  0.00  0.00    -0.470 N 
ATOM      2  C   LIG    1       -1.819   2.427  -1.151  0.00  0.00    +0.560 A 
ATOM      3  C   LIG    1       -3.097   3.149  -1.083  0.00  0.00    -0.200 A 
ATOM      4  C   LIG    1       -3.778   3.546  -2.232  0.00  0.00    +0.100 A 
ATOM      5  C   LIG    1       -4.971   4.225  -2.115  0.00  0.00    -0.010 A 
ATOM      6  C   LIG    1       -5.497   4.517  -0.863  0.00  0.00    +0.070 A 
ATOM      7  C   LIG    1       -4.841   4.136   0.285  0.00  0.00    +0.030 A 
ATOM      8  C   LIG    1       -3.630   3.445   0.193  0.00  0.00    +0.170 A 
ATOM      9  N   LIG    1       -2.956   3.053   1.294  0.00  0.00    -0.540 NA
ATOM     10  O   LIG    1       -1.307   2.149  -2.220  0.00  0.00    -0.490 OA
ATOM     11  C   LIG    1       -1.820   2.406   1.210  0.00  0.00    +0.370 A 
ENDROOT
BRANCH   1  16
ATOM     12  C   LIG    1        1.200  -0.684  -0.018  0.00  0.00    +0.100 A 
ATOM     13  C   LIG    1        2.397   0.018  -0.021  0.00  0.00    +0.000 A 
ATOM     14  C   LIG    1        2.390   1.401  -0.010  0.00  0.00    -0.020 A 
ATOM     15  C   LIG    1        1.188   2.088   0.006  0.00  0.00    +0.130 A 
ATOM     16  C   LIG    1       -0.015   1.386   0.009  0.00  0.00    +0.090 A 
ATOM     17  C   LIG    1       -0.006  -0.001  -0.002  0.00  0.00    +0.060 A 
BRANCH  12  19
ATOM     18  C   LIG    1        2.489  -2.682  -0.044  0.00  0.00    +0.250 C 
ATOM     19  O   LIG    1        1.211  -2.043  -0.029  0.00  0.00    -0.310 OA
ENDBRANCH  12  19
BRANCH  15  20
ATOM     20  O   LIG    1        1.182   3.449   0.017  0.00  0.00    -0.310 OA
ATOM     21  C   LIG    1        2.452   4.103   0.012  0.00  0.00    +0.250 C 
ENDBRANCH  15  20
ENDBRANCH   1  16
BRANCH  11  22
ATOM     22  S   LIG    1       -1.011   1.934   2.703  0.00  0.00    +0.100 S 
BRANCH  22  23
ATOM     23  C   LIG    1       -2.180   2.592   3.917  0.00  0.00    +0.130 C 
BRANCH  23  24
ATOM     24  C   LIG    1       -1.680   2.298   5.308  0.00  0.00    +0.530 C 
ATOM     25  N   LIG    1       -2.394   2.697   6.379  0.00  0.00    -0.670 N 
ATOM     26  H   LIG    1       -3.194   3.232   6.257  0.00  0.00    +0.420 HD
ATOM     27  O   LIG    1       -0.636   1.701   5.462  0.00  0.00    -0.490 OA
BRANCH  25  28
ATOM     28  C   LIG    1       -1.980   2.340   7.667  0.00  0.00    +0.120 A 
ATOM     29  C   LIG    1       -2.923   2.073   8.651  0.00  0.00    +0.060 A 
ATOM     30  C   LIG    1       -2.511   1.715   9.921  0.00  0.00    +0.020 A 
ATOM     31  C   LIG    1       -1.163   1.634  10.214  0.00  0.00    +0.120 A 
ATOM     32  C   LIG    1       -0.222   1.905   9.238  0.00  0.00    -0.660 A 
ATOM     33  C   LIG    1       -0.626   2.257   7.966  0.00  0.00    +0.140 A 
BRANCH  32  34
ATOM     34  S   LIG    1        1.496   1.800   9.618  0.00  0.00    +2.700 S 
ATOM     35  O   LIG    1        2.167   1.577   8.385  0.00  0.00    -0.950 OA
ATOM     36  O   LIG    1        1.608   0.926  10.733  0.00  0.00    -0.960 OA
BRANCH  34  37
ATOM     37  N   LIG    1        1.973   3.295  10.146  0.00  0.00    -1.250 NA
ATOM     38  H   LIG    1        1.529   4.091   9.814  0.00  0.00    +0.420 HD
ATOM     39  H   LIG    1        2.696   3.375  10.788  0.00  0.00    +0.420 HD
ENDBRANCH  34  37
ENDBRANCH  32  34
ENDBRANCH  25  28
ENDBRANCH  23  24
ENDBRANCH  22  23
ENDBRANCH  11  22
TORSDOF 9
