REMARK  Name = ZINCvU0000000JzA.0
REMARK                            x       y       z     vdW  Elec       q    Type
REMARK                         _______ _______ _______ _____ _____    ______ ____
ROOT
ATOM      1  C   LIG    1        0.721   9.509  -1.442  0.00  0.00    +0.200 C 
ENDROOT
BRANCH   1   4
ATOM      2  C   LIG    1        0.193   6.047  -0.446  0.00  0.00    +0.130 A 
ATOM      3  N   LIG    1        0.145   7.348  -0.396  0.00  0.00    -0.450 NA
ATOM      4  C   LIG    1        0.705   8.003  -1.388  0.00  0.00    +0.070 A 
ATOM      5  C   LIG    1        1.253   7.252  -2.347  0.00  0.00    -0.030 A 
ATOM      6  S   LIG    1        1.028   5.558  -1.918  0.00  0.00    +0.110 S 
BRANCH   2  10
ATOM      7  C   LIG    1       -1.428   3.410   2.470  0.00  0.00    +0.120 A 
ATOM      8  C   LIG    1       -1.536   4.783   2.639  0.00  0.00    -0.030 A 
ATOM      9  C   LIG    1       -1.012   5.641   1.695  0.00  0.00    +0.080 A 
ATOM     10  C   LIG    1       -0.370   5.129   0.567  0.00  0.00    -0.030 A 
ATOM     11  C   LIG    1       -0.255   3.747   0.399  0.00  0.00    -0.010 A 
ATOM     12  C   LIG    1       -0.787   2.893   1.346  0.00  0.00    +0.100 A 
BRANCH   7  14
ATOM     13  C   LIG    1       -2.589   3.167   4.531  0.00  0.00    +0.240 C 
ATOM     14  O   LIG    1       -1.946   2.569   3.403  0.00  0.00    -0.300 OA
ENDBRANCH   7  14
BRANCH  12  15
ATOM     15  O   LIG    1       -0.682   1.547   1.184  0.00  0.00    -0.300 OA
ATOM     16  C   LIG    1       -0.013   1.086   0.008  0.00  0.00    +0.250 C 
ENDBRANCH  12  15
ENDBRANCH   2  10
ENDBRANCH   1   4
BRANCH   1  17
ATOM     17  S   LIG    1       -0.758  10.098  -2.303  0.00  0.00    +0.090 S 
BRANCH  17  18
ATOM     18  C   LIG    1       -0.486  11.837  -2.224  0.00  0.00    +0.140 A 
ATOM     19  N   LIG    1        0.539  12.440  -1.671  0.00  0.00    -0.290 NA
ATOM     20  N   LIG    1        0.405  13.713  -1.801  0.00  0.00    -0.240 NA
ATOM     21  C   LIG    1       -0.700  13.972  -2.436  0.00  0.00    +0.160 A 
ATOM     22  O   LIG    1       -1.289  12.795  -2.724  0.00  0.00    -0.200 OA
BRANCH  21  23
ATOM     23  C   LIG    1       -1.224  15.340  -2.789  0.00  0.00    +0.380 C 
BRANCH  23  24
ATOM     24  O   LIG    1       -0.729  15.723  -4.073  0.00  0.00    -0.310 OA
BRANCH  24  25
ATOM     25  C   LIG    1       -1.110  16.939  -4.544  0.00  0.00    +0.120 A 
ATOM     26  C   LIG    1       -1.948  17.745  -3.788  0.00  0.00    -0.070 A 
ATOM     27  C   LIG    1       -2.329  18.984  -4.266  0.00  0.00    +0.050 A 
ATOM     28  C   LIG    1       -1.885  19.416  -5.503  0.00  0.00    -0.120 A 
ATOM     29  C   LIG    1       -1.054  18.611  -6.261  0.00  0.00    +0.050 A 
ATOM     30  C   LIG    1       -2.308  20.765  -6.025  0.00  0.00    +0.100 C 
ATOM     31  C   LIG    1       -0.666  17.374  -5.785  0.00  0.00    -0.010 A 
ENDBRANCH  24  25
ENDBRANCH  23  24
ENDBRANCH  21  23
ENDBRANCH  17  18
ENDBRANCH   1  17
TORSDOF 9
