REMARK  Name = ZINC450000002Jfn.0
REMARK                            x       y       z     vdW  Elec       q    Type
REMARK                         _______ _______ _______ _____ _____    ______ ____
ROOT
ATOM      1  C   LIG    1        1.286   1.562  -0.002  0.00  0.00    +0.210 C 
ENDROOT
BRANCH   1   2
ATOM      2  O   LIG    1       -0.011   0.963   0.007  0.00  0.00    -0.570 OA
ATOM      3  H   LIG    1        0.002  -0.004   0.002  0.00  0.00    +0.390 HD
ENDBRANCH   1   2
BRANCH   1   4
ATOM      4  C   LIG    1        1.145   3.085   0.008  0.00  0.00    +0.100 C 
BRANCH   4   5
ATOM      5  S   LIG    1        2.792   3.845  -0.004  0.00  0.00    -0.230 S 
ATOM      6  H   LIG    1        2.517   5.162   0.006  0.00  0.00    +0.100 HD
ENDBRANCH   4   5
ENDBRANCH   1   4
TORSDOF 3
