REMARK  Name = ZINCtV000002G1Am.0
REMARK                            x       y       z     vdW  Elec       q    Type
REMARK                         _______ _______ _______ _____ _____    ______ ____
ROOT
ATOM      1  S   LIG    1       -4.212   6.717  -1.158  0.00  0.00    +0.020 S 
ENDROOT
BRANCH   1  10
ATOM      2  C   LIG    1       -8.760   9.197   4.126  0.00  0.00    +0.140 C 
ATOM      3  C   LIG    1       -8.471   9.100   2.650  0.00  0.00    +0.200 A 
ATOM      4  C   LIG    1       -9.351   9.682   1.750  0.00  0.00    -0.060 A 
ATOM      5  C   LIG    1       -9.095   9.600   0.393  0.00  0.00    +0.050 A 
ATOM      6  C   LIG    1       -7.945   8.923  -0.015  0.00  0.00    -0.270 A 
ATOM      7  C   LIG    1       -7.587   8.781  -1.431  0.00  0.00    +0.560 A 
ATOM      8  N   LIG    1       -6.450   8.106  -1.723  0.00  0.00    -0.640 N 
ATOM      9  H   LIG    1       -6.180   7.992  -2.647  0.00  0.00    +0.420 HD
ATOM     10  C   LIG    1       -5.681   7.586  -0.722  0.00  0.00    +0.390 A 
ATOM     11  N   LIG    1       -5.987   7.697   0.548  0.00  0.00    -0.520 NA
ATOM     12  O   LIG    1       -8.285   9.252  -2.310  0.00  0.00    -0.500 OA
ATOM     13  C   LIG    1       -7.090   8.352   0.957  0.00  0.00    +0.380 A 
ATOM     14  C   LIG    1      -10.029  10.220  -0.614  0.00  0.00    +0.120 C 
ATOM     15  N   LIG    1       -7.390   8.465   2.249  0.00  0.00    -0.480 NA
ENDBRANCH   1  10
BRANCH   1  16
ATOM     16  C   LIG    1       -3.613   6.265   0.489  0.00  0.00    +0.180 C 
BRANCH  16  17
ATOM     17  C   LIG    1       -2.327   5.491   0.361  0.00  0.00    -0.050 A 
ATOM     18  C   LIG    1       -1.116   6.158   0.357  0.00  0.00    +0.000 A 
ATOM     19  C   LIG    1        0.066   5.450   0.240  0.00  0.00    +0.050 A 
ATOM     20  C   LIG    1        0.040   4.074   0.127  0.00  0.00    -0.050 A 
ATOM     21  C   LIG    1       -1.174   3.402   0.131  0.00  0.00    +0.120 A 
ATOM     22  C   LIG    1       -2.359   4.114   0.243  0.00  0.00    +0.020 A 
BRANCH  21  23
ATOM     23  O   LIG    1       -1.202   2.048   0.019  0.00  0.00    -0.250 OA
BRANCH  23  24
ATOM     24  C   LIG    1       -0.018   1.381   0.033  0.00  0.00    +0.090 A 
ATOM     25  C   LIG    1        0.424   0.726  -1.107  0.00  0.00    +0.030 A 
ATOM     26  C   LIG    1        1.625   0.044  -1.089  0.00  0.00    +0.050 A 
ATOM     27  C   LIG    1        2.388   0.015   0.065  0.00  0.00    -0.040 A 
ATOM     28  C   LIG    1        1.950   0.669   1.203  0.00  0.00    +0.050 A 
ATOM     29 CL   LIG    1        3.898  -0.842   0.085  0.00  0.00    -0.060 Cl
ATOM     30  C   LIG    1        0.749   1.351   1.189  0.00  0.00    +0.010 A 
ENDBRANCH  23  24
ENDBRANCH  21  23
ENDBRANCH  16  17
ENDBRANCH   1  16
TORSDOF 5
