REMARK  Name = ZINC9p0000004T1w.0
REMARK                            x       y       z     vdW  Elec       q    Type
REMARK                         _______ _______ _______ _____ _____    ______ ____
ROOT
ATOM      1  C   LIG    1       -0.784   1.609  -1.216  0.00  0.00    +0.000 C 
ATOM      2  C   LIG    1       -0.013   1.086   0.008  0.00  0.00    +0.050 C 
ATOM      3  C   LIG    1       -0.763   1.597   1.255  0.00  0.00    +0.050 C 
ATOM      4  C   LIG    1       -1.531   2.845   0.750  0.00  0.00    +0.160 C 
ATOM      5  C   LIG    1       -1.978   2.421  -0.670  0.00  0.00    +0.050 C 
ENDROOT
BRANCH   4   6
ATOM      6  N   LIG    1       -2.696   3.119   1.602  0.00  0.00    -0.630 N 
ATOM      7  H   LIG    1       -3.241   3.865   1.196  0.00  0.00    +0.440 HD
ATOM      8  H   LIG    1       -2.383   3.394   2.522  0.00  0.00    +0.440 HD
ATOM      9  H   LIG    1       -3.263   2.288   1.674  0.00  0.00    +0.430 HD
ENDBRANCH   4   6
BRANCH   1  10
ATOM     10  C   LIG    1       -1.290   0.436  -2.058  0.00  0.00    +0.020 C 
BRANCH  10  12
ATOM     11  C   LIG    1       -0.603  -1.479  -3.508  0.00  0.00    +0.010 C 
ATOM     12  C   LIG    1       -0.098  -0.306  -2.666  0.00  0.00    -0.010 C 
ENDBRANCH  10  12
ENDBRANCH   1  10
TORSDOF 3
