REMARK  Name = ZINCrg00000IXBpW.0
REMARK                            x       y       z     vdW  Elec       q    Type
REMARK                         _______ _______ _______ _____ _____    ______ ____
ROOT
ATOM      1  N   LIG    1        1.178  -0.662  -0.013  0.00  0.00    -0.720 N 
ATOM      2  H   LIG    1        2.012  -0.166  -0.018  0.00  0.00    +0.400 HD
ATOM      3  C   LIG    1        0.002  -0.004   0.002  0.00  0.00    +0.570 C 
ATOM      4  O   LIG    1       -1.042  -0.626   0.009  0.00  0.00    -0.510 OA
ENDROOT
BRANCH   1  11
ATOM      5  C   LIG    1        0.546  -2.950   3.454  0.00  0.00    +0.220 A 
ATOM      6  N   LIG    1        1.493  -3.822   3.214  0.00  0.00    -0.310 NA
ATOM      7  N   LIG    1        1.873  -3.642   1.881  0.00  0.00    -0.370 N 
ATOM      8  C   LIG    1        2.890  -4.369   1.121  0.00  0.00    +0.310 C 
ATOM      9  C   LIG    1        2.657  -4.126  -0.374  0.00  0.00    +0.060 C 
ATOM     10  C   LIG    1        2.515  -2.623  -0.633  0.00  0.00    +0.050 C 
ATOM     11  C   LIG    1        1.198  -2.127  -0.021  0.00  0.00    +0.350 C 
ATOM     12  C   LIG    1        1.110  -2.645   1.394  0.00  0.00    +0.250 A 
ATOM     13  N   LIG    1        0.319  -2.240   2.347  0.00  0.00    -0.510 NA
BRANCH   5  15
ATOM     14  C   LIG    1       -1.404  -3.680   4.800  0.00  0.00    +0.050 C 
ATOM     15  C   LIG    1       -0.170  -2.776   4.768  0.00  0.00    +0.150 C 
ENDBRANCH   5  15
ENDBRANCH   1  11
BRANCH   3  16
ATOM     16  C   LIG    1       -0.018   1.472   0.010  0.00  0.00    -0.150 A 
ATOM     17  C   LIG    1        1.182   2.188   0.003  0.00  0.00    +0.110 A 
ATOM     18  C   LIG    1        1.162   3.566   0.010  0.00  0.00    -0.050 A 
ATOM     19  C   LIG    1       -0.048   4.246   0.025  0.00  0.00    +0.180 A 
ATOM     20  C   LIG    1       -1.250   3.538   0.032  0.00  0.00    +0.090 A 
ATOM     21  C   LIG    1       -1.236   2.155   0.020  0.00  0.00    +0.140 A 
BRANCH  20  22
ATOM     22  N   LIG    1       -2.472   4.228   0.046  0.00  0.00    -0.320 N 
ATOM     23  C   LIG    1       -3.713   3.697   0.054  0.00  0.00    +0.460 A 
ATOM     24  N   LIG    1       -4.561   4.692   0.067  0.00  0.00    -0.330 NA
ATOM     25  N   LIG    1       -3.940   5.816   0.068  0.00  0.00    -0.040 NA
ATOM     26  N   LIG    1       -2.666   5.620   0.061  0.00  0.00    -0.050 NA
ENDBRANCH  20  22
BRANCH  19  27
ATOM     27  O   LIG    1       -0.062   5.604   0.032  0.00  0.00    -0.280 OA
ATOM     28  C   LIG    1        1.205   6.265   0.024  0.00  0.00    +0.250 C 
ENDBRANCH  19  27
ENDBRANCH   3  16
TORSDOF 5
