REMARK  Name = ZINCpe00000gNcYD.0
REMARK                            x       y       z     vdW  Elec       q    Type
REMARK                         _______ _______ _______ _____ _____    ______ ____
ROOT
ATOM      1  C   LIG    1       -3.459   0.848  -3.515  0.00  0.00    +0.530 C 
ATOM      2  N   LIG    1       -2.326   0.700  -2.800  0.00  0.00    -0.620 N 
ATOM      3  C   LIG    1       -0.990   0.288  -3.290  0.00  0.00    +0.240 C 
ATOM      4  C   LIG    1        0.002   1.181  -2.513  0.00  0.00    +0.170 C 
ATOM      5  C   LIG    1       -0.753   1.593  -1.232  0.00  0.00    +0.010 C 
ATOM      6  C   LIG    1       -2.135   0.915  -1.345  0.00  0.00    +0.280 C 
ATOM      7  O   LIG    1       -4.482   1.194  -2.965  0.00  0.00    -0.530 OA
ENDROOT
BRANCH   4   8
ATOM      8  O   LIG    1        0.342   2.336  -3.282  0.00  0.00    -0.560 OA
ATOM      9  H   LIG    1        0.819   2.137  -4.100  0.00  0.00    +0.380 HD
ENDBRANCH   4   8
BRANCH   1  10
ATOM     10  C   LIG    1       -3.454   0.582  -4.999  0.00  0.00    +0.310 C 
BRANCH  10  13
ATOM     11  O   LIG    1       -4.129   0.284  -7.592  0.00  0.00    -0.530 OA
ATOM     12  C   LIG    1       -5.031   0.634  -6.856  0.00  0.00    +0.570 C 
ATOM     13  N   LIG    1       -4.796   0.811  -5.540  0.00  0.00    -0.710 N 
ATOM     14  H   LIG    1       -5.515   1.091  -4.953  0.00  0.00    +0.410 HD
BRANCH  12  15
ATOM     15  C   LIG    1       -6.385   0.865  -7.402  0.00  0.00    -0.190 A 
ATOM     16  C   LIG    1       -6.641   0.690  -8.767  0.00  0.00    +0.140 A 
ATOM     17  C   LIG    1       -7.926   0.915  -9.228  0.00  0.00    -0.030 A 
ATOM     18  C   LIG    1       -8.905   1.312  -8.335  0.00  0.00    +0.290 A 
ATOM     19  N   LIG    1       -8.634   1.474  -7.054  0.00  0.00    -0.490 NA
ATOM     20  C   LIG    1       -7.428   1.267  -6.567  0.00  0.00    +0.300 A 
ENDBRANCH  12  15
ENDBRANCH  10  13
ENDBRANCH   1  10
BRANCH   5  21
ATOM     21  C   LIG    1       -0.013   1.086   0.008  0.00  0.00    +0.090 C 
BRANCH  21  22
ATOM     22  C   LIG    1       -0.718   1.572   1.248  0.00  0.00    -0.090 A 
ATOM     23  C   LIG    1       -0.360   2.779   1.819  0.00  0.00    +0.010 A 
ATOM     24  C   LIG    1       -1.010   3.227   2.953  0.00  0.00    +0.000 A 
ATOM     25  C   LIG    1       -2.012   2.463   3.523  0.00  0.00    +0.000 A 
ATOM     26  C   LIG    1       -2.366   1.254   2.955  0.00  0.00    +0.000 A 
ATOM     27  C   LIG    1       -1.719   0.808   1.818  0.00  0.00    +0.000 A 
ENDBRANCH  21  22
ENDBRANCH   5  21
TORSDOF 6
