REMARK  Name = ZINCvU00000008Ap.0
REMARK                            x       y       z     vdW  Elec       q    Type
REMARK                         _______ _______ _______ _____ _____    ______ ____
ROOT
ATOM      1  C   LIG    1        5.397   0.971  -1.472  0.00  0.00    +0.000 A 
ATOM      2  C   LIG    1        5.254   0.135  -0.351  0.00  0.00    -0.200 A 
ATOM      3  C   LIG    1        6.237  -0.831  -0.083  0.00  0.00    +0.300 A 
ATOM      4  O   LIG    1        5.856  -1.484   1.034  0.00  0.00    -0.070 OA
ATOM      5  N   LIG    1        4.634  -0.950   1.502  0.00  0.00    -0.260 NA
ATOM      6  N   LIG    1        7.286  -0.948  -0.883  0.00  0.00    -0.460 NA
ATOM      7  C   LIG    1        7.448  -0.180  -1.939  0.00  0.00    +0.240 A 
ATOM      8  C   LIG    1        4.241   0.008   0.706  0.00  0.00    +0.200 A 
ATOM      9  C   LIG    1        6.525   0.797  -2.275  0.00  0.00    -0.020 A 
ENDROOT
BRANCH   8  10
ATOM     10  C   LIG    1        3.007   0.819   0.845  0.00  0.00    -0.020 A 
ATOM     11  C   LIG    1        2.010   0.748  -0.126  0.00  0.00    +0.070 A 
ATOM     12  C   LIG    1        0.863   1.505   0.010  0.00  0.00    +0.000 A 
ATOM     13  C   LIG    1        0.704   2.333   1.106  0.00  0.00    +0.020 A 
ATOM     14  C   LIG    1        1.690   2.407   2.073  0.00  0.00    +0.000 A 
ATOM     15  C   LIG    1        2.841   1.655   1.948  0.00  0.00    +0.040 A 
ENDBRANCH   8  10
BRANCH   1  17
ATOM     16  O   LIG    1        3.480   2.228  -1.011  0.00  0.00    -0.490 OA
ATOM     17  C   LIG    1        4.384   2.002  -1.791  0.00  0.00    +0.550 C 
ATOM     18  N   LIG    1        4.464   2.692  -2.946  0.00  0.00    -0.710 N 
ATOM     19  H   LIG    1        5.142   2.462  -3.602  0.00  0.00    +0.400 HD
BRANCH  18  20
ATOM     20  C   LIG    1        3.529   3.787  -3.213  0.00  0.00    +0.330 C 
BRANCH  20  21
ATOM     21  C   LIG    1        4.294   5.001  -3.671  0.00  0.00    -0.090 A 
ATOM     22  C   LIG    1        5.369   4.858  -4.528  0.00  0.00    +0.010 A 
ATOM     23  C   LIG    1        6.068   5.973  -4.952  0.00  0.00    +0.000 A 
ATOM     24  C   LIG    1        5.699   7.229  -4.510  0.00  0.00    +0.000 A 
ATOM     25  C   LIG    1        4.628   7.372  -3.648  0.00  0.00    +0.010 A 
ATOM     26  C   LIG    1        3.925   6.258  -3.229  0.00  0.00    +0.020 A 
ENDBRANCH  20  21
BRANCH  20  27
ATOM     27  C   LIG    1        2.544   3.363  -4.305  0.00  0.00    -0.060 C 
ATOM     28  C   LIG    1        1.058   3.632  -4.060  0.00  0.00    +0.040 C 
ATOM     29  C   LIG    1        1.598   2.202  -3.991  0.00  0.00    +0.020 C 
ENDBRANCH  20  27
ENDBRANCH  18  20
ENDBRANCH   1  17
BRANCH   7  30
ATOM     30  C   LIG    1        8.666  -0.369  -2.806  0.00  0.00    +0.010 C 
ATOM     31  C   LIG    1        8.642   0.252  -4.204  0.00  0.00    +0.040 C 
ATOM     32  C   LIG    1        8.525  -1.265  -4.038  0.00  0.00    +0.060 C 
ENDBRANCH   7  30
TORSDOF 6
