REMARK  Name = ZINCtV00000tRSQI.0
REMARK                            x       y       z     vdW  Elec       q    Type
REMARK                         _______ _______ _______ _____ _____    ______ ____
ROOT
ATOM      1  C   LIG    1        3.822   6.182  -0.071  0.00  0.00    +0.530 C 
ENDROOT
BRANCH   1   3
ATOM      2  C   LIG    1        2.697   4.050  -0.430  0.00  0.00    +0.580 C 
ATOM      3  N   LIG    1        2.610   5.387  -0.282  0.00  0.00    -0.730 N 
ATOM      4  H   LIG    1        1.744   5.823  -0.316  0.00  0.00    +0.400 HD
ATOM      5  O   LIG    1        3.783   3.504  -0.388  0.00  0.00    -0.520 OA
BRANCH   2   9
ATOM      6  C   LIG    1       -0.817   1.746  -1.047  0.00  0.00    -0.040 A 
ATOM      7  C   LIG    1        0.416   1.121  -0.994  0.00  0.00    +0.010 A 
ATOM      8  C   LIG    1        1.561   1.863  -0.795  0.00  0.00    +0.090 A 
ATOM      9  C   LIG    1        1.474   3.248  -0.642  0.00  0.00    -0.150 A 
ATOM     10  C   LIG    1        0.226   3.872  -0.692  0.00  0.00    +0.040 A 
ATOM     11  C   LIG    1       -0.911   3.118  -0.891  0.00  0.00    +0.010 A 
BRANCH   6  13
ATOM     12  C   LIG    1       -2.214  -0.092  -0.142  0.00  0.00    +0.040 C 
ATOM     13  C   LIG    1       -2.064   0.929  -1.271  0.00  0.00    -0.040 C 
ATOM     14  C   LIG    1       -1.960   0.198  -2.611  0.00  0.00    +0.040 C 
ATOM     15  C   LIG    1       -3.283   1.854  -1.288  0.00  0.00    +0.030 C 
ENDBRANCH   6  13
ENDBRANCH   2   9
ENDBRANCH   1   3
BRANCH   1  16
ATOM     16  C   LIG    1        3.778   7.425  -0.962  0.00  0.00    +0.110 C 
ATOM     17 CL   LIG    1        3.682   6.922  -2.691  0.00  0.00    -0.060 Cl
ATOM     18 CL   LIG    1        5.271   8.403  -0.703  0.00  0.00    -0.060 Cl
ATOM     19 CL   LIG    1        2.331   8.414  -0.543  0.00  0.00    -0.080 Cl
ENDBRANCH   1  16
BRANCH   1  20
ATOM     20  N   LIG    1        3.900   6.590   1.333  0.00  0.00    -0.740 N 
ATOM     21  H   LIG    1        3.332   7.304   1.663  0.00  0.00    +0.410 HD
BRANCH  20  22
ATOM     22  C   LIG    1        4.792   5.952   2.198  0.00  0.00    +0.210 A 
ATOM     23  C   LIG    1        5.523   4.855   1.758  0.00  0.00    -0.010 A 
ATOM     24  C   LIG    1        6.405   4.226   2.616  0.00  0.00    +0.070 A 
ATOM     25  C   LIG    1        6.561   4.687   3.910  0.00  0.00    +0.020 A 
ATOM     26  C   LIG    1        5.834   5.779   4.351  0.00  0.00    -0.140 A 
ATOM     27  C   LIG    1        4.955   6.415   3.497  0.00  0.00    +0.000 A 
BRANCH  26  28
ATOM     28  C   LIG    1        6.008   6.278   5.762  0.00  0.00    +0.510 C 
ATOM     29  F   LIG    1        4.783   6.211   6.434  0.00  0.00    -0.180 F 
ATOM     30  F   LIG    1        6.453   7.604   5.736  0.00  0.00    -0.180 F 
ATOM     31  F   LIG    1        6.949   5.483   6.426  0.00  0.00    -0.180 F 
ENDBRANCH  26  28
ENDBRANCH  20  22
ENDBRANCH   1  20
TORSDOF 7
