REMARK  Name = ZINCrH000004joxP.0
REMARK                            x       y       z     vdW  Elec       q    Type
REMARK                         _______ _______ _______ _____ _____    ______ ____
ROOT
ATOM      1  C   LIG    1        2.689   7.663   0.013  0.00  0.00    +0.420 C 
ATOM      2  O   LIG    1        3.878   7.898   0.003  0.00  0.00    -0.430 OA
ENDROOT
BRANCH   1   3
ATOM      3  C   LIG    1        1.720   8.770   0.027  0.00  0.00    -0.170 A 
ATOM      4  C   LIG    1        0.347   8.503   0.033  0.00  0.00    +0.070 A 
ATOM      5  C   LIG    1       -0.555   9.546   0.051  0.00  0.00    +0.010 A 
ATOM      6  C   LIG    1       -0.104  10.854   0.053  0.00  0.00    -0.050 A 
ATOM      7  C   LIG    1        1.252  11.127   0.042  0.00  0.00    +0.000 A 
ATOM      8  C   LIG    1        2.167  10.095   0.029  0.00  0.00    +0.090 A 
BRANCH   6   9
ATOM      9  C   LIG    1       -1.097  11.989   0.067  0.00  0.00    +0.070 C 
BRANCH   9  10
ATOM     10  C   LIG    1       -1.446  12.379  -1.370  0.00  0.00    +0.260 C 
BRANCH  10  11
ATOM     11  N   LIG    1       -2.411  13.481  -1.357  0.00  0.00    -0.740 N 
ATOM     12  H   LIG    1       -2.723  13.842  -0.512  0.00  0.00    +0.400 HD
ATOM     13  C   LIG    1       -2.865  13.993  -2.518  0.00  0.00    +0.510 C 
ATOM     14  O   LIG    1       -2.476  13.542  -3.574  0.00  0.00    -0.540 OA
ATOM     15  C   LIG    1       -3.858  15.127  -2.503  0.00  0.00    +0.090 C 
ENDBRANCH  10  11
ENDBRANCH   9  10
ENDBRANCH   6   9
ENDBRANCH   1   3
BRANCH   1  16
ATOM     16  C   LIG    1        2.203   6.236   0.011  0.00  0.00    +0.090 C 
BRANCH  16  17
ATOM     17  S   LIG    1        3.624   5.115  -0.008  0.00  0.00    +0.050 S 
BRANCH  17  26
ATOM     18  N   LIG    1        3.402   2.342  -0.018  0.00  0.00    -0.470 N 
ATOM     19  C   LIG    1        2.403   1.382  -0.013  0.00  0.00    +0.060 A 
ATOM     20  C   LIG    1        2.403  -0.004  -0.021  0.00  0.00    +0.010 A 
ATOM     21  C   LIG    1        1.206  -0.691  -0.013  0.00  0.00    +0.030 A 
ATOM     22  C   LIG    1        0.002  -0.004   0.002  0.00  0.00    +0.000 A 
ATOM     23  C   LIG    1       -0.017   1.373   0.010  0.00  0.00    +0.060 A 
ATOM     24  C   LIG    1        1.186   2.083   0.002  0.00  0.00    +0.060 A 
ATOM     25  N   LIG    1        1.488   3.408   0.005  0.00  0.00    -0.500 NA
ATOM     26  C   LIG    1        2.789   3.563  -0.007  0.00  0.00    +0.250 A 
BRANCH  18  28
ATOM     27  C   LIG    1        5.335   2.015  -1.480  0.00  0.00    +0.040 C 
ATOM     28  C   LIG    1        4.846   2.094  -0.033  0.00  0.00    +0.300 C 
ENDBRANCH  18  28
ENDBRANCH  17  26
ENDBRANCH  16  17
ENDBRANCH   1  16
TORSDOF 8
