REMARK  Name = ZINCqH00000098tl.0
REMARK                            x       y       z     vdW  Elec       q    Type
REMARK                         _______ _______ _______ _____ _____    ______ ____
ROOT
ATOM      1  N   LIG    1       -3.435  10.175  -1.834  0.00  0.00    -0.730 N 
ATOM      2  H   LIG    1       -4.016   9.722  -2.465  0.00  0.00    +0.400 HD
ATOM      3  C   LIG    1       -2.564   9.463  -1.091  0.00  0.00    +0.510 C 
ATOM      4  O   LIG    1       -1.836  10.029  -0.303  0.00  0.00    -0.530 OA
ENDROOT
BRANCH   1   6
ATOM      5  C   LIG    1       -2.511  12.286  -2.652  0.00  0.00    +0.040 C 
ATOM      6  C   LIG    1       -3.503  11.631  -1.689  0.00  0.00    +0.290 C 
BRANCH   6   7
ATOM      7  C   LIG    1       -4.898  12.103  -2.008  0.00  0.00    -0.140 A 
ATOM      8  C   LIG    1       -5.693  11.375  -2.872  0.00  0.00    +0.080 A 
ATOM      9  C   LIG    1       -6.975  11.804  -3.162  0.00  0.00    -0.010 A 
ATOM     10  C   LIG    1       -7.460  12.969  -2.593  0.00  0.00    +0.130 A 
ATOM     11  C   LIG    1       -6.662  13.702  -1.730  0.00  0.00    -0.040 A 
ATOM     12  F   LIG    1       -8.711  13.391  -2.879  0.00  0.00    -0.130 F 
ATOM     13  C   LIG    1       -5.381  13.269  -1.438  0.00  0.00    +0.140 A 
ATOM     14  F   LIG    1       -4.602  13.983  -0.596  0.00  0.00    -0.120 F 
ENDBRANCH   6   7
ENDBRANCH   1   6
BRANCH   3  15
ATOM     15  C   LIG    1       -2.494   7.965  -1.240  0.00  0.00    +0.060 C 
BRANCH  15  16
ATOM     16  C   LIG    1       -1.433   7.407  -0.290  0.00  0.00    +0.080 C 
BRANCH  16  17
ATOM     17  C   LIG    1       -1.284   5.902  -0.519  0.00  0.00    +0.010 C 
ATOM     18  C   LIG    1       -0.731   5.654  -1.923  0.00  0.00    +0.110 C 
ATOM     19  C   LIG    1       -0.312   4.213  -2.055  0.00  0.00    -0.130 A 
ATOM     20  C   LIG    1       -0.437   3.567  -3.270  0.00  0.00    +0.050 A 
ATOM     21  C   LIG    1       -0.026   2.253  -3.401  0.00  0.00    -0.010 A 
ATOM     22  C   LIG    1        0.510   1.582  -2.317  0.00  0.00    +0.040 A 
ATOM     23  C   LIG    1        0.626   2.219  -1.097  0.00  0.00    -0.020 A 
ATOM     24  C   LIG    1        0.213   3.538  -0.962  0.00  0.00    +0.160 A 
ATOM     25  N   LIG    1        0.303   4.174   0.280  0.00  0.00    -0.660 N 
ATOM     26  H   LIG    1        0.838   3.776   0.984  0.00  0.00    +0.410 HD
ATOM     27  C   LIG    1       -0.344   5.330   0.509  0.00  0.00    +0.520 C 
ATOM     28  O   LIG    1       -0.168   5.918   1.555  0.00  0.00    -0.510 OA
ENDBRANCH  16  17
ENDBRANCH  15  16
ENDBRANCH   3  15
TORSDOF 5
