REMARK  Name = ZINCrD00000F5Lx9.0
REMARK                            x       y       z     vdW  Elec       q    Type
REMARK                         _______ _______ _______ _____ _____    ______ ____
ROOT
ATOM      1  C   LIG    1        5.374  -3.304  -4.501  0.00  0.00    +0.550 C 
ATOM      2  N   LIG    1        4.980  -2.284  -3.713  0.00  0.00    -0.610 N 
ATOM      3  C   LIG    1        5.960  -1.502  -2.945  0.00  0.00    +0.280 C 
ATOM      4  C   LIG    1        5.500  -1.446  -1.484  0.00  0.00    +0.170 C 
ATOM      5  N   LIG    1        4.121  -0.943  -1.427  0.00  0.00    -0.530 NA
ATOM      6  C   LIG    1        3.193  -1.852  -2.112  0.00  0.00    +0.170 C 
ATOM      7  C   LIG    1        3.558  -1.925  -3.598  0.00  0.00    +0.300 C 
ATOM      8  O   LIG    1        4.543  -4.002  -5.055  0.00  0.00    -0.550 OA
ENDROOT
BRANCH   1  10
ATOM      9  C   LIG    1        7.148  -4.526  -5.559  0.00  0.00    +0.160 C 
ATOM     10  C   LIG    1        6.748  -3.562  -4.685  0.00  0.00    -0.070 C 
BRANCH   9  19
ATOM     11  C   LIG    1        9.629  -9.755  -5.361  0.00  0.00    +0.190 C 
ATOM     12  C   LIG    1        9.776  -8.268  -5.550  0.00  0.00    -0.160 A 
ATOM     13  C   LIG    1        8.818  -7.356  -5.503  0.00  0.00    +0.210 A 
ATOM     14  N   LIG    1        9.152  -6.038  -5.695  0.00  0.00    -0.400 N 
ATOM     15  C   LIG    1       10.467  -5.792  -5.931  0.00  0.00    +0.160 A 
ATOM     16  N   LIG    1       10.664  -4.499  -6.105  0.00  0.00    -0.450 NA
ATOM     17  C   LIG    1        9.511  -3.853  -5.999  0.00  0.00    +0.090 A 
ATOM     18  C   LIG    1        9.313  -2.365  -6.134  0.00  0.00    +0.160 C 
ATOM     19  C   LIG    1        8.521  -4.785  -5.743  0.00  0.00    -0.030 A 
ATOM     20  S   LIG    1       11.269  -7.370  -5.879  0.00  0.00    +0.170 S 
ENDBRANCH   9  19
ENDBRANCH   1  10
BRANCH   5  21
ATOM     21  C   LIG    1        3.702  -0.711  -0.038  0.00  0.00    +0.220 C 
BRANCH  21  22
ATOM     22  C   LIG    1        2.389   0.028  -0.026  0.00  0.00    -0.080 A 
ATOM     23  C   LIG    1        1.199  -0.676  -0.024  0.00  0.00    +0.000 A 
ATOM     24  C   LIG    1       -0.005   0.003  -0.012  0.00  0.00    +0.000 A 
ATOM     25  C   LIG    1       -0.020   1.385  -0.001  0.00  0.00    +0.000 A 
ATOM     26  C   LIG    1        1.170   2.089  -0.003  0.00  0.00    +0.000 A 
ATOM     27  C   LIG    1        2.374   1.411  -0.017  0.00  0.00    +0.020 A 
ENDBRANCH  21  22
ENDBRANCH   5  21
TORSDOF 4
