REMARK  Name = ZINCtV00000L6kcx.0
REMARK                            x       y       z     vdW  Elec       q    Type
REMARK                         _______ _______ _______ _____ _____    ______ ____
ROOT
ATOM      1  C   LIG    1        0.084   0.839   2.732  0.00  0.00    +0.150 A 
ATOM      2  N   LIG    1        1.100   0.033   2.527  0.00  0.00    -0.290 NA
ATOM      3  N   LIG    1        1.553  -0.393   3.652  0.00  0.00    -0.270 NA
ATOM      4  C   LIG    1        0.855   0.105   4.633  0.00  0.00    +0.190 A 
ATOM      5  N   LIG    1       -0.106   0.907   4.082  0.00  0.00    -0.450 N 
ENDROOT
BRANCH   5   6
ATOM      6  C   LIG    1       -1.128   1.679   4.793  0.00  0.00    +0.230 C 
ATOM      7  C   LIG    1       -2.518   1.216   4.351  0.00  0.00    +0.020 C 
ATOM      8  C   LIG    1       -3.584   2.023   5.094  0.00  0.00    +0.030 C 
ATOM      9  C   LIG    1       -3.416   3.509   4.772  0.00  0.00    +0.010 C 
ATOM     10  C   LIG    1       -2.027   3.972   5.215  0.00  0.00    +0.040 C 
ATOM     11  C   LIG    1       -0.960   3.166   4.472  0.00  0.00    +0.010 C 
ENDBRANCH   5   6
BRANCH   1  12
ATOM     12  S   LIG    1       -0.860   1.669   1.497  0.00  0.00    +0.060 S 
BRANCH  12  14
ATOM     13  C   LIG    1        1.423   1.615  -0.003  0.00  0.00    +0.090 C 
ATOM     14  C   LIG    1       -0.013   1.086   0.008  0.00  0.00    -0.010 C 
BRANCH  14  15
ATOM     15  C   LIG    1       -0.742   1.585  -1.213  0.00  0.00    +0.420 C 
ATOM     16  O   LIG    1       -1.419   2.589  -1.147  0.00  0.00    -0.430 OA
BRANCH  15  17
ATOM     17  C   LIG    1       -0.631   0.855  -2.485  0.00  0.00    -0.150 A 
ATOM     18  C   LIG    1        0.153  -0.300  -2.567  0.00  0.00    +0.080 A 
ATOM     19  C   LIG    1        0.247  -0.983  -3.761  0.00  0.00    +0.040 A 
ATOM     20  C   LIG    1       -0.424  -0.521  -4.881  0.00  0.00    -0.060 A 
ATOM     21  C   LIG    1       -1.199   0.626  -4.809  0.00  0.00    +0.040 A 
ATOM     22 BR   LIG    1       -0.282  -1.459  -6.516  0.00  0.00    -0.040 Br
ATOM     23  C   LIG    1       -1.307   1.315  -3.620  0.00  0.00    +0.100 A 
ENDBRANCH  15  17
ENDBRANCH  14  15
ENDBRANCH  12  14
ENDBRANCH   1  12
BRANCH   4  24
ATOM     24  C   LIG    1        1.066  -0.156   6.102  0.00  0.00    +0.250 C 
BRANCH  24  25
ATOM     25  C   LIG    1        0.250  -1.351   6.522  0.00  0.00    -0.190 A 
ATOM     26  C   LIG    1        0.670  -2.617   6.495  0.00  0.00    +0.040 A 
ATOM     27  C   LIG    1       -0.255  -3.549   6.933  0.00  0.00    +0.010 A 
ATOM     28  C   LIG    1       -1.430  -3.040   7.307  0.00  0.00    -0.030 A 
ATOM     29  S   LIG    1       -1.404  -1.292   7.117  0.00  0.00    +0.090 S 
ENDBRANCH  24  25
ENDBRANCH   4  24
TORSDOF 7
