REMARK  Name = ZINCpk00000xIhQa.0
REMARK                            x       y       z     vdW  Elec       q    Type
REMARK                         _______ _______ _______ _____ _____    ______ ____
ROOT
ATOM      1  C   LIG    1       -6.814   5.218  -0.217  0.00  0.00    +0.540 C 
ATOM      2  N   LIG    1       -7.235   6.476   0.017  0.00  0.00    -0.590 N 
ATOM      3  O   LIG    1       -5.630   4.956  -0.176  0.00  0.00    -0.510 OA
ENDROOT
BRANCH   2   4
ATOM      4  C   LIG    1       -6.258   7.549   0.220  0.00  0.00    +0.280 C 
ATOM      5  C   LIG    1       -5.329   7.655  -1.002  0.00  0.00    +0.080 C 
ATOM      6  C   LIG    1       -4.121   8.537  -0.630  0.00  0.00    -0.310 C 
ATOM      7  S   LIG    1       -3.917   8.329   1.176  0.00  0.00    +2.390 S 
ATOM      8  O   LIG    1       -2.718   7.612   1.435  0.00  0.00    -0.930 OA
ATOM      9  O   LIG    1       -4.156   9.571   1.823  0.00  0.00    -0.930 OA
ATOM     10  C   LIG    1       -5.355   7.222   1.437  0.00  0.00    -0.310 C 
ENDBRANCH   2   4
BRANCH   1  11
ATOM     11  C   LIG    1       -7.814   4.134  -0.530  0.00  0.00    +0.100 C 
BRANCH  11  12
ATOM     12  S   LIG    1       -6.940   2.577  -0.846  0.00  0.00    +0.120 S 
BRANCH  12  17
ATOM     13  N   LIG    1      -10.536  -1.686  -2.058  0.00  0.00    -0.800 N 
ATOM     14  C   LIG    1       -9.866  -0.510  -1.742  0.00  0.00    +0.340 A 
ATOM     15  N   LIG    1      -10.389   0.665  -1.502  0.00  0.00    -0.370 NA
ATOM     16  N   LIG    1       -9.534   1.701  -1.202  0.00  0.00    -0.270 NA
ATOM     17  C   LIG    1       -8.250   1.449  -1.187  0.00  0.00    +0.010 A 
ATOM     18  S   LIG    1       -8.115  -0.274  -1.585  0.00  0.00    +0.050 S 
ATOM     19  H   LIG    1      -11.505  -1.692  -2.111  0.00  0.00    +0.420 HD
ATOM     20  H   LIG    1      -10.036  -2.500  -2.221  0.00  0.00    +0.420 HD
ENDBRANCH  12  17
ENDBRANCH  11  12
ENDBRANCH   1  11
BRANCH   2  21
ATOM     21  C   LIG    1       -8.669   6.772   0.068  0.00  0.00    +0.340 C 
BRANCH  21  22
ATOM     22  C   LIG    1       -9.136   6.746   1.500  0.00  0.00    -0.120 A 
ATOM     23  C   LIG    1       -9.595   5.567   2.057  0.00  0.00    +0.010 A 
ATOM     24  C   LIG    1      -10.019   5.543   3.372  0.00  0.00    +0.000 A 
ATOM     25  C   LIG    1       -9.994   6.700   4.128  0.00  0.00    +0.010 A 
ATOM     26  C   LIG    1       -9.541   7.880   3.569  0.00  0.00    +0.010 A 
ATOM     27  C   LIG    1       -9.112   7.904   2.255  0.00  0.00    +0.020 A 
ENDBRANCH  21  22
ENDBRANCH   2  21
TORSDOF 6
