REMARK  Name = ZINCrD00000l6zty.0
REMARK                            x       y       z     vdW  Elec       q    Type
REMARK                         _______ _______ _______ _____ _____    ______ ____
ROOT
ATOM      1  C   LIG    1        0.002  -0.004   0.002  0.00  0.00    +0.020 C 
ATOM      2  C   LIG    1       -0.019   1.526   0.010  0.00  0.00    +0.090 C 
ENDROOT
BRANCH   1   3
ATOM      3  C   LIG    1        0.707  -0.490  -1.238  0.00  0.00    +0.540 C 
ATOM      4  N   LIG    1        0.053  -0.526  -2.415  0.00  0.00    -0.550 N 
ATOM      5  C   LIG    1       -1.352  -0.102  -2.516  0.00  0.00    +0.340 C 
ATOM      6  C   LIG    1       -2.097  -1.062  -3.401  0.00  0.00    +0.510 C 
ATOM      7  N   LIG    1       -1.463  -1.727  -4.385  0.00  0.00    -0.660 N 
ATOM      8  H   LIG    1       -1.966  -2.319  -4.966  0.00  0.00    +0.420 HD
ATOM      9  C   LIG    1       -0.086  -1.575  -4.579  0.00  0.00    +0.130 A 
ATOM     10  C   LIG    1        0.520  -2.019  -5.744  0.00  0.00    +0.010 A 
ATOM     11  C   LIG    1        1.884  -1.868  -5.911  0.00  0.00    +0.030 A 
ATOM     12  C   LIG    1        2.649  -1.277  -4.922  0.00  0.00    +0.010 A 
ATOM     13  C   LIG    1        2.052  -0.828  -3.757  0.00  0.00    +0.060 A 
ATOM     14  O   LIG    1       -3.283  -1.242  -3.224  0.00  0.00    -0.510 OA
ATOM     15  C   LIG    1        0.688  -0.975  -3.584  0.00  0.00    +0.110 A 
ATOM     16  O   LIG    1        1.865  -0.849  -1.176  0.00  0.00    -0.490 OA
ENDBRANCH   1   3
BRANCH   1  17
ATOM     17  S   LIG    1        0.877  -0.604   1.468  0.00  0.00    +0.030 S 
BRANCH  17  21
ATOM     18  C   LIG    1       -3.388   1.820   2.879  0.00  0.00    +0.150 C 
ATOM     19  C   LIG    1       -2.155   1.070   3.314  0.00  0.00    +0.180 A 
ATOM     20  N   LIG    1       -1.312   0.628   2.401  0.00  0.00    -0.490 NA
ATOM     21  C   LIG    1       -0.214  -0.036   2.730  0.00  0.00    +0.150 A 
ATOM     22  C   LIG    1        0.082  -0.295   4.080  0.00  0.00    -0.070 A 
ATOM     23  C   LIG    1       -0.798   0.170   5.064  0.00  0.00    +0.030 A 
ATOM     24  C   LIG    1       -0.522  -0.077   6.525  0.00  0.00    +0.120 C 
ATOM     25  C   LIG    1       -1.929   0.858   4.662  0.00  0.00    -0.150 A 
ATOM     26  C   LIG    1       -2.908   1.373   5.686  0.00  0.00    +0.120 C 
BRANCH  22  27
ATOM     27  C   LIG    1        1.265  -1.017   4.441  0.00  0.00    +0.250 C 
ATOM     28  N   LIG    1        2.203  -1.590   4.728  0.00  0.00    -0.390 NA
ENDBRANCH  22  27
ENDBRANCH  17  21
ENDBRANCH   1  17
TORSDOF 4
