REMARK  Name = ZINCrg00000Ii0yZ.0
REMARK                            x       y       z     vdW  Elec       q    Type
REMARK                         _______ _______ _______ _____ _____    ______ ____
ROOT
ATOM      1  C   LIG    1        5.356   1.298   1.948  0.00  0.00    +0.340 C 
ATOM      2  N   LIG    1        4.483   0.197   2.361  0.00  0.00    -0.480 N 
ATOM      3  C   LIG    1        4.742  -0.749   3.314  0.00  0.00    +0.180 A 
ATOM      4  N   LIG    1        3.708  -1.539   3.367  0.00  0.00    -0.250 NA
ATOM      5  N   LIG    1        2.817  -1.157   2.523  0.00  0.00    -0.310 NA
ATOM      6  C   LIG    1        3.243  -0.099   1.874  0.00  0.00    +0.360 A 
ENDROOT
BRANCH   6   7
ATOM      7  N   LIG    1        2.560   0.591   0.885  0.00  0.00    -0.450 N 
ATOM      8  C   LIG    1        1.251  -0.021   0.625  0.00  0.00    +0.250 C 
ATOM      9  C   LIG    1        0.596   0.668  -0.576  0.00  0.00    +0.080 C 
ATOM     10  C   LIG    1        0.454   2.159  -0.286  0.00  0.00    +0.120 C 
ATOM     11  N   LIG    1       -0.499   2.383   0.808  0.00  0.00    -0.720 N 
ATOM     12  H   LIG    1       -0.421   2.065   1.721  0.00  0.00    +0.440 HD
ATOM     13  C   LIG    1       -1.504   3.118   0.292  0.00  0.00    +0.710 C 
ATOM     14  N   LIG    1       -1.319   3.398  -1.004  0.00  0.00    -0.680 N 
ATOM     15  H   LIG    1       -1.937   3.916  -1.543  0.00  0.00    +0.440 HD
ATOM     16  O   LIG    1       -2.470   3.485   0.932  0.00  0.00    -0.540 OA
ATOM     17  C   LIG    1        1.810   2.769   0.052  0.00  0.00    +0.090 C 
ATOM     18  C   LIG    1       -0.167   2.870  -1.466  0.00  0.00    +0.540 C 
ATOM     19  O   LIG    1        0.277   2.950  -2.592  0.00  0.00    -0.450 OA
ATOM     20  C   LIG    1        2.426   2.012   1.232  0.00  0.00    +0.190 C 
ENDBRANCH   6   7
BRANCH   3  21
ATOM     21  C   LIG    1        5.992  -0.857   4.149  0.00  0.00    +0.220 C 
BRANCH  21  22
ATOM     22  C   LIG    1        6.943  -1.833   3.505  0.00  0.00    -0.050 A 
ATOM     23  C   LIG    1        7.952  -1.373   2.682  0.00  0.00    -0.010 A 
ATOM     24  C   LIG    1        8.828  -2.272   2.090  0.00  0.00    +0.120 A 
ATOM     25  C   LIG    1        8.688  -3.631   2.326  0.00  0.00    +0.000 A 
ATOM     26  C   LIG    1        7.677  -4.088   3.151  0.00  0.00    +0.070 A 
ATOM     27  C   LIG    1        6.809  -3.189   3.744  0.00  0.00    -0.090 A 
ATOM     28 BR   LIG    1        5.431  -3.816   4.878  0.00  0.00    -0.020 Br
BRANCH  24  29
ATOM     29  O   LIG    1        9.821  -1.821   1.280  0.00  0.00    -0.500 OA
ATOM     30  H   LIG    1       10.648  -1.625   1.742  0.00  0.00    +0.400 HD
ENDBRANCH  24  29
ENDBRANCH  21  22
ENDBRANCH   3  21
TORSDOF 4
