REMARK  Name = ZINCrD00000hQ5P3.0
REMARK                            x       y       z     vdW  Elec       q    Type
REMARK                         _______ _______ _______ _____ _____    ______ ____
ROOT
ATOM      1  O   LIG    1       -0.169   2.295  -2.013  0.00  0.00    -0.530 OA
ATOM      2  C   LIG    1       -0.742   1.585  -1.213  0.00  0.00    +0.530 C 
ATOM      3  N   LIG    1       -2.029   1.243  -1.416  0.00  0.00    -0.620 N 
ATOM      4  C   LIG    1       -2.842   0.392  -0.528  0.00  0.00    +0.260 C 
ATOM      5  C   LIG    1       -3.947  -0.193  -1.443  0.00  0.00    +0.020 C 
ATOM      6  C   LIG    1       -4.244   1.008  -2.379  0.00  0.00    +0.250 C 
ATOM      7  C   LIG    1       -2.858   1.662  -2.555  0.00  0.00    +0.250 C 
ENDROOT
BRANCH   2   8
ATOM      8  C   LIG    1       -0.013   1.086   0.008  0.00  0.00    +0.000 C 
ATOM      9  C   LIG    1       -0.729   1.579   1.267  0.00  0.00    +0.020 C 
ATOM     10  C   LIG    1        0.011   1.072   2.506  0.00  0.00    +0.020 C 
ATOM     11  C   LIG    1        1.446   1.602   2.495  0.00  0.00    -0.010 C 
ATOM     12  C   LIG    1        1.426   3.132   2.504  0.00  0.00    +0.010 C 
ATOM     13  C   LIG    1        2.861   3.661   2.493  0.00  0.00    +0.000 C 
ATOM     14  C   LIG    1        3.577   3.168   1.234  0.00  0.00    +0.010 C 
ATOM     15  C   LIG    1        3.598   1.638   1.226  0.00  0.00    +0.010 C 
ATOM     16  C   LIG    1        2.163   1.109   1.237  0.00  0.00    -0.010 C 
ATOM     17  C   LIG    1        1.423   1.615  -0.003  0.00  0.00    +0.050 C 
ENDBRANCH   2   8
BRANCH   6  18
ATOM     18  N   LIG    1       -4.769   0.544  -3.666  0.00  0.00    -0.690 N 
ATOM     19  H   LIG    1       -4.166   0.396  -4.411  0.00  0.00    +0.420 HD
BRANCH  18  20
ATOM     20  C   LIG    1       -6.133   0.315  -3.819  0.00  0.00    +0.420 A 
ATOM     21  N   LIG    1       -6.942   0.512  -2.805  0.00  0.00    -0.350 NA
ATOM     22  N   LIG    1       -8.317   0.293  -2.938  0.00  0.00    -0.250 N 
ATOM     23  C   LIG    1       -9.363   0.418  -2.075  0.00  0.00    +0.170 A 
ATOM     24  C   LIG    1      -10.483   0.063  -2.748  0.00  0.00    +0.200 A 
ATOM     25  N   LIG    1      -10.143  -0.272  -3.992  0.00  0.00    -0.460 NA
ATOM     26  C   LIG    1       -8.830  -0.140  -4.133  0.00  0.00    +0.140 A 
ATOM     27  C   LIG    1       -7.960  -0.357  -5.219  0.00  0.00    +0.180 A 
ATOM     28  C   LIG    1       -6.629  -0.131  -5.059  0.00  0.00    -0.050 A 
ENDBRANCH  18  20
ENDBRANCH   6  18
TORSDOF 3
