REMARK  Name = ZINCvU0000000Dk2.0
REMARK                            x       y       z     vdW  Elec       q    Type
REMARK                         _______ _______ _______ _____ _____    ______ ____
ROOT
ATOM      1  C   LIG    1       -1.148  -2.115   0.001  0.00  0.00    +0.150 A 
ATOM      2  C   LIG    1       -1.194  -0.740   0.009  0.00  0.00    -0.010 A 
ATOM      3  C   LIG    1        0.002  -0.004   0.002  0.00  0.00    +0.190 A 
ATOM      4  N   LIG    1       -0.016   1.334   0.009  0.00  0.00    -0.490 NA
ATOM      5  C   LIG    1        1.097   2.042   0.003  0.00  0.00    +0.150 A 
ATOM      6  C   LIG    1        2.355   1.431  -0.012  0.00  0.00    -0.020 A 
ATOM      7  C   LIG    1        2.444   0.049  -0.021  0.00  0.00    +0.050 A 
ATOM      8  C   LIG    1        1.237  -0.697  -0.013  0.00  0.00    -0.130 A 
ATOM      9  C   LIG    1        1.251  -2.098  -0.021  0.00  0.00    +0.090 A 
ATOM     10  C   LIG    1        0.077  -2.788  -0.014  0.00  0.00    -0.050 A 
ENDROOT
BRANCH   7  11
ATOM     11  C   LIG    1        3.761  -0.631  -0.036  0.00  0.00    -0.060 A 
ATOM     12  C   LIG    1        4.038  -1.642   0.884  0.00  0.00    +0.030 A 
ATOM     13  C   LIG    1        5.264  -2.274   0.861  0.00  0.00    +0.010 A 
ATOM     14  C   LIG    1        6.221  -1.900  -0.065  0.00  0.00    +0.020 A 
ATOM     15  C   LIG    1        5.954  -0.894  -0.977  0.00  0.00    +0.010 A 
ATOM     16  C   LIG    1        4.730  -0.258  -0.967  0.00  0.00    +0.030 A 
ENDBRANCH   7  11
BRANCH   1  18
ATOM     17  C   LIG    1       -2.191  -4.251  -0.002  0.00  0.00    +0.240 C 
ATOM     18  O   LIG    1       -2.305  -2.827   0.007  0.00  0.00    -0.310 OA
ENDBRANCH   1  18
BRANCH   5  19
ATOM     19  S   LIG    1        0.996   3.801   0.013  0.00  0.00    +0.010 S 
BRANCH  19  20
ATOM     20  C   LIG    1       -0.802   4.013   0.031  0.00  0.00    +0.110 C 
BRANCH  20  21
ATOM     21  C   LIG    1       -1.134   5.483   0.042  0.00  0.00    +0.380 C 
ATOM     22  O   LIG    1       -0.247   6.302   0.038  0.00  0.00    -0.400 OA
BRANCH  21  23
ATOM     23  C   LIG    1       -2.573   5.929   0.058  0.00  0.00    +0.230 C 
BRANCH  23  24
ATOM     24  C   LIG    1       -2.666   7.305   0.667  0.00  0.00    +0.020 A 
ATOM     25  N   LIG    1       -3.342   7.600   1.725  0.00  0.00    -0.450 NA
ATOM     26  C   LIG    1       -3.315   8.856   2.125  0.00  0.00    +0.060 A 
ATOM     27  C   LIG    1       -2.574   9.665   1.361  0.00  0.00    -0.080 A 
ATOM     28  C   LIG    1       -4.057   9.340   3.344  0.00  0.00    +0.160 C 
ATOM     29  S   LIG    1       -1.883   8.698   0.060  0.00  0.00    +0.200 S 
ENDBRANCH  23  24
BRANCH  23  30
ATOM     30  C   LIG    1       -3.091   5.967  -1.319  0.00  0.00    +0.200 C 
ATOM     31  N   LIG    1       -3.490   5.996  -2.382  0.00  0.00    -0.370 NA
ENDBRANCH  23  30
ENDBRANCH  21  23
ENDBRANCH  20  21
ENDBRANCH  19  20
ENDBRANCH   5  19
TORSDOF 8
