REMARK  Name = ZINCrg00000ypDga.0
REMARK                            x       y       z     vdW  Elec       q    Type
REMARK                         _______ _______ _______ _____ _____    ______ ____
ROOT
ATOM      1  N   LIG    1        2.710   3.866  -4.032  0.00  0.00    -0.440 N 
ATOM      2  C   LIG    1        1.841   4.809  -3.316  0.00  0.00    +0.230 C 
ATOM      3  C   LIG    1        2.411   5.062  -1.916  0.00  0.00    +0.320 C 
ATOM      4  N   LIG    1        2.605   3.766  -1.249  0.00  0.00    -1.000 NA
ATOM      5  C   LIG    1        3.356   2.722  -1.962  0.00  0.00    +0.320 C 
ATOM      6  C   LIG    1        2.744   2.559  -3.363  0.00  0.00    +0.180 C 
ENDROOT
BRANCH   1  10
ATOM      7  C   LIG    1        2.184   3.143  -7.446  0.00  0.00    +0.150 A 
ATOM      8  N   LIG    1        1.241   3.998  -7.168  0.00  0.00    -0.270 NA
ATOM      9  N   LIG    1        1.312   4.348  -5.934  0.00  0.00    -0.320 NA
ATOM     10  C   LIG    1        2.319   3.737  -5.355  0.00  0.00    +0.360 A 
ATOM     11  N   LIG    1        2.905   2.946  -6.300  0.00  0.00    -0.480 N 
ATOM     12  C   LIG    1        4.065   2.069  -6.125  0.00  0.00    +0.340 C 
BRANCH   7  13
ATOM     13  C   LIG    1        2.436   2.492  -8.781  0.00  0.00    +0.230 C 
ATOM     14  C   LIG    1        2.496   0.973  -8.605  0.00  0.00    +0.070 C 
BRANCH  13  16
ATOM     15  C   LIG    1        4.005   2.355 -10.721  0.00  0.00    +0.040 C 
ATOM     16  C   LIG    1        3.765   2.993  -9.351  0.00  0.00    -0.010 C 
ENDBRANCH  13  16
BRANCH  13  17
ATOM     17  O   LIG    1        1.376   2.825  -9.681  0.00  0.00    -0.530 OA
ATOM     18  H   LIG    1        1.279   3.774  -9.839  0.00  0.00    +0.390 HD
ENDBRANCH  13  17
ENDBRANCH   7  13
ENDBRANCH   1  10
BRANCH   4  19
ATOM     19  S   LIG    1        1.999   3.491   0.268  0.00  0.00    +2.700 S 
ATOM     20  O   LIG    1        2.782   2.447   0.829  0.00  0.00    -0.950 OA
ATOM     21  O   LIG    1        1.851   4.766   0.878  0.00  0.00    -0.940 OA
BRANCH  19  22
ATOM     22  C   LIG    1        0.373   2.842   0.070  0.00  0.00    -0.700 A 
ATOM     23  C   LIG    1        0.181   1.477  -0.030  0.00  0.00    +0.160 A 
ATOM     24  C   LIG    1       -1.093   0.967  -0.185  0.00  0.00    -0.030 A 
ATOM     25  C   LIG    1       -2.179   1.824  -0.245  0.00  0.00    +0.160 A 
ATOM     26  C   LIG    1       -1.987   3.191  -0.138  0.00  0.00    -0.020 A 
ATOM     27  F   LIG    1       -3.425   1.327  -0.402  0.00  0.00    -0.130 F 
ATOM     28  C   LIG    1       -0.711   3.699   0.017  0.00  0.00    +0.160 A 
ENDBRANCH  19  22
ENDBRANCH   4  19
TORSDOF 6
