REMARK  Name = ZINCvU0000000IHz.0
REMARK                            x       y       z     vdW  Elec       q    Type
REMARK                         _______ _______ _______ _____ _____    ______ ____
ROOT
ATOM      1  N   LIG    1       -4.170  -7.297  -1.303  0.00  0.00    -0.620 N 
ATOM      2  H   LIG    1       -5.101  -7.037  -1.219  0.00  0.00    +0.420 HD
ATOM      3  C   LIG    1       -3.207  -6.355  -1.331  0.00  0.00    +0.510 C 
ATOM      4  O   LIG    1       -2.043  -6.680  -1.437  0.00  0.00    -0.470 OA
ENDROOT
BRANCH   1   8
ATOM      5  C   LIG    1       -4.163 -10.851  -1.474  0.00  0.00    +0.130 A 
ATOM      6  C   LIG    1       -2.823 -10.913  -1.580  0.00  0.00    -0.110 A 
ATOM      7  S   LIG    1       -2.192  -9.268  -1.558  0.00  0.00    +0.200 S 
ATOM      8  C   LIG    1       -3.830  -8.641  -1.394  0.00  0.00    +0.270 A 
ATOM      9  N   LIG    1       -4.669  -9.629  -1.377  0.00  0.00    -0.490 NA
BRANCH   5  15
ATOM     10  C   LIG    1       -5.405 -15.268  -3.442  0.00  0.00    +0.100 C 
ATOM     11  C   LIG    1       -5.615 -14.189  -2.411  0.00  0.00    -0.090 A 
ATOM     12  C   LIG    1       -6.604 -14.331  -1.455  0.00  0.00    +0.010 A 
ATOM     13  C   LIG    1       -6.803 -13.345  -0.505  0.00  0.00    +0.010 A 
ATOM     14  C   LIG    1       -6.013 -12.213  -0.507  0.00  0.00    -0.060 A 
ATOM     15  C   LIG    1       -5.014 -12.065  -1.468  0.00  0.00    -0.020 A 
ATOM     16  C   LIG    1       -6.230 -11.140   0.529  0.00  0.00    +0.100 C 
ATOM     17  C   LIG    1       -4.823 -13.059  -2.426  0.00  0.00    +0.020 A 
ENDBRANCH   5  15
ENDBRANCH   1   8
BRANCH   3  18
ATOM     18  C   LIG    1       -3.576  -4.897  -1.233  0.00  0.00    +0.240 C 
BRANCH  18  19
ATOM     19  N   LIG    1       -2.357  -4.078  -1.287  0.00  0.00    -0.510 NA
ATOM     20  C   LIG    1       -1.709  -4.187  -2.601  0.00  0.00    +0.210 C 
BRANCH  19  21
ATOM     21  C   LIG    1       -2.649  -2.677  -0.958  0.00  0.00    +0.220 C 
BRANCH  21  22
ATOM     22  C   LIG    1       -1.357  -1.922  -0.783  0.00  0.00    +0.510 C 
ATOM     23  N   LIG    1       -1.379  -0.610  -0.475  0.00  0.00    -0.680 N 
ATOM     24  H   LIG    1       -2.223  -0.170  -0.288  0.00  0.00    +0.410 HD
ATOM     25  O   LIG    1       -0.296  -2.495  -0.919  0.00  0.00    -0.470 OA
BRANCH  23  26
ATOM     26  C   LIG    1       -0.183   0.118  -0.426  0.00  0.00    +0.160 A 
ATOM     27  C   LIG    1        0.883  -0.345   0.335  0.00  0.00    -0.020 A 
ATOM     28  C   LIG    1        2.061   0.376   0.381  0.00  0.00    +0.050 A 
ATOM     29  C   LIG    1        2.180   1.556  -0.330  0.00  0.00    +0.050 A 
ATOM     30  C   LIG    1        1.121   2.019  -1.089  0.00  0.00    +0.040 A 
ATOM     31 CL   LIG    1        0.732  -1.822   1.234  0.00  0.00    -0.030 Cl
ATOM     32  C   LIG    1       -0.061   1.304  -1.140  0.00  0.00    -0.040 A 
ATOM     33 CL   LIG    1       -1.389   1.886  -2.093  0.00  0.00    -0.050 Cl
ENDBRANCH  23  26
ENDBRANCH  21  22
ENDBRANCH  19  21
ENDBRANCH  18  19
ENDBRANCH   3  18
TORSDOF 7
