REMARK  Name = ZINCqH0000008Fq9.0
REMARK                            x       y       z     vdW  Elec       q    Type
REMARK                         _______ _______ _______ _____ _____    ______ ____
ROOT
ATOM      1  N   LIG    1       -2.217   3.449  -1.162  0.00  0.00    -0.730 N 
ATOM      2  H   LIG    1       -1.276   3.567  -0.960  0.00  0.00    +0.390 HD
ATOM      3  C   LIG    1       -2.662   2.269  -1.638  0.00  0.00    +0.590 C 
ATOM      4  O   LIG    1       -3.842   2.121  -1.891  0.00  0.00    -0.510 OA
ENDROOT
BRANCH   3   5
ATOM      5  C   LIG    1       -1.719   1.159  -1.851  0.00  0.00    -0.030 A 
ATOM      6  C   LIG    1       -2.020  -0.102  -2.329  0.00  0.00    +0.030 A 
ATOM      7  C   LIG    1       -0.792  -0.791  -2.358  0.00  0.00    +0.100 A 
ATOM      8  N   LIG    1        0.137   0.035  -1.922  0.00  0.00    -0.250 NA
ATOM      9  N   LIG    1       -0.372   1.174  -1.620  0.00  0.00    -0.370 N 
ATOM     10  H   LIG    1        0.126   1.934  -1.279  0.00  0.00    +0.450 HD
BRANCH   7  11
ATOM     11  C   LIG    1       -0.584  -2.189  -2.798  0.00  0.00    -0.120 A 
ATOM     12  C   LIG    1        0.601  -2.830  -2.817  0.00  0.00    +0.040 A 
ATOM     13  C   LIG    1        0.544  -4.133  -3.270  0.00  0.00    +0.000 A 
ATOM     14  C   LIG    1       -0.673  -4.558  -3.619  0.00  0.00    -0.040 A 
ATOM     15  S   LIG    1       -1.846  -3.272  -3.370  0.00  0.00    +0.140 S 
ENDBRANCH   7  11
ENDBRANCH   3   5
BRANCH   1  16
ATOM     16  C   LIG    1       -3.156   4.553  -0.950  0.00  0.00    +0.270 C 
BRANCH  16  17
ATOM     17  C   LIG    1       -2.400   5.768  -0.409  0.00  0.00    +0.190 C 
BRANCH  17  28
ATOM     18  C   LIG    1       -1.718   8.228  -1.433  0.00  0.00    +0.050 C 
ATOM     19  C   LIG    1       -2.647   8.165  -0.218  0.00  0.00    +0.180 C 
ATOM     20  C   LIG    1       -1.823   8.302   1.068  0.00  0.00    +0.000 C 
ATOM     21  C   LIG    1       -2.798   8.437   2.240  0.00  0.00    +0.080 C 
ATOM     22  C   LIG    1       -3.869   7.381   2.133  0.00  0.00    -0.120 A 
ATOM     23  C   LIG    1       -4.648   7.125   3.250  0.00  0.00    +0.010 A 
ATOM     24  C   LIG    1       -5.651   6.178   3.203  0.00  0.00    -0.010 A 
ATOM     25  C   LIG    1       -5.882   5.477   2.033  0.00  0.00    +0.020 A 
ATOM     26  C   LIG    1       -5.109   5.723   0.919  0.00  0.00    +0.010 A 
ATOM     27  C   LIG    1       -4.092   6.678   0.962  0.00  0.00    +0.100 A 
ATOM     28  N   LIG    1       -3.341   6.876  -0.196  0.00  0.00    -0.490 N 
ENDBRANCH  17  28
ENDBRANCH  16  17
ENDBRANCH   1  16
TORSDOF 5
