REMARK  Name = ZINCvU00000007Io.0
REMARK                            x       y       z     vdW  Elec       q    Type
REMARK                         _______ _______ _______ _____ _____    ______ ____
ROOT
ATOM      1  C   LIG    1        1.167   3.567   0.010  0.00  0.00    +0.560 C 
ATOM      2  N   LIG    1        2.327   4.255   0.002  0.00  0.00    -0.620 N 
ATOM      3  H   LIG    1        3.172   3.779  -0.008  0.00  0.00    +0.420 HD
ATOM      4  O   LIG    1        0.108   4.163   0.022  0.00  0.00    -0.490 OA
ENDROOT
BRANCH   2   5
ATOM      5  C   LIG    1        2.311   5.642   0.009  0.00  0.00    +0.230 A 
ATOM      6  N   LIG    1        3.367   6.395   0.008  0.00  0.00    -0.500 NA
ATOM      7  C   LIG    1        3.190   7.700   0.015  0.00  0.00    +0.110 A 
ATOM      8  C   LIG    1        1.871   8.056   0.014  0.00  0.00    -0.260 A 
ATOM      9  C   LIG    1        1.447   9.468   0.016  0.00  0.00    +0.000 A 
ATOM     10  C   LIG    1        0.141   9.851   0.289  0.00  0.00    +0.010 A 
ATOM     11  C   LIG    1       -0.188  11.193   0.300  0.00  0.00    +0.010 A 
ATOM     12  C   LIG    1        0.780  12.144   0.030  0.00  0.00    +0.010 A 
ATOM     13  C   LIG    1        2.076  11.764  -0.271  0.00  0.00    +0.020 A 
ATOM     14  C   LIG    1        2.417  10.428  -0.302  0.00  0.00    -0.070 A 
ATOM     15  C   LIG    1        3.798  10.003  -0.718  0.00  0.00    +0.090 C 
ATOM     16  C   LIG    1        4.274   8.763   0.033  0.00  0.00    +0.140 C 
ATOM     17  S   LIG    1        0.896   6.603   0.028  0.00  0.00    +0.290 S 
ENDBRANCH   2   5
BRANCH   1  20
ATOM     18  C   LIG    1        0.002  -0.004   0.002  0.00  0.00    +0.150 A 
ATOM     19  C   LIG    1       -0.017   1.378   0.010  0.00  0.00    -0.020 A 
ATOM     20  C   LIG    1        1.185   2.092   0.002  0.00  0.00    -0.060 A 
ATOM     21  C   LIG    1        2.402   1.406  -0.013  0.00  0.00    -0.060 A 
ATOM     22  C   LIG    1        2.415   0.024  -0.020  0.00  0.00    +0.150 A 
ATOM     23  C   LIG    1        1.216  -0.685  -0.013  0.00  0.00    +0.070 A 
BRANCH  18  24
ATOM     24  O   LIG    1       -1.167  -0.699   0.009  0.00  0.00    -0.300 OA
BRANCH  24  26
ATOM     25  C   LIG    1       -3.576  -0.885   0.030  0.00  0.00    +0.070 C 
ATOM     26  C   LIG    1       -2.375   0.063   0.024  0.00  0.00    +0.190 C 
ENDBRANCH  24  26
ENDBRANCH  18  24
BRANCH  22  27
ATOM     27  O   LIG    1        3.599  -0.644  -0.034  0.00  0.00    -0.300 OA
BRANCH  27  28
ATOM     28  C   LIG    1        4.790   0.146  -0.041  0.00  0.00    +0.190 C 
ATOM     29  C   LIG    1        6.013  -0.774  -0.057  0.00  0.00    +0.070 C 
ENDBRANCH  27  28
ENDBRANCH  22  27
BRANCH  23  30
ATOM     30  O   LIG    1        1.232  -2.044  -0.021  0.00  0.00    -0.310 OA
BRANCH  30  31
ATOM     31  C   LIG    1        1.227  -2.686  -1.297  0.00  0.00    +0.160 C 
ATOM     32  C   LIG    1        1.247  -4.204  -1.105  0.00  0.00    +0.070 C 
ENDBRANCH  30  31
ENDBRANCH  23  30
ENDBRANCH   1  20
TORSDOF 8
