REMARK  Name = ZINCvU00000008v1.0
REMARK                            x       y       z     vdW  Elec       q    Type
REMARK                         _______ _______ _______ _____ _____    ______ ____
ROOT
ATOM      1  C   LIG    1       -0.148   1.182   2.381  0.00  0.00    +0.100 A 
ATOM      2  C   LIG    1        0.987   0.395   2.420  0.00  0.00    +0.000 A 
ATOM      3  C   LIG    1        1.535   0.026   3.651  0.00  0.00    -0.060 A 
ATOM      4  C   LIG    1        0.926   0.446   4.837  0.00  0.00    +0.070 A 
ATOM      5  C   LIG    1       -0.210   1.226   4.790  0.00  0.00    -0.040 A 
ATOM      6  C   LIG    1       -0.750   1.597   3.567  0.00  0.00    +0.120 A 
ENDROOT
BRANCH   1   8
ATOM      7  C   LIG    1       -0.013   1.086   0.008  0.00  0.00    +0.240 C 
ATOM      8  O   LIG    1       -0.682   1.547   1.184  0.00  0.00    -0.300 OA
ENDBRANCH   1   8
BRANCH   3   9
ATOM      9  C   LIG    1        2.750  -0.808   3.700  0.00  0.00    +0.250 C 
ATOM     10  N   LIG    1        3.253  -1.153   4.841  0.00  0.00    -0.360 NA
BRANCH  10  11
ATOM     11  O   LIG    1        4.257  -1.842   4.881  0.00  0.00    -0.120 OA
BRANCH  11  12
ATOM     12  C   LIG    1        4.729  -2.165   6.100  0.00  0.00    +0.510 C 
ATOM     13  O   LIG    1        4.157  -1.771   7.097  0.00  0.00    -0.450 OA
BRANCH  12  14
ATOM     14  C   LIG    1        5.942  -2.998   6.225  0.00  0.00    -0.090 A 
ATOM     15  C   LIG    1        6.599  -3.458   5.082  0.00  0.00    +0.090 A 
ATOM     16  C   LIG    1        7.734  -4.232   5.206  0.00  0.00    +0.070 A 
ATOM     17  C   LIG    1        8.216  -4.561   6.460  0.00  0.00    -0.150 A 
ATOM     18  C   LIG    1        7.568  -4.114   7.598  0.00  0.00    +0.070 A 
ATOM     19  C   LIG    1        6.435  -3.335   7.488  0.00  0.00    +0.100 A 
BRANCH  17  20
ATOM     20  C   LIG    1        9.454  -5.412   6.588  0.00  0.00    +0.510 C 
ATOM     21  F   LIG    1       10.131  -5.075   7.765  0.00  0.00    -0.170 F 
ATOM     22  F   LIG    1       10.289  -5.188   5.489  0.00  0.00    -0.170 F 
ATOM     23  F   LIG    1        9.089  -6.762   6.630  0.00  0.00    -0.170 F 
ENDBRANCH  17  20
ENDBRANCH  12  14
ENDBRANCH  11  12
ENDBRANCH  10  11
ENDBRANCH   3   9
BRANCH   6  24
ATOM     24  O   LIG    1       -1.869   2.367   3.526  0.00  0.00    -0.290 OA
BRANCH  24  25
ATOM     25  C   LIG    1       -2.435   2.756   4.780  0.00  0.00    +0.240 C 
BRANCH  25  26
ATOM     26  C   LIG    1       -3.660   3.599   4.537  0.00  0.00    -0.100 A 
ATOM     27  C   LIG    1       -3.545   4.973   4.431  0.00  0.00    +0.030 A 
ATOM     28  C   LIG    1       -4.668   5.745   4.204  0.00  0.00    +0.010 A 
ATOM     29  C   LIG    1       -5.909   5.146   4.094  0.00  0.00    +0.010 A 
ATOM     30  C   LIG    1       -6.025   3.773   4.205  0.00  0.00    +0.010 A 
ATOM     31  C   LIG    1       -4.901   2.999   4.427  0.00  0.00    +0.030 A 
ENDBRANCH  25  26
ENDBRANCH  24  25
ENDBRANCH   6  24
TORSDOF 9
