REMARK  Name = ZINCnE000001SB9C.0
REMARK                            x       y       z     vdW  Elec       q    Type
REMARK                         _______ _______ _______ _____ _____    ______ ____
ROOT
ATOM      1  O   LIG    1       -1.080   1.939   0.018  0.00  0.00    -0.600 OA
ATOM      2  C   LIG    1       -0.016   1.344   0.009  0.00  0.00    +0.680 C 
ATOM      3  N   LIG    1        0.002  -0.004   0.002  0.00  0.00    -0.640 N 
ATOM      4  C   LIG    1        1.037  -1.049  -0.013  0.00  0.00    +0.260 C 
ATOM      5  C   LIG    1        0.036  -1.975   0.691  0.00  0.00    +0.020 C 
ATOM      6  C   LIG    1       -1.004  -1.077   0.013  0.00  0.00    +0.280 C 
ENDROOT
BRANCH   6   7
ATOM      7  C   LIG    1       -2.195  -0.775   0.885  0.00  0.00    -0.090 A 
ATOM      8  C   LIG    1       -2.093   0.171   1.889  0.00  0.00    +0.100 A 
ATOM      9  C   LIG    1       -3.186   0.453   2.687  0.00  0.00    -0.030 A 
ATOM     10  C   LIG    1       -4.379  -0.220   2.488  0.00  0.00    +0.090 A 
ATOM     11  C   LIG    1       -4.478  -1.171   1.486  0.00  0.00    -0.030 A 
ATOM     12  F   LIG    1       -5.446   0.050   3.271  0.00  0.00    -0.150 F 
ATOM     13  C   LIG    1       -3.386  -1.447   0.686  0.00  0.00    +0.040 A 
ENDBRANCH   6   7
BRANCH   2  14
ATOM     14  N   LIG    1        1.130   2.026   0.002  0.00  0.00    -0.710 NA
ATOM     15  C   LIG    1        1.111   3.364   0.009  0.00  0.00    +0.350 A 
ATOM     16  C   LIG    1        2.317   4.094   0.002  0.00  0.00    -0.060 A 
ATOM     17  C   LIG    1        2.237   5.459   0.009  0.00  0.00    +0.030 A 
ATOM     18  C   LIG    1        0.967   6.055   0.024  0.00  0.00    -0.030 A 
ATOM     19  N   LIG    1       -0.112   5.321   0.031  0.00  0.00    -0.220 NA
ATOM     20  N   LIG    1       -0.071   4.037   0.019  0.00  0.00    -0.310 NA
BRANCH  18  21
ATOM     21  C   LIG    1        0.847   7.557   0.034  0.00  0.00    +0.020 C 
ATOM     22  C   LIG    1        0.201   8.207   1.259  0.00  0.00    +0.000 C 
ATOM     23  C   LIG    1       -0.558   8.154  -0.069  0.00  0.00    +0.030 C 
ENDBRANCH  18  21
ENDBRANCH   2  14
TORSDOF 3
