REMARK  Name = ZINCrg00000fSloc.0
REMARK                            x       y       z     vdW  Elec       q    Type
REMARK                         _______ _______ _______ _____ _____    ______ ____
ROOT
ATOM      1  C   LIG    1       -2.329  -4.090  -0.302  0.00  0.00    +0.520 C 
ATOM      2  N   LIG    1       -2.345  -2.747  -0.193  0.00  0.00    -0.690 N 
ATOM      3  H   LIG    1       -3.190  -2.271  -0.182  0.00  0.00    +0.410 HD
ATOM      4  C   LIG    1       -1.186  -2.065  -0.099  0.00  0.00    +0.700 C 
ATOM      5  N   LIG    1       -1.202  -0.722   0.010  0.00  0.00    -0.670 N 
ATOM      6  H   LIG    1       -2.046  -0.251   0.088  0.00  0.00    +0.410 HD
ATOM      7  O   LIG    1       -0.127  -2.661  -0.113  0.00  0.00    -0.510 OA
ATOM      8  O   LIG    1       -1.273  -4.685  -0.316  0.00  0.00    -0.430 OA
ENDROOT
BRANCH   5   9
ATOM      9  C   LIG    1        0.003  -0.005   0.010  0.00  0.00    +0.160 A 
ATOM     10  C   LIG    1        1.133  -0.546   0.607  0.00  0.00    +0.040 A 
ATOM     11  C   LIG    1        2.320   0.161   0.608  0.00  0.00    +0.050 A 
ATOM     12  C   LIG    1        2.386   1.412   0.014  0.00  0.00    +0.040 A 
ATOM     13  O   LIG    1        3.564   2.096   0.029  0.00  0.00    -0.310 OA
ATOM     14  C   LIG    1        3.692   3.179  -0.899  0.00  0.00    +0.220 C 
ATOM     15  C   LIG    1        2.410   4.020  -0.835  0.00  0.00    +0.220 C 
ATOM     16  O   LIG    1        1.304   3.180  -1.181  0.00  0.00    -0.310 OA
ATOM     17  C   LIG    1        1.256   1.956  -0.586  0.00  0.00    +0.070 A 
ATOM     18  C   LIG    1        0.065   1.247  -0.586  0.00  0.00    +0.000 A 
ENDBRANCH   5   9
BRANCH   1  19
ATOM     19  C   LIG    1       -3.625  -4.852  -0.407  0.00  0.00    +0.270 C 
BRANCH  19  20
ATOM     20  O   LIG    1       -3.344  -6.273  -0.514  0.00  0.00    -0.310 OA
BRANCH  20  21
ATOM     21  C   LIG    1       -4.402  -7.100  -0.616  0.00  0.00    +0.540 C 
ATOM     22  O   LIG    1       -5.528  -6.647  -0.616  0.00  0.00    -0.490 OA
BRANCH  21  27
ATOM     23  C   LIG    1       -3.649 -12.698  -1.046  0.00  0.00    +0.160 C 
ATOM     24  C   LIG    1       -3.865 -11.211  -0.933  0.00  0.00    +0.120 A 
ATOM     25  C   LIG    1       -2.774 -10.360  -0.828  0.00  0.00    +0.230 A 
ATOM     26  N   LIG    1       -2.957  -9.059  -0.728  0.00  0.00    -0.380 NA
ATOM     27  C   LIG    1       -4.191  -8.561  -0.728  0.00  0.00    +0.020 A 
ATOM     28  C   LIG    1       -5.285  -9.420  -0.829  0.00  0.00    +0.320 A 
ATOM     29  N   LIG    1       -5.092 -10.722  -0.934  0.00  0.00    -0.440 NA
ENDBRANCH  21  27
ENDBRANCH  20  21
ENDBRANCH  19  20
ENDBRANCH   1  19
TORSDOF 5
