REMARK  Name = ZINCnE000001Oy71.0
REMARK                            x       y       z     vdW  Elec       q    Type
REMARK                         _______ _______ _______ _____ _____    ______ ____
ROOT
ATOM      1  C   LIG    1        3.595   6.642  -0.212  0.00  0.00    -0.090 A 
ATOM      2  C   LIG    1        4.812   5.956  -0.221  0.00  0.00    -0.040 A 
ATOM      3  C   LIG    1        5.998   6.647  -0.336  0.00  0.00    +0.100 A 
ATOM      4  C   LIG    1        5.981   8.036  -0.435  0.00  0.00    -0.210 A 
ATOM      5  C   LIG    1        7.228   8.818  -0.556  0.00  0.00    +0.550 A 
ATOM      6  N   LIG    1        7.134  10.162  -0.649  0.00  0.00    -0.640 N 
ATOM      7  H   LIG    1        7.943  10.691  -0.729  0.00  0.00    +0.420 HD
ATOM      8  C   LIG    1        5.943  10.780  -0.631  0.00  0.00    +0.510 A 
ATOM      9  N   LIG    1        4.779  10.116  -0.522  0.00  0.00    -0.560 NA
ATOM     10  S   LIG    1        5.904  12.487  -0.751  0.00  0.00    -0.730 S 
ATOM     11  O   LIG    1        8.311   8.266  -0.573  0.00  0.00    -0.540 OA
ATOM     12  C   LIG    1        4.760   8.732  -0.421  0.00  0.00    +0.190 A 
ATOM     13  C   LIG    1        3.570   8.032  -0.309  0.00  0.00    +0.080 A 
ENDROOT
BRANCH   1  16
ATOM     14  N   LIG    1        2.345   4.545   0.003  0.00  0.00    -0.670 N 
ATOM     15  H   LIG    1        3.192   4.077   0.073  0.00  0.00    +0.410 HD
ATOM     16  C   LIG    1        2.325   5.890  -0.092  0.00  0.00    +0.570 C 
ATOM     17  O   LIG    1        1.265   6.484  -0.079  0.00  0.00    -0.510 OA
BRANCH  14  25
ATOM     18  C   LIG    1        2.313   1.982   1.238  0.00  0.00    +0.110 C 
ATOM     19  C   LIG    1        1.086   2.571   0.592  0.00  0.00    -0.110 A 
ATOM     20  C   LIG    1       -0.101   1.863   0.587  0.00  0.00    -0.020 A 
ATOM     21  C   LIG    1       -1.227   2.402  -0.012  0.00  0.00    +0.000 A 
ATOM     22  C   LIG    1       -1.170   3.653  -0.597  0.00  0.00    +0.050 A 
ATOM     23  C   LIG    1        0.013   4.366  -0.595  0.00  0.00    +0.030 A 
ATOM     24 CL   LIG    1       -0.178   0.294   1.325  0.00  0.00    -0.070 Cl
ATOM     25  C   LIG    1        1.146   3.826   0.000  0.00  0.00    +0.170 A 
ENDBRANCH  14  25
ENDBRANCH   1  16
TORSDOF 2
