REMARK  Name = ZINCqH0000050wF9.0
REMARK                            x       y       z     vdW  Elec       q    Type
REMARK                         _______ _______ _______ _____ _____    ______ ____
ROOT
ATOM      1  C   LIG    1       -0.013   1.086   0.008  0.00  0.00    +0.420 C 
ENDROOT
BRANCH   1   9
ATOM      2  C   LIG    1       -1.181   6.018   5.449  0.00  0.00    +0.100 C 
ATOM      3  C   LIG    1       -1.487   4.719   4.748  0.00  0.00    -0.100 A 
ATOM      4  C   LIG    1       -2.477   3.884   5.248  0.00  0.00    +0.070 A 
ATOM      5  C   LIG    1       -2.776   2.692   4.626  0.00  0.00    +0.040 A 
ATOM      6  C   LIG    1       -2.074   2.317   3.479  0.00  0.00    +0.140 A 
ATOM      7  N   LIG    1       -2.335   1.151   2.835  0.00  0.00    -0.520 NA
ATOM      8  C   LIG    1       -1.682   0.803   1.768  0.00  0.00    +0.580 A 
ATOM      9  N   LIG    1       -0.698   1.558   1.213  0.00  0.00    -0.540 N 
ATOM     10  C   LIG    1       -0.343   2.741   1.767  0.00  0.00    +0.550 A 
ATOM     11  O   LIG    1        0.539   3.426   1.283  0.00  0.00    -0.510 OA
ATOM     12  C   LIG    1       -1.067   3.168   2.973  0.00  0.00    -0.190 A 
ATOM     13  C   LIG    1       -0.781   4.370   3.617  0.00  0.00    +0.100 A 
ENDBRANCH   1   9
BRANCH   1  14
ATOM     14  C   LIG    1       -0.742   1.585  -1.213  0.00  0.00    +0.030 A 
ATOM     15  C   LIG    1       -0.392   2.703  -1.857  0.00  0.00    -0.030 A 
ATOM     16  S   LIG    1       -1.496   2.915  -3.214  0.00  0.00    +0.180 S 
ATOM     17  C   LIG    1       -2.318   1.480  -2.780  0.00  0.00    +0.030 A 
ATOM     18  N   LIG    1       -1.772   0.953  -1.736  0.00  0.00    -0.440 NA
BRANCH  17  19
ATOM     19  C   LIG    1       -3.505   0.909  -3.514  0.00  0.00    +0.330 C 
BRANCH  19  20
ATOM     20  O   LIG    1       -4.709   1.442  -2.958  0.00  0.00    -0.310 OA
BRANCH  20  21
ATOM     21  C   LIG    1       -5.879   1.026  -3.511  0.00  0.00    +0.130 A 
ATOM     22  C   LIG    1       -5.868   0.129  -4.569  0.00  0.00    -0.080 A 
ATOM     23  C   LIG    1       -7.059  -0.296  -5.125  0.00  0.00    +0.050 A 
ATOM     24  C   LIG    1       -8.261   0.181  -4.635  0.00  0.00    -0.030 A 
ATOM     25  C   LIG    1       -8.275   1.079  -3.584  0.00  0.00    +0.050 A 
ATOM     26  C   LIG    1       -7.087   1.503  -3.021  0.00  0.00    -0.020 A 
ENDBRANCH  20  21
ENDBRANCH  19  20
ENDBRANCH  17  19
ENDBRANCH   1  14
TORSDOF 5
