REMARK  Name = ZINCpe000000SGO3.2
REMARK                            x       y       z     vdW  Elec       q    Type
REMARK                         _______ _______ _______ _____ _____    ______ ____
ROOT
ATOM      1  N   LIG    1       -4.737   1.391  -0.708  0.00  0.00    -0.490 NA
ATOM      2  C   LIG    1       -3.377   1.250  -1.291  0.00  0.00    +0.180 C 
ATOM      3  C   LIG    1       -2.789  -0.003  -0.607  0.00  0.00    +0.040 C 
ATOM      4  C   LIG    1       -4.014  -0.828  -0.160  0.00  0.00    +0.060 C 
ATOM      5  C   LIG    1       -5.241  -0.005  -0.610  0.00  0.00    +0.190 C 
ENDROOT
BRANCH   4   6
ATOM      6  C   LIG    1       -4.013  -2.175  -0.835  0.00  0.00    +0.210 A 
ATOM      7  C   LIG    1       -4.027  -3.304  -0.095  0.00  0.00    -0.110 A 
ATOM      8  C   LIG    1       -4.031  -4.559  -0.752  0.00  0.00    +0.550 A 
ATOM      9  N   LIG    1       -4.016  -4.599  -2.100  0.00  0.00    -0.660 N 
ATOM     10  H   LIG    1       -4.019  -5.455  -2.557  0.00  0.00    +0.430 HD
ATOM     11  C   LIG    1       -3.997  -3.458  -2.813  0.00  0.00    +0.700 A 
ATOM     12  O   LIG    1       -3.984  -3.510  -4.028  0.00  0.00    -0.540 OA
ATOM     13  O   LIG    1       -4.049  -5.591  -0.106  0.00  0.00    -0.510 OA
ATOM     14  N   LIG    1       -3.992  -2.260  -2.201  0.00  0.00    -0.640 N 
ATOM     15  H   LIG    1       -3.978  -1.449  -2.732  0.00  0.00    +0.430 HD
ENDBRANCH   4   6
BRANCH   1  20
ATOM     16  N   LIG    1       -6.013   4.663  -1.438  0.00  0.00    -0.600 N 
ATOM     17  C   LIG    1       -7.461   4.521  -1.360  0.00  0.00    +0.260 C 
ATOM     18  C   LIG    1       -7.889   3.134  -1.842  0.00  0.00    +0.020 C 
ATOM     19  C   LIG    1       -7.052   2.081  -1.108  0.00  0.00    +0.040 C 
ATOM     20  C   LIG    1       -5.600   2.203  -1.577  0.00  0.00    +0.130 C 
ATOM     21  C   LIG    1       -5.163   3.638  -1.513  0.00  0.00    +0.530 C 
ATOM     22  O   LIG    1       -3.974   3.878  -1.532  0.00  0.00    -0.530 OA
BRANCH  16  23
ATOM     23  C   LIG    1       -5.455   6.018  -1.432  0.00  0.00    +0.290 C 
BRANCH  23  25
ATOM     24  C   LIG    1       -6.729   6.551  -3.514  0.00  0.00    +0.030 C 
ATOM     25  C   LIG    1       -5.342   6.529  -2.870  0.00  0.00    -0.080 C 
ATOM     26  C   LIG    1       -4.423   5.603  -3.669  0.00  0.00    +0.030 C 
ATOM     27  C   LIG    1       -4.759   7.944  -2.864  0.00  0.00    +0.040 C 
ENDBRANCH  23  25
ENDBRANCH  16  23
ENDBRANCH   1  20
TORSDOF 4
