REMARK  Name = ZINCrH000004mCWq.0
REMARK                            x       y       z     vdW  Elec       q    Type
REMARK                         _______ _______ _______ _____ _____    ______ ____
ROOT
ATOM      1  C   LIG    1        4.819   4.013   0.194  0.00  0.00    +0.220 C 
ENDROOT
BRANCH   1   2
ATOM      2  C   LIG    1        3.532   3.236   0.088  0.00  0.00    +0.520 C 
ATOM      3  N   LIG    1        2.356   3.889   0.001  0.00  0.00    -0.680 N 
ATOM      4  H   LIG    1        2.342   4.856  -0.071  0.00  0.00    +0.410 HD
ATOM      5  O   LIG    1        3.554   2.023   0.082  0.00  0.00    -0.490 OA
BRANCH   3   6
ATOM      6  C   LIG    1        1.155   3.171   0.014  0.00  0.00    +0.150 A 
ATOM      7  C   LIG    1        1.050   2.003   0.758  0.00  0.00    +0.060 A 
ATOM      8  C   LIG    1       -0.137   1.297   0.769  0.00  0.00    +0.040 A 
ATOM      9  C   LIG    1       -1.219   1.749   0.036  0.00  0.00    +0.050 A 
ATOM     10  C   LIG    1       -1.119   2.914  -0.702  0.00  0.00    -0.160 A 
ATOM     11  C   LIG    1        0.065   3.625  -0.718  0.00  0.00    +0.040 A 
BRANCH  10  12
ATOM     12  C   LIG    1       -2.302   3.406  -1.496  0.00  0.00    +0.510 C 
ATOM     13  F   LIG    1       -2.259   4.801  -1.582  0.00  0.00    -0.180 F 
ATOM     14  F   LIG    1       -3.486   3.015  -0.860  0.00  0.00    -0.170 F 
ATOM     15  F   LIG    1       -2.262   2.858  -2.782  0.00  0.00    -0.170 F 
ENDBRANCH  10  12
ENDBRANCH   3   6
ENDBRANCH   1   2
BRANCH   1  16
ATOM     16  N   LIG    1        5.949   3.079   0.276  0.00  0.00    -0.520 NA
ATOM     17  C   LIG    1        6.100   2.323  -0.974  0.00  0.00    +0.200 C 
BRANCH  16  18
ATOM     18  C   LIG    1        7.192   3.785   0.617  0.00  0.00    +0.240 C 
BRANCH  18  22
ATOM     19  C   LIG    1       10.251   0.935   1.518  0.00  0.00    +0.100 A 
ATOM     20  C   LIG    1        9.428   1.414   2.525  0.00  0.00    -0.030 A 
ATOM     21  C   LIG    1        8.443   2.340   2.231  0.00  0.00    +0.040 A 
ATOM     22  C   LIG    1        8.270   2.781   0.932  0.00  0.00    -0.080 A 
ATOM     23  C   LIG    1        9.088   2.307  -0.077  0.00  0.00    -0.030 A 
ATOM     24  C   LIG    1       10.080   1.384   0.212  0.00  0.00    +0.100 A 
BRANCH  19  26
ATOM     25  C   LIG    1       11.340  -0.385   3.169  0.00  0.00    +0.250 C 
ATOM     26  O   LIG    1       11.223   0.030   1.806  0.00  0.00    -0.310 OA
ENDBRANCH  19  26
BRANCH  24  27
ATOM     27  O   LIG    1       10.885   0.917  -0.780  0.00  0.00    -0.310 OA
ATOM     28  C   LIG    1       10.652   1.421  -2.096  0.00  0.00    +0.230 C 
ENDBRANCH  24  27
ENDBRANCH  18  22
ENDBRANCH  16  18
ENDBRANCH   1  16
TORSDOF 8
