REMARK  Name = ZINCzw0000000aG6.1
REMARK                            x       y       z     vdW  Elec       q    Type
REMARK                         _______ _______ _______ _____ _____    ______ ____
ROOT
ATOM      1  C   LIG    1        7.343   0.752   0.238  0.00  0.00    +0.160 C 
ATOM      2  C   LIG    1        6.448   1.830  -0.426  0.00  0.00    +0.320 C 
ATOM      3  N   LIG    1        5.080   1.287  -0.339  0.00  0.00    -0.630 N 
ATOM      4  C   LIG    1        5.160  -0.178  -0.243  0.00  0.00    +0.280 C 
ATOM      5  C   LIG    1        3.944   2.012  -0.353  0.00  0.00    +0.730 C 
ATOM      6  N   LIG    1        2.749   1.394  -0.273  0.00  0.00    -0.670 N 
ATOM      7  H   LIG    1        2.707   0.434  -0.140  0.00  0.00    +0.410 HD
ATOM      8  O   LIG    1        3.998   3.224  -0.437  0.00  0.00    -0.550 OA
ATOM      9  C   LIG    1        6.656  -0.556  -0.238  0.00  0.00    +0.000 C 
ATOM     10  C   LIG    1        6.923  -1.700   0.743  0.00  0.00    +0.080 C 
ENDROOT
BRANCH   1  16
ATOM     11  C   LIG    1       11.554   2.640  -3.929  0.00  0.00    +0.120 C 
ATOM     12  C   LIG    1       11.598   2.768  -2.428  0.00  0.00    +0.520 C 
ATOM     13  N   LIG    1       10.884   1.924  -1.658  0.00  0.00    -0.640 N 
ATOM     14  C   LIG    1       10.149   0.797  -2.253  0.00  0.00    +0.320 C 
ATOM     15  C   LIG    1        8.709   0.826  -1.730  0.00  0.00    +0.250 C 
ATOM     16  N   LIG    1        8.722   0.834  -0.262  0.00  0.00    -0.370 N 
ATOM     17  C   LIG    1        9.344   2.072   0.225  0.00  0.00    +0.270 C 
ATOM     18  H   LIG    1        9.248   0.041   0.073  0.00  0.00    +0.430 HD
ATOM     19  C   LIG    1       10.816   2.104  -0.200  0.00  0.00    +0.330 C 
ATOM     20  O   LIG    1       12.277   3.631  -1.913  0.00  0.00    -0.510 OA
ENDBRANCH   1  16
BRANCH   6  21
ATOM     21  C   LIG    1        1.573   2.135  -0.381  0.00  0.00    +0.180 A 
ATOM     22  C   LIG    1        1.513   3.423   0.141  0.00  0.00    +0.020 A 
ATOM     23  C   LIG    1        0.351   4.155   0.041  0.00  0.00    +0.060 A 
ATOM     24  C   LIG    1       -0.765   3.607  -0.597  0.00  0.00    -0.140 A 
ATOM     25  C   LIG    1       -0.702   2.312  -1.120  0.00  0.00    +0.110 A 
ATOM     26  C   LIG    1        0.461   1.584  -1.011  0.00  0.00    -0.020 A 
BRANCH  24  27
ATOM     27  C   LIG    1       -2.011   4.390  -0.711  0.00  0.00    +0.560 C 
ATOM     28  N   LIG    1       -2.071   5.638  -0.205  0.00  0.00    -0.730 N 
ATOM     29  H   LIG    1       -1.295   6.022   0.233  0.00  0.00    +0.400 HD
ATOM     30  O   LIG    1       -2.983   3.910  -1.261  0.00  0.00    -0.530 OA
BRANCH  28  31
ATOM     31  C   LIG    1       -3.307   6.416  -0.319  0.00  0.00    +0.260 C 
BRANCH  31  32
ATOM     32  C   LIG    1       -3.108   7.787   0.331  0.00  0.00    +0.070 C 
BRANCH  32  33
ATOM     33  C   LIG    1       -4.380   8.587   0.214  0.00  0.00    -0.090 A 
ATOM     34  C   LIG    1       -4.586   9.401  -0.885  0.00  0.00    +0.010 A 
ATOM     35  C   LIG    1       -5.755  10.131  -0.994  0.00  0.00    +0.000 A 
ATOM     36  C   LIG    1       -6.712  10.056   0.000  0.00  0.00    +0.000 A 
ATOM     37  C   LIG    1       -6.503   9.247   1.101  0.00  0.00    +0.000 A 
ATOM     38  C   LIG    1       -5.337   8.512   1.208  0.00  0.00    +0.010 A 
ENDBRANCH  32  33
ENDBRANCH  31  32
ENDBRANCH  28  31
ENDBRANCH  24  27
ENDBRANCH   6  21
TORSDOF 6
