REMARK  Name = ZINCrD000000Akd8.0
REMARK                            x       y       z     vdW  Elec       q    Type
REMARK                         _______ _______ _______ _____ _____    ______ ____
ROOT
ATOM      1  O   LIG    1        4.667  -0.380  -0.437  0.00  0.00    -0.530 OA
ATOM      2  C   LIG    1        4.139  -0.060  -1.480  0.00  0.00    +0.520 C 
ATOM      3  N   LIG    1        4.704  -0.403  -2.655  0.00  0.00    -0.730 N 
ATOM      4  H   LIG    1        4.281  -0.147  -3.490  0.00  0.00    +0.410 HD
ENDROOT
BRANCH   3   5
ATOM      5  C   LIG    1        5.957  -1.162  -2.671  0.00  0.00    +0.290 C 
BRANCH   5   6
ATOM      6  C   LIG    1        6.379  -1.419  -4.119  0.00  0.00    +0.190 C 
BRANCH   6   7
ATOM      7  O   LIG    1        6.683  -0.175  -4.754  0.00  0.00    -0.310 OA
BRANCH   7   8
ATOM      8  C   LIG    1        7.077  -0.226  -6.054  0.00  0.00    +0.130 A 
ATOM      9  C   LIG    1        7.176  -1.448  -6.702  0.00  0.00    -0.060 A 
ATOM     10  C   LIG    1        7.573  -1.498  -8.024  0.00  0.00    +0.070 A 
ATOM     11  C   LIG    1        7.882  -0.330  -8.699  0.00  0.00    -0.070 A 
ATOM     12  C   LIG    1        7.789   0.890  -8.053  0.00  0.00    +0.070 A 
ATOM     13 CL   LIG    1        8.386  -0.395 -10.359  0.00  0.00    -0.070 Cl
ATOM     14  C   LIG    1        7.387   0.944  -6.732  0.00  0.00    +0.000 A 
ENDBRANCH   7   8
ENDBRANCH   6   7
ENDBRANCH   5   6
ENDBRANCH   3   5
BRANCH   2  15
ATOM     15  C   LIG    1        2.850   0.721  -1.464  0.00  0.00    +0.040 C 
BRANCH  15  16
ATOM     16  C   LIG    1        2.428   0.977  -0.016  0.00  0.00    +0.330 C 
BRANCH  16  17
ATOM     17  N   LIG    1        1.175   1.736   0.000  0.00  0.00    -0.550 N 
ATOM     18  C   LIG    1       -0.013   1.076   0.008  0.00  0.00    +0.590 A 
ATOM     19  N   LIG    1       -1.164   1.676   0.017  0.00  0.00    -0.520 NA
ATOM     20  C   LIG    1       -1.260   3.029   0.030  0.00  0.00    +0.170 A 
ATOM     21  C   LIG    1       -2.498   3.675   0.046  0.00  0.00    +0.050 A 
ATOM     22  C   LIG    1       -2.549   5.051   0.055  0.00  0.00    +0.100 A 
ATOM     23  C   LIG    1       -1.384   5.807   0.048  0.00  0.00    -0.110 A 
ATOM     24  C   LIG    1       -0.150   5.191   0.033  0.00  0.00    +0.140 A 
ATOM     25 BR   LIG    1       -1.490   7.695   0.059  0.00  0.00    -0.030 Br
ATOM     26  C   LIG    1       -0.077   3.800   0.024  0.00  0.00    -0.190 A 
ATOM     27  C   LIG    1        1.210   3.089   0.007  0.00  0.00    +0.550 A 
ATOM     28  O   LIG    1        2.267   3.694   0.002  0.00  0.00    -0.500 OA
ENDBRANCH  16  17
ENDBRANCH  15  16
ENDBRANCH   2  15
TORSDOF 7
