REMARK  Name = ZINCrD000000AAkC.0
REMARK                            x       y       z     vdW  Elec       q    Type
REMARK                         _______ _______ _______ _____ _____    ______ ____
ROOT
ATOM      1  C   LIG    1       -0.765   1.839  -0.040  0.00  0.00    +0.120 A 
ATOM      2  C   LIG    1       -0.708   3.219   0.111  0.00  0.00    +0.010 A 
ATOM      3  C   LIG    1       -1.871   3.942   0.283  0.00  0.00    +0.050 A 
ATOM      4  C   LIG    1       -3.097   3.290   0.315  0.00  0.00    +0.150 A 
ATOM      5  C   LIG    1       -3.153   1.910   0.169  0.00  0.00    +0.000 A 
ATOM      6  C   LIG    1       -1.990   1.187  -0.008  0.00  0.00    +0.040 A 
ENDROOT
BRANCH   4   7
ATOM      7  N   LIG    1       -4.277   4.024   0.496  0.00  0.00    -0.690 N 
ATOM      8  H   LIG    1       -5.011   3.645   1.004  0.00  0.00    +0.410 HD
ATOM      9  C   LIG    1       -4.391   5.256  -0.037  0.00  0.00    +0.700 C 
ATOM     10  N   LIG    1       -5.558   5.925   0.056  0.00  0.00    -0.740 N 
ATOM     11  H   LIG    1       -6.315   5.519   0.506  0.00  0.00    +0.400 HD
ATOM     12  O   LIG    1       -3.442   5.765  -0.602  0.00  0.00    -0.570 OA
BRANCH  10  13
ATOM     13  C   LIG    1       -5.683   7.264  -0.523  0.00  0.00    +0.310 C 
BRANCH  13  14
ATOM     14  C   LIG    1       -7.097   7.795  -0.281  0.00  0.00    +0.140 C 
ATOM     15  C   LIG    1       -7.291   9.153  -0.990  0.00  0.00    +0.010 C 
ATOM     16  C   LIG    1       -8.171   9.965  -0.013  0.00  0.00    +0.000 C 
ATOM     17  C   LIG    1       -8.405   9.001   1.171  0.00  0.00    +0.190 C 
ATOM     18  O   LIG    1       -7.294   8.080   1.122  0.00  0.00    -0.370 OA
ENDBRANCH  13  14
ENDBRANCH  10  13
ENDBRANCH   4   7
BRANCH   1  21
ATOM     19  O   LIG    1       -0.618  -0.371  -1.514  0.00  0.00    -0.510 OA
ATOM     20  C   LIG    1        0.417   0.018  -1.016  0.00  0.00    +0.510 C 
ATOM     21  N   LIG    1        0.415   1.105  -0.220  0.00  0.00    -0.670 N 
ATOM     22  H   LIG    1        1.229   1.378   0.232  0.00  0.00    +0.410 HD
BRANCH  20  23
ATOM     23  C   LIG    1        1.706  -0.714  -1.288  0.00  0.00    +0.120 C 
BRANCH  23  24
ATOM     24  C   LIG    1        1.437  -1.883  -2.199  0.00  0.00    -0.040 A 
ATOM     25  C   LIG    1        1.124  -3.119  -1.664  0.00  0.00    +0.010 A 
ATOM     26  C   LIG    1        0.872  -4.191  -2.500  0.00  0.00    +0.040 A 
ATOM     27  C   LIG    1        0.944  -4.032  -3.870  0.00  0.00    -0.010 A 
ATOM     28  C   LIG    1        1.263  -2.796  -4.407  0.00  0.00    +0.100 A 
ATOM     29  F   LIG    1        1.333  -2.639  -5.747  0.00  0.00    -0.140 F 
ATOM     30  C   LIG    1        1.510  -1.722  -3.570  0.00  0.00    -0.010 A 
ENDBRANCH  23  24
ENDBRANCH  20  23
ENDBRANCH   1  21
TORSDOF 6
