REMARK  Name = ZINCpk00000y6xcz.1
REMARK                            x       y       z     vdW  Elec       q    Type
REMARK                         _______ _______ _______ _____ _____    ______ ____
ROOT
ATOM      1  C   LIG    1       -2.130   7.535  -1.438  0.00  0.00    +0.580 C 
ATOM      2  N   LIG    1       -1.123   6.751  -1.006  0.00  0.00    -0.610 N 
ATOM      3  C   LIG    1       -0.174   7.087   0.066  0.00  0.00    +0.250 C 
ATOM      4  C   LIG    1        0.777   5.883   0.230  0.00  0.00    +0.090 C 
ATOM      5  C   LIG    1       -0.041   4.709  -0.370  0.00  0.00    +0.210 C 
ATOM      6  C   LIG    1       -0.791   5.413  -1.529  0.00  0.00    +0.260 C 
ATOM      7  O   LIG    1       -2.798   7.195  -2.396  0.00  0.00    -0.510 OA
ENDROOT
BRANCH   1  13
ATOM      8  C   LIG    1       -2.803  10.091   2.790  0.00  0.00    +0.100 C 
ATOM      9  C   LIG    1       -2.748  10.043   1.285  0.00  0.00    -0.120 A 
ATOM     10  C   LIG    1       -2.974  11.195   0.550  0.00  0.00    +0.060 A 
ATOM     11  C   LIG    1       -2.928  11.165  -0.829  0.00  0.00    -0.030 A 
ATOM     12  C   LIG    1       -2.647   9.976  -1.490  0.00  0.00    +0.150 A 
ATOM     13  C   LIG    1       -2.423   8.805  -0.749  0.00  0.00    -0.140 A 
ATOM     14  C   LIG    1       -2.474   8.852   0.647  0.00  0.00    +0.060 A 
BRANCH  12  15
ATOM     15  N   LIG    1       -2.593   9.944  -2.877  0.00  0.00    -0.460 N 
ATOM     16  C   LIG    1       -2.865  11.287  -3.451  0.00  0.00    +0.180 C 
ATOM     17  C   LIG    1       -2.261  11.193  -4.875  0.00  0.00    +0.040 C 
ATOM     18  C   LIG    1       -0.989  10.343  -4.656  0.00  0.00    +0.020 C 
ATOM     19  C   LIG    1       -1.242   9.571  -3.347  0.00  0.00    +0.180 C 
ENDBRANCH  12  15
ENDBRANCH   1  13
BRANCH   5  20
ATOM     20  C   LIG    1        0.869   3.628  -0.894  0.00  0.00    -0.050 A 
ATOM     21  C   LIG    1        0.908   2.337  -0.490  0.00  0.00    +0.180 A 
ATOM     22  N   LIG    1        1.873   1.740  -1.229  0.00  0.00    -0.390 N 
ATOM     23  H   LIG    1        2.140   0.810  -1.169  0.00  0.00    +0.450 HD
ATOM     24  N   LIG    1        2.371   2.619  -2.027  0.00  0.00    -0.070 NA
ATOM     25  N   LIG    1        1.794   3.755  -1.852  0.00  0.00    -0.250 NA
ENDBRANCH   5  20
BRANCH   5  26
ATOM     26  O   LIG    1       -0.959   4.181   0.589  0.00  0.00    -0.530 OA
ATOM     27  H   LIG    1       -1.527   3.478   0.245  0.00  0.00    +0.380 HD
ENDBRANCH   5  26
TORSDOF 4
