REMARK  Name = ZINCpk00000y6xcz.0
REMARK                            x       y       z     vdW  Elec       q    Type
REMARK                         _______ _______ _______ _____ _____    ______ ____
ROOT
ATOM      1  C   LIG    1       -2.872   0.071  -2.326  0.00  0.00    +0.580 C 
ATOM      2  N   LIG    1       -3.932   0.397  -3.091  0.00  0.00    -0.610 N 
ATOM      3  C   LIG    1       -3.891   0.694  -4.531  0.00  0.00    +0.250 C 
ATOM      4  C   LIG    1       -5.339   0.983  -4.981  0.00  0.00    +0.090 C 
ATOM      5  C   LIG    1       -6.190   0.286  -3.886  0.00  0.00    +0.210 C 
ATOM      6  C   LIG    1       -5.324   0.520  -2.623  0.00  0.00    +0.260 C 
ATOM      7  O   LIG    1       -3.034  -0.235  -1.161  0.00  0.00    -0.510 OA
ENDROOT
BRANCH   1  13
ATOM      8  C   LIG    1        0.286  -1.231  -5.958  0.00  0.00    +0.100 C 
ATOM      9  C   LIG    1        0.013  -0.537  -4.648  0.00  0.00    -0.110 A 
ATOM     10  C   LIG    1        1.041   0.111  -3.983  0.00  0.00    +0.060 A 
ATOM     11  C   LIG    1        0.804   0.750  -2.784  0.00  0.00    -0.030 A 
ATOM     12  C   LIG    1       -0.471   0.747  -2.233  0.00  0.00    +0.140 A 
ATOM     13  C   LIG    1       -1.514   0.087  -2.902  0.00  0.00    -0.140 A 
ATOM     14  C   LIG    1       -1.259  -0.551  -4.118  0.00  0.00    +0.060 A 
BRANCH  12  15
ATOM     15  N   LIG    1       -0.712   1.389  -1.026  0.00  0.00    -0.450 N 
ATOM     16  C   LIG    1       -1.646   2.530  -1.206  0.00  0.00    +0.170 C 
ATOM     17  C   LIG    1       -1.402   3.435   0.021  0.00  0.00    +0.030 C 
ATOM     18  C   LIG    1        0.032   3.094   0.487  0.00  0.00    +0.030 C 
ATOM     19  C   LIG    1        0.529   2.014  -0.498  0.00  0.00    +0.170 C 
ENDBRANCH  12  15
ENDBRANCH   1  13
BRANCH   5  20
ATOM     20  C   LIG    1       -7.537   0.947  -3.748  0.00  0.00    -0.020 A 
ATOM     21  N   LIG    1       -8.034   1.899  -4.506  0.00  0.00    -0.260 NA
ATOM     22  N   LIG    1       -9.207   2.201  -4.074  0.00  0.00    -0.240 N 
ATOM     23  H   LIG    1       -9.781   2.877  -4.466  0.00  0.00    +0.470 HD
ATOM     24  N   LIG    1       -9.514   1.485  -3.051  0.00  0.00    -0.280 NA
ATOM     25  C   LIG    1       -8.516   0.670  -2.791  0.00  0.00    +0.190 A 
ENDBRANCH   5  20
BRANCH   5  26
ATOM     26  O   LIG    1       -6.332  -1.109  -4.158  0.00  0.00    -0.530 OA
ATOM     27  H   LIG    1       -6.772  -1.605  -3.454  0.00  0.00    +0.380 HD
ENDBRANCH   5  26
TORSDOF 4
