REMARK  Name = ZINCnE000001KnQO.0
REMARK                            x       y       z     vdW  Elec       q    Type
REMARK                         _______ _______ _______ _____ _____    ______ ____
ROOT
ATOM      1  C   LIG    1        3.350   1.170   1.069  0.00  0.00    -0.020 A 
ATOM      2  C   LIG    1        4.555   0.497   1.049  0.00  0.00    +0.030 A 
ATOM      3  C   LIG    1        4.901  -0.275  -0.046  0.00  0.00    +0.000 A 
ATOM      4  C   LIG    1        4.042  -0.378  -1.125  0.00  0.00    -0.020 A 
ATOM      5  C   LIG    1        2.832   0.286  -1.113  0.00  0.00    +0.010 A 
ATOM      6  C   LIG    1        2.481   1.069  -0.016  0.00  0.00    -0.050 A 
ENDROOT
BRANCH   6   7
ATOM      7  C   LIG    1        1.183   1.790   0.000  0.00  0.00    -0.040 A 
ATOM      8  C   LIG    1       -0.013   1.076   0.008  0.00  0.00    +0.090 A 
ATOM      9  C   LIG    1       -1.217   1.751   0.017  0.00  0.00    +0.010 A 
ATOM     10  C   LIG    1       -1.238   3.134   0.030  0.00  0.00    -0.100 A 
ATOM     11  C   LIG    1       -0.055   3.850   0.022  0.00  0.00    +0.000 A 
ATOM     12  C   LIG    1        1.157   3.185   0.008  0.00  0.00    +0.100 A 
ATOM     13  F   LIG    1        2.313   3.885  -0.000  0.00  0.00    -0.140 F 
BRANCH  10  14
ATOM     14  C   LIG    1       -2.557   3.863   0.047  0.00  0.00    +0.170 C 
ATOM     15  C   LIG    1       -2.989   4.103   1.495  0.00  0.00    +0.060 C 
ATOM     16  C   LIG    1       -3.615   3.021  -0.668  0.00  0.00    +0.010 C 
BRANCH  14  17
ATOM     17  O   LIG    1       -2.415   5.118  -0.621  0.00  0.00    -0.560 OA
ATOM     18  H   LIG    1       -2.143   5.043  -1.546  0.00  0.00    +0.380 HD
ENDBRANCH  14  17
ENDBRANCH  10  14
ENDBRANCH   6   7
BRANCH   1  19
ATOM     19  C   LIG    1        2.975   2.011   2.262  0.00  0.00    +0.110 C 
BRANCH  19  20
ATOM     20  C   LIG    1        2.125   1.197   3.203  0.00  0.00    +0.490 C 
ATOM     21  O   LIG    1        1.022   0.814   2.852  0.00  0.00    -0.680 OA
ATOM     22  O   LIG    1        2.540   0.922   4.316  0.00  0.00    -0.680 OA
ENDBRANCH  19  20
BRANCH  19  24
ATOM     23  C   LIG    1        4.032   3.695   3.600  0.00  0.00    +0.190 C 
ATOM     24  O   LIG    1        4.160   2.436   2.937  0.00  0.00    -0.370 OA
ENDBRANCH  19  24
ENDBRANCH   1  19
TORSDOF 6
