REMARK  Name = ZINCqH0000038jPo.0
REMARK                            x       y       z     vdW  Elec       q    Type
REMARK                         _______ _______ _______ _____ _____    ______ ____
ROOT
ATOM      1  C   LIG    1        6.225   0.971  -3.891  0.00  0.00    +0.160 C 
ATOM      2  C   LIG    1        7.402   0.479  -3.044  0.00  0.00    +0.060 C 
ATOM      3  C   LIG    1        7.076   0.678  -1.562  0.00  0.00    +0.190 C 
ATOM      4  N   LIG    1        5.859  -0.071  -1.223  0.00  0.00    -0.550 NA
ATOM      5  C   LIG    1        4.705   0.415  -1.990  0.00  0.00    +0.170 C 
ATOM      6  C   LIG    1        4.960   0.209  -3.484  0.00  0.00    +0.010 C 
ENDROOT
BRANCH   1   7
ATOM      7  O   LIG    1        6.500   0.735  -5.274  0.00  0.00    -0.320 OA
BRANCH   7  15
ATOM      8  C   LIG    1        4.080  -0.048  -6.501  0.00  0.00    +0.100 C 
ATOM      9  C   LIG    1        4.756   1.264  -6.803  0.00  0.00    -0.090 A 
ATOM     10  C   LIG    1        4.191   2.142  -7.708  0.00  0.00    +0.010 A 
ATOM     11  C   LIG    1        4.814   3.343  -7.990  0.00  0.00    +0.010 A 
ATOM     12  C   LIG    1        6.002   3.672  -7.362  0.00  0.00    +0.010 A 
ATOM     13  C   LIG    1        6.568   2.800  -6.453  0.00  0.00    -0.100 A 
ATOM     14  C   LIG    1        7.863   3.159  -5.770  0.00  0.00    +0.100 C 
ATOM     15  C   LIG    1        5.945   1.594  -6.168  0.00  0.00    +0.090 A 
ENDBRANCH   7  15
ENDBRANCH   1   7
BRANCH   4  16
ATOM     16  C   LIG    1        5.593  -0.016   0.221  0.00  0.00    +0.490 C 
BRANCH  16  17
ATOM     17  N   LIG    1        4.162  -0.216   0.461  0.00  0.00    -0.550 N 
ATOM     18  C   LIG    1        3.545  -1.398   0.663  0.00  0.00    +0.640 A 
ATOM     19  O   LIG    1        2.232  -1.191   0.850  0.00  0.00    -0.240 OA
ATOM     20  C   LIG    1        1.975   0.138   0.771  0.00  0.00    +0.040 A 
ATOM     21  C   LIG    1        0.813   0.884   0.885  0.00  0.00    +0.060 A 
ATOM     22  C   LIG    1        0.861   2.258   0.755  0.00  0.00    +0.030 A 
ATOM     23  C   LIG    1        2.065   2.895   0.510  0.00  0.00    +0.040 A 
ATOM     24  C   LIG    1        3.229   2.159   0.394  0.00  0.00    +0.030 A 
ATOM     25  O   LIG    1        4.094  -2.483   0.675  0.00  0.00    -0.470 OA
ATOM     26  C   LIG    1        3.188   0.780   0.524  0.00  0.00    +0.070 A 
ENDBRANCH  16  17
ENDBRANCH   4  16
TORSDOF 4
