REMARK  Name = ZINCrg00000y7mb9.0
REMARK                            x       y       z     vdW  Elec       q    Type
REMARK                         _______ _______ _______ _____ _____    ______ ____
ROOT
ATOM      1  N   LIG    1        0.148   6.809   1.831  0.00  0.00    -0.620 N 
ATOM      2  H   LIG    1       -0.368   7.582   1.551  0.00  0.00    +0.430 HD
ATOM      3  C   LIG    1        1.312   6.979   2.490  0.00  0.00    +0.470 C 
ATOM      4  O   LIG    1        1.956   6.013   2.840  0.00  0.00    -0.500 OA
ENDROOT
BRANCH   1   6
ATOM      5  C   LIG    1       -1.479   5.249   0.892  0.00  0.00    -0.220 A 
ATOM      6  C   LIG    1       -0.312   5.531   1.554  0.00  0.00    +0.080 A 
ATOM      7  S   LIG    1        0.495   4.095   1.990  0.00  0.00    +0.310 S 
ATOM      8  C   LIG    1       -0.749   3.086   1.275  0.00  0.00    -0.250 A 
ATOM      9  C   LIG    1       -1.707   3.828   0.738  0.00  0.00    +0.080 A 
BRANCH   5  10
ATOM     10  C   LIG    1       -2.395   6.275   0.389  0.00  0.00    +0.540 C 
ATOM     11  O   LIG    1       -2.136   7.453   0.550  0.00  0.00    -0.530 OA
BRANCH  10  12
ATOM     12  O   LIG    1       -3.525   5.915  -0.253  0.00  0.00    -0.350 OA
BRANCH  12  14
ATOM     13  C   LIG    1       -5.608   6.387  -1.422  0.00  0.00    +0.070 C 
ATOM     14  C   LIG    1       -4.385   6.985  -0.725  0.00  0.00    +0.200 C 
ENDBRANCH  12  14
ENDBRANCH  10  12
ENDBRANCH   5  10
BRANCH   8  15
ATOM     15  C   LIG    1       -0.729   1.579   1.267  0.00  0.00    +0.100 C 
ATOM     16  C   LIG    1       -0.013   1.086   0.008  0.00  0.00    +0.030 C 
ENDBRANCH   8  15
ENDBRANCH   1   6
BRANCH   3  17
ATOM     17  C   LIG    1        1.811   8.368   2.791  0.00  0.00    +0.290 C 
BRANCH  17  18
ATOM     18  N   LIG    1        3.089   8.284   3.511  0.00  0.00    -0.520 NA
ATOM     19  C   LIG    1        4.133   7.715   2.660  0.00  0.00    +0.180 C 
ATOM     20  C   LIG    1        5.491   7.620   3.386  0.00  0.00    +0.080 C 
ATOM     21  C   LIG    1        5.237   6.803   4.635  0.00  0.00    -0.010 C 
ATOM     22  C   LIG    1        6.339   6.591   5.622  0.00  0.00    +0.550 C 
ATOM     23  N   LIG    1        5.743   6.560   6.846  0.00  0.00    -0.700 N 
ATOM     24  H   LIG    1        6.194   6.257   7.650  0.00  0.00    +0.420 HD
ATOM     25  C   LIG    1        4.454   6.996   6.830  0.00  0.00    +0.550 C 
ATOM     26  O   LIG    1        3.631   6.875   7.712  0.00  0.00    -0.470 OA
ATOM     27  O   LIG    1        7.522   6.471   5.383  0.00  0.00    -0.470 OA
ATOM     28  C   LIG    1        4.261   7.654   5.503  0.00  0.00    +0.000 C 
ATOM     29  C   LIG    1        2.921   7.598   4.811  0.00  0.00    +0.240 C 
ENDBRANCH  17  18
ENDBRANCH   3  17
TORSDOF 7
