REMARK  Name = ZINCrD00000l1VQt.0
REMARK                            x       y       z     vdW  Elec       q    Type
REMARK                         _______ _______ _______ _____ _____    ______ ____
ROOT
ATOM      1  O   LIG    1       -4.417   0.987  -1.403  0.00  0.00    -0.330 OA
ENDROOT
BRANCH   1   2
ATOM      2  C   LIG    1       -5.606   0.401  -1.159  0.00  0.00    +0.540 C 
ATOM      3  O   LIG    1       -5.936   0.145  -0.018  0.00  0.00    -0.480 OA
BRANCH   2   8
ATOM      4  N   LIG    1       -6.327   0.386  -3.593  0.00  0.00    -0.250 N 
ATOM      5  N   LIG    1       -7.315  -0.063  -4.280  0.00  0.00    -0.250 NA
ATOM      6  C   LIG    1       -8.178  -0.678  -3.513  0.00  0.00    +0.050 A 
ATOM      7  C   LIG    1       -7.700  -0.626  -2.202  0.00  0.00    +0.030 A 
ATOM      8  C   LIG    1       -6.505   0.071  -2.275  0.00  0.00    -0.030 A 
BRANCH   4  10
ATOM      9  C   LIG    1       -3.902   0.325  -3.899  0.00  0.00    +0.070 C 
ATOM     10  C   LIG    1       -5.185   1.124  -4.138  0.00  0.00    +0.170 C 
ATOM     11  C   LIG    1       -5.077   2.482  -3.442  0.00  0.00    +0.060 C 
ATOM     12  C   LIG    1       -5.383   1.334  -5.640  0.00  0.00    +0.080 C 
ENDBRANCH   4  10
BRANCH   6  13
ATOM     13  C   LIG    1       -9.458  -1.333  -3.965  0.00  0.00    +0.050 C 
ATOM     14  C   LIG    1      -10.129  -2.314  -3.001  0.00  0.00    +0.030 C 
ATOM     15  C   LIG    1       -9.420  -2.835  -4.253  0.00  0.00    +0.020 C 
ENDBRANCH   6  13
ENDBRANCH   2   8
ENDBRANCH   1   2
BRANCH   1  16
ATOM     16  C   LIG    1       -3.581   1.283  -0.253  0.00  0.00    +0.330 C 
BRANCH  16  17
ATOM     17  C   LIG    1       -2.301   1.931  -0.717  0.00  0.00    +0.370 A 
ATOM     18  N   LIG    1       -1.277   1.162  -0.999  0.00  0.00    -0.530 NA
ATOM     19  C   LIG    1       -0.121   1.697  -1.420  0.00  0.00    +0.190 A 
ATOM     20  C   LIG    1        0.995   0.906  -1.726  0.00  0.00    +0.030 A 
ATOM     21  C   LIG    1        2.148   1.502  -2.144  0.00  0.00    +0.070 A 
ATOM     22  C   LIG    1        2.236   2.885  -2.268  0.00  0.00    +0.000 A 
ATOM     23  C   LIG    1        1.171   3.685  -1.973  0.00  0.00    +0.060 A 
ATOM     24  C   LIG    1       -0.027   3.105  -1.541  0.00  0.00    -0.190 A 
ATOM     25  C   LIG    1       -1.167   3.882  -1.221  0.00  0.00    +0.480 A 
ATOM     26  N   LIG    1       -2.262   3.250  -0.820  0.00  0.00    -0.580 NA
BRANCH  25  27
ATOM     27  N   LIG    1       -1.140   5.256  -1.323  0.00  0.00    -0.820 N 
ATOM     28  H   LIG    1       -1.929   5.775  -1.101  0.00  0.00    +0.410 HD
ATOM     29  H   LIG    1       -0.332   5.704  -1.618  0.00  0.00    +0.410 HD
ENDBRANCH  25  27
ENDBRANCH  16  17
ENDBRANCH   1  16
TORSDOF 7
