REMARK  Name = ZINCvU0000000BtW.0
REMARK                            x       y       z     vdW  Elec       q    Type
REMARK                         _______ _______ _______ _____ _____    ______ ____
ROOT
ATOM      1  C   LIG    1        0.298   1.330  -0.767  0.00  0.00    +0.660 C 
ATOM      2  N   LIG    1       -0.906   1.882  -0.520  0.00  0.00    -0.540 N 
ATOM      3  C   LIG    1       -2.171   1.144  -0.453  0.00  0.00    +0.330 C 
ATOM      4  C   LIG    1       -3.241   2.205  -0.151  0.00  0.00    +0.090 C 
ATOM      5  C   LIG    1       -2.476   3.506  -0.067  0.00  0.00    -0.130 A 
ATOM      6  C   LIG    1       -2.905   4.796   0.180  0.00  0.00    +0.100 A 
ATOM      7  C   LIG    1       -1.993   5.835   0.224  0.00  0.00    -0.110 A 
ATOM      8  C   LIG    1       -0.651   5.583   0.003  0.00  0.00    +0.090 A 
ATOM      9  C   LIG    1       -0.220   4.298  -0.249  0.00  0.00    +0.020 A 
ATOM     10 BR   LIG    1       -2.582   7.599   0.572  0.00  0.00    -0.040 Br
ATOM     11  C   LIG    1       -1.133   3.243  -0.285  0.00  0.00    +0.170 A 
ATOM     12  O   LIG    1        0.391   0.133  -0.954  0.00  0.00    -0.540 OA
ENDROOT
BRANCH   1  13
ATOM     13  O   LIG    1        1.398   2.106  -0.812  0.00  0.00    -0.350 OA
BRANCH  13  15
ATOM     14  C   LIG    1        2.587   0.757  -2.453  0.00  0.00    +0.040 C 
ATOM     15  C   LIG    1        2.660   1.445  -1.088  0.00  0.00    +0.130 C 
ATOM     16  C   LIG    1        2.938   0.401  -0.005  0.00  0.00    +0.030 C 
ATOM     17  C   LIG    1        3.787   2.481  -1.099  0.00  0.00    +0.080 C 
ENDBRANCH  13  15
ENDBRANCH   1  13
BRANCH   4  18
ATOM     18  C   LIG    1       -4.271   2.261  -1.281  0.00  0.00    +0.080 C 
BRANCH  18  19
ATOM     19  C   LIG    1       -5.031   0.960  -1.333  0.00  0.00    +0.510 C 
ATOM     20  N   LIG    1       -5.914   0.735  -2.325  0.00  0.00    -0.670 N 
ATOM     21  H   LIG    1       -6.009   1.378  -3.046  0.00  0.00    +0.410 HD
ATOM     22  O   LIG    1       -4.847   0.116  -0.481  0.00  0.00    -0.510 OA
BRANCH  20  23
ATOM     23  C   LIG    1       -6.697  -0.427  -2.317  0.00  0.00    +0.150 A 
ATOM     24  C   LIG    1       -7.109  -0.978  -1.111  0.00  0.00    +0.040 A 
ATOM     25  C   LIG    1       -7.880  -2.124  -1.102  0.00  0.00    +0.050 A 
ATOM     26  C   LIG    1       -8.243  -2.729  -2.296  0.00  0.00    +0.040 A 
ATOM     27  O   LIG    1       -8.996  -3.864  -2.267  0.00  0.00    -0.310 OA
ATOM     28  C   LIG    1       -9.651  -4.233  -3.485  0.00  0.00    +0.220 C 
ATOM     29  C   LIG    1       -8.638  -4.112  -4.631  0.00  0.00    +0.220 C 
ATOM     30  O   LIG    1       -8.183  -2.756  -4.687  0.00  0.00    -0.310 OA
ATOM     31  C   LIG    1       -7.833  -2.179  -3.505  0.00  0.00    +0.070 A 
ATOM     32  C   LIG    1       -7.064  -1.026  -3.514  0.00  0.00    +0.000 A 
ENDBRANCH  20  23
ENDBRANCH  18  19
ENDBRANCH   4  18
TORSDOF 5
