REMARK  Name = ZINCvU000000063W.0
REMARK                            x       y       z     vdW  Elec       q    Type
REMARK                         _______ _______ _______ _____ _____    ______ ____
ROOT
ATOM      1  C   LIG    1        0.002  -0.004   0.002  0.00  0.00    +0.190 A 
ATOM      2  C   LIG    1       -1.209  -0.740   0.016  0.00  0.00    -0.160 A 
ATOM      3  C   LIG    1       -2.592  -0.281   0.037  0.00  0.00    -0.030 A 
ATOM      4  C   LIG    1       -3.497  -1.258   0.045  0.00  0.00    -0.010 A 
ATOM      5  S   LIG    1       -2.731  -2.835   0.015  0.00  0.00    +0.190 S 
ATOM      6  C   LIG    1       -1.120  -2.133   0.003  0.00  0.00    +0.100 A 
ATOM      7  N   LIG    1        0.091  -2.707  -0.012  0.00  0.00    -0.490 NA
ATOM      8  C   LIG    1        1.185  -1.982  -0.019  0.00  0.00    +0.540 A 
ATOM      9  N   LIG    1        1.153  -0.662  -0.013  0.00  0.00    -0.530 NA
ENDROOT
BRANCH   3  10
ATOM     10  C   LIG    1       -2.961   1.155   0.051  0.00  0.00    -0.050 A 
ATOM     11  C   LIG    1       -2.376   2.019   0.975  0.00  0.00    +0.080 A 
ATOM     12  C   LIG    1       -2.718   3.355   0.980  0.00  0.00    +0.010 A 
ATOM     13  C   LIG    1       -3.651   3.837   0.076  0.00  0.00    +0.110 A 
ATOM     14  C   LIG    1       -4.239   2.981  -0.841  0.00  0.00    -0.010 A 
ATOM     15  F   LIG    1       -3.988   5.145   0.088  0.00  0.00    -0.140 F 
ATOM     16  C   LIG    1       -3.899   1.644  -0.858  0.00  0.00    +0.070 A 
ENDBRANCH   3  10
BRANCH   1  17
ATOM     17  S   LIG    1       -0.022   1.758   0.012  0.00  0.00    +0.090 S 
BRANCH  17  18
ATOM     18  C   LIG    1        1.756   2.096  -0.004  0.00  0.00    +0.050 C 
BRANCH  18  20
ATOM     19  N   LIG    1        3.240   4.076  -0.007  0.00  0.00    -0.590 N 
ATOM     20  C   LIG    1        1.984   3.586   0.002  0.00  0.00    +0.530 C 
ATOM     21  O   LIG    1        1.037   4.344   0.015  0.00  0.00    -0.520 OA
BRANCH  19  22
ATOM     22  C   LIG    1        3.461   5.524  -0.001  0.00  0.00    +0.310 C 
BRANCH  22  23
ATOM     23  C   LIG    1        3.552   6.020   1.443  0.00  0.00    +0.160 C 
BRANCH  23  25
ATOM     24  C   LIG    1        4.887   5.861   3.427  0.00  0.00    +0.200 C 
ATOM     25  O   LIG    1        4.708   5.459   2.068  0.00  0.00    -0.390 OA
ENDBRANCH  23  25
ENDBRANCH  22  23
ENDBRANCH  19  22
BRANCH  19  26
ATOM     26  C   LIG    1        4.383   3.160  -0.023  0.00  0.00    +0.380 C 
BRANCH  26  27
ATOM     27  C   LIG    1        4.761   2.853  -1.449  0.00  0.00    -0.210 A 
ATOM     28  C   LIG    1        5.636   3.548  -2.179  0.00  0.00    +0.030 A 
ATOM     29  C   LIG    1        5.824   3.078  -3.467  0.00  0.00    +0.000 A 
ATOM     30  C   LIG    1        5.102   2.002  -3.784  0.00  0.00    -0.050 A 
ATOM     31  S   LIG    1        4.123   1.521  -2.404  0.00  0.00    +0.100 S 
ENDBRANCH  26  27
ENDBRANCH  19  26
ENDBRANCH  18  20
ENDBRANCH  17  18
ENDBRANCH   1  17
TORSDOF 9
