REMARK  Name = ZINCqH00000032tz.0
REMARK                            x       y       z     vdW  Elec       q    Type
REMARK                         _______ _______ _______ _____ _____    ______ ____
ROOT
ATOM      1  C   LIG    1       -1.210   1.381   1.497  0.00  0.00    -0.690 A 
ATOM      2  C   LIG    1       -1.444   0.171   2.116  0.00  0.00    +0.210 A 
ATOM      3  C   LIG    1       -2.285   0.110   3.229  0.00  0.00    -0.160 A 
ATOM      4  C   LIG    1       -2.891   1.275   3.702  0.00  0.00    +0.110 A 
ATOM      5  C   LIG    1       -2.653   2.478   3.071  0.00  0.00    -0.010 A 
ATOM      6  C   LIG    1       -1.815   2.532   1.971  0.00  0.00    +0.050 A 
ATOM      7  C   LIG    1       -1.560   3.850   1.286  0.00  0.00    +0.100 C 
ENDROOT
BRANCH   3   8
ATOM      8  C   LIG    1       -2.536  -1.183   3.900  0.00  0.00    +0.560 C 
ATOM      9  N   LIG    1       -3.353  -1.239   4.971  0.00  0.00    -0.670 N 
ATOM     10  H   LIG    1       -3.834  -0.447   5.256  0.00  0.00    +0.410 HD
ATOM     11  O   LIG    1       -2.007  -2.196   3.486  0.00  0.00    -0.500 OA
BRANCH   9  12
ATOM     12  C   LIG    1       -3.505  -2.439   5.672  0.00  0.00    +0.170 A 
ATOM     13  C   LIG    1       -4.728  -2.758   6.249  0.00  0.00    -0.020 A 
ATOM     14  C   LIG    1       -4.877  -3.946   6.936  0.00  0.00    +0.070 A 
ATOM     15  C   LIG    1       -3.809  -4.815   7.061  0.00  0.00    -0.130 A 
ATOM     16  C   LIG    1       -2.586  -4.498   6.493  0.00  0.00    +0.120 A 
ATOM     17  F   LIG    1       -1.543  -5.348   6.617  0.00  0.00    -0.130 F 
ATOM     18  C   LIG    1       -3.975  -6.108   7.817  0.00  0.00    +0.100 C 
ATOM     19  C   LIG    1       -2.432  -3.312   5.799  0.00  0.00    +0.000 A 
ENDBRANCH   9  12
ENDBRANCH   3   8
BRANCH   1  20
ATOM     20  S   LIG    1       -0.146   1.460   0.096  0.00  0.00    +2.690 S 
ATOM     21  O   LIG    1        0.762   2.526   0.341  0.00  0.00    -0.950 OA
ATOM     22  O   LIG    1        0.272   0.128  -0.167  0.00  0.00    -0.950 OA
BRANCH  20  23
ATOM     23  N   LIG    1       -1.071   1.923  -1.197  0.00  0.00    -0.990 NA
BRANCH  23  25
ATOM     24  C   LIG    1       -0.208   3.492  -2.864  0.00  0.00    +0.020 C 
ATOM     25  C   LIG    1       -1.087   3.325  -1.622  0.00  0.00    +0.280 C 
ENDBRANCH  23  25
BRANCH  23  26
ATOM     26  C   LIG    1       -1.874   0.931  -1.916  0.00  0.00    +0.290 C 
ATOM     27  C   LIG    1       -3.300   0.931  -1.362  0.00  0.00    +0.000 C 
ENDBRANCH  23  26
ENDBRANCH  20  23
ENDBRANCH   1  20
TORSDOF 6
