REMARK  Name = ZINCrD0000075vay.0
REMARK                            x       y       z     vdW  Elec       q    Type
REMARK                         _______ _______ _______ _____ _____    ______ ____
ROOT
ATOM      1  C   LIG    1       -2.536  10.949   0.081  0.00  0.00    +0.470 C 
ATOM      2  O   LIG    1       -3.714  10.683   0.091  0.00  0.00    -0.500 OA
ENDROOT
BRANCH   1   3
ATOM      3  C   LIG    1       -2.089  12.388   0.083  0.00  0.00    +0.370 C 
BRANCH   3   6
ATOM      4  O   LIG    1       -1.990  15.082   0.093  0.00  0.00    -0.520 OA
ATOM      5  C   LIG    1       -3.104  14.603   0.102  0.00  0.00    +0.520 C 
ATOM      6  N   LIG    1       -3.263  13.264   0.098  0.00  0.00    -0.730 N 
ATOM      7  H   LIG    1       -4.154  12.881   0.105  0.00  0.00    +0.410 HD
BRANCH   5   8
ATOM      8  C   LIG    1       -4.312  15.504   0.118  0.00  0.00    +0.120 C 
BRANCH   8   9
ATOM      9  C   LIG    1       -3.865  16.943   0.120  0.00  0.00    -0.070 A 
ATOM     10  C   LIG    1       -3.653  17.600   1.318  0.00  0.00    +0.010 A 
ATOM     11  C   LIG    1       -3.238  18.918   1.319  0.00  0.00    +0.000 A 
ATOM     12  C   LIG    1       -3.045  19.584   0.123  0.00  0.00    +0.000 A 
ATOM     13  C   LIG    1       -3.261  18.929  -1.075  0.00  0.00    +0.000 A 
ATOM     14  C   LIG    1       -3.671  17.608  -1.076  0.00  0.00    +0.020 A 
ENDBRANCH   8   9
ENDBRANCH   5   8
ENDBRANCH   3   6
ENDBRANCH   1   3
BRANCH   1  15
ATOM     15  O   LIG    1       -1.625   9.963   0.067  0.00  0.00    -0.350 OA
BRANCH  15  16
ATOM     16  C   LIG    1       -2.128   8.601   0.066  0.00  0.00    +0.350 C 
BRANCH  16  17
ATOM     17  C   LIG    1       -0.969   7.638   0.051  0.00  0.00    +0.060 A 
ATOM     18  C   LIG    1        0.301   8.055   0.040  0.00  0.00    -0.030 A 
ATOM     19  S   LIG    1        1.347   6.636   0.023  0.00  0.00    +0.110 S 
ATOM     20  C   LIG    1       -0.074   5.595   0.032  0.00  0.00    +0.120 A 
ATOM     21  N   LIG    1       -1.145   6.336   0.041  0.00  0.00    -0.460 NA
BRANCH  20  22
ATOM     22  C   LIG    1       -0.054   4.116   0.025  0.00  0.00    -0.040 A 
ATOM     23  C   LIG    1        1.163   3.433   0.009  0.00  0.00    +0.070 A 
ATOM     24  C   LIG    1        1.176   2.054   0.002  0.00  0.00    +0.000 A 
ATOM     25  C   LIG    1       -0.016   1.347   0.009  0.00  0.00    +0.120 A 
ATOM     26  C   LIG    1       -1.227   2.021   0.019  0.00  0.00    +0.000 A 
ATOM     27  F   LIG    1        0.002  -0.004   0.002  0.00  0.00    -0.130 F 
ATOM     28  C   LIG    1       -1.251   3.400   0.032  0.00  0.00    +0.110 A 
ENDBRANCH  20  22
ENDBRANCH  16  17
ENDBRANCH  15  16
ENDBRANCH   1  15
TORSDOF 8
