REMARK  Name = ZINCrH00000tj1mp.0
REMARK                            x       y       z     vdW  Elec       q    Type
REMARK                         _______ _______ _______ _____ _____    ______ ____
ROOT
ATOM      1  O   LIG    1       -2.513   0.487   0.987  0.00  0.00    -0.500 OA
ATOM      2  C   LIG    1       -1.841   1.236   1.665  0.00  0.00    +0.550 C 
ATOM      3  N   LIG    1       -0.603   1.582   1.260  0.00  0.00    -0.610 N 
ATOM      4  C   LIG    1        0.254   2.479   2.034  0.00  0.00    +0.280 C 
ATOM      5  C   LIG    1        1.744   2.102   1.803  0.00  0.00    +0.160 C 
ATOM      6  S   LIG    1        1.700   1.747  -0.005  0.00  0.00    -0.240 S 
ATOM      7  C   LIG    1       -0.013   1.086   0.008  0.00  0.00    +0.350 C 
ENDROOT
BRANCH   7   8
ATOM      8  C   LIG    1       -0.784   1.605  -1.178  0.00  0.00    -0.120 A 
ATOM      9  C   LIG    1       -1.695   2.631  -1.016  0.00  0.00    +0.060 A 
ATOM     10  C   LIG    1       -2.397   3.111  -2.105  0.00  0.00    +0.000 A 
ATOM     11  C   LIG    1       -2.199   2.558  -3.356  0.00  0.00    +0.060 A 
ATOM     12  C   LIG    1       -1.292   1.528  -3.520  0.00  0.00    -0.010 A 
ATOM     13  C   LIG    1       -0.583   1.050  -2.431  0.00  0.00    +0.120 A 
ATOM     14  F   LIG    1        0.303   0.043  -2.591  0.00  0.00    -0.130 F 
ENDBRANCH   7   8
BRANCH   2  15
ATOM     15  C   LIG    1       -2.390   1.778   2.959  0.00  0.00    +0.110 C 
BRANCH  15  16
ATOM     16  S   LIG    1       -4.061   1.134   3.223  0.00  0.00    +0.100 S 
BRANCH  16  17
ATOM     17  C   LIG    1       -4.447   1.905   4.759  0.00  0.00    +0.140 A 
ATOM     18  N   LIG    1       -3.668   2.706   5.449  0.00  0.00    -0.290 NA
ATOM     19  N   LIG    1       -4.270   3.089   6.518  0.00  0.00    -0.280 NA
ATOM     20  C   LIG    1       -5.457   2.554   6.580  0.00  0.00    +0.400 A 
ATOM     21  N   LIG    1       -5.614   1.780   5.462  0.00  0.00    -0.420 N 
BRANCH  21  22
ATOM     22  C   LIG    1       -6.737   1.016   5.111  0.00  0.00    +0.100 A 
ATOM     23  C   LIG    1       -7.289   1.134   3.842  0.00  0.00    +0.030 A 
ATOM     24  C   LIG    1       -8.392   0.377   3.498  0.00  0.00    +0.040 A 
ATOM     25  C   LIG    1       -8.953  -0.489   4.418  0.00  0.00    +0.030 A 
ATOM     26  C   LIG    1       -8.408  -0.605   5.684  0.00  0.00    +0.040 A 
ATOM     27  C   LIG    1       -7.302   0.145   6.032  0.00  0.00    +0.020 A 
ENDBRANCH  21  22
ENDBRANCH  16  17
ENDBRANCH  15  16
ENDBRANCH   2  15
TORSDOF 5
