REMARK  Name = ZINCrD00000hQ5i2.0
REMARK                            x       y       z     vdW  Elec       q    Type
REMARK                         _______ _______ _______ _____ _____    ______ ____
ROOT
ATOM      1  C   LIG    1        2.697   5.057   1.617  0.00  0.00    +0.380 A 
ATOM      2  C   LIG    1        3.879   5.792   1.593  0.00  0.00    -0.050 A 
ATOM      3  C   LIG    1        3.945   6.985   2.285  0.00  0.00    +0.120 A 
ATOM      4  C   LIG    1        2.815   7.405   2.998  0.00  0.00    -0.120 A 
ATOM      5  C   LIG    1        1.668   6.611   2.978  0.00  0.00    +0.360 A 
ATOM      6  N   LIG    1        1.645   5.482   2.301  0.00  0.00    -0.480 NA
ENDROOT
BRANCH   4   7
ATOM      7  C   LIG    1        2.837   8.671   3.761  0.00  0.00    +0.170 A 
ATOM      8  N   LIG    1        1.846   9.136   4.446  0.00  0.00    -0.460 NA
ATOM      9  C   LIG    1        2.019  10.304   5.088  0.00  0.00    +0.090 A 
ATOM     10  C   LIG    1        1.102  11.015   5.893  0.00  0.00    +0.080 A 
ATOM     11  C   LIG    1        1.458  12.196   6.469  0.00  0.00    +0.030 A 
ATOM     12  C   LIG    1        2.726  12.725   6.279  0.00  0.00    +0.040 A 
ATOM     13  C   LIG    1        3.642  12.056   5.499  0.00  0.00    +0.060 A 
ATOM     14  C   LIG    1        3.296  10.845   4.901  0.00  0.00    -0.170 A 
ATOM     15  S   LIG    1        4.218   9.753   3.871  0.00  0.00    +0.070 S 
ENDBRANCH   4   7
BRANCH   1  18
ATOM     16  O   LIG    1        0.490   3.586   1.470  0.00  0.00    -0.440 OA
ATOM     17  C   LIG    1        1.453   3.189   0.847  0.00  0.00    +0.500 C 
ATOM     18  N   LIG    1        2.622   3.857   0.916  0.00  0.00    -0.660 N 
ATOM     19  H   LIG    1        3.410   3.500   0.479  0.00  0.00    +0.420 HD
BRANCH  17  20
ATOM     20  C   LIG    1        1.341   1.951  -0.005  0.00  0.00    +0.190 C 
ATOM     21  O   LIG    1       -0.019   1.447   0.002  0.00  0.00    -0.350 OA
ATOM     22  C   LIG    1       -0.002   0.001  -0.007  0.00  0.00    +0.230 C 
ATOM     23  C   LIG    1        1.462  -0.400  -0.108  0.00  0.00    -0.060 C 
ATOM     24  C   LIG    1        1.924  -1.651   0.605  0.00  0.00    +0.250 C 
ATOM     25  O   LIG    1        3.346  -1.734   0.402  0.00  0.00    -0.380 OA
ATOM     26  C   LIG    1        4.128  -0.626   0.835  0.00  0.00    +0.220 C 
ATOM     27  C   LIG    1        3.620   0.707   0.256  0.00  0.00    +0.010 C 
ATOM     28  C   LIG    1        2.151   0.806   0.602  0.00  0.00    -0.030 C 
ENDBRANCH  17  20
ENDBRANCH   1  18
TORSDOF 3
