REMARK  Name = ZINCrD000000Bbec.0
REMARK                            x       y       z     vdW  Elec       q    Type
REMARK                         _______ _______ _______ _____ _____    ______ ____
ROOT
ATOM      1  C   LIG    1        2.380   1.219   0.184  0.00  0.00    -0.160 A 
ATOM      2  C   LIG    1        3.493   2.062   0.234  0.00  0.00    +0.060 A 
ATOM      3  C   LIG    1        3.325   3.428   0.160  0.00  0.00    -0.010 A 
ATOM      4  C   LIG    1        2.058   3.971   0.034  0.00  0.00    +0.070 A 
ATOM      5  C   LIG    1        0.948   3.151  -0.023  0.00  0.00    +0.020 A 
ATOM      6  C   LIG    1        1.097   1.773   0.057  0.00  0.00    +0.200 A 
ENDROOT
BRANCH   1   8
ATOM      7  O   LIG    1        1.592  -0.977   0.130  0.00  0.00    -0.540 OA
ATOM      8  C   LIG    1        2.553  -0.244   0.264  0.00  0.00    +0.570 C 
ATOM      9  N   LIG    1        3.775  -0.767   0.487  0.00  0.00    -0.720 N 
ATOM     10  H   LIG    1        4.541  -0.182   0.594  0.00  0.00    +0.400 HD
BRANCH   9  11
ATOM     11  C   LIG    1        3.946  -2.220   0.566  0.00  0.00    +0.300 C 
BRANCH  11  12
ATOM     12  C   LIG    1        5.418  -2.546   0.824  0.00  0.00    +0.140 C 
ATOM     13  C   LIG    1        5.637  -4.076   0.826  0.00  0.00    +0.010 C 
ATOM     14  C   LIG    1        6.693  -4.302   1.931  0.00  0.00    +0.000 C 
ATOM     15  C   LIG    1        6.986  -2.883   2.466  0.00  0.00    +0.190 C 
ATOM     16  O   LIG    1        5.805  -2.114   2.146  0.00  0.00    -0.370 OA
ENDBRANCH  11  12
ENDBRANCH   9  11
ENDBRANCH   1   8
BRANCH   6  17
ATOM     17  N   LIG    1       -0.021   0.944   0.005  0.00  0.00    -0.640 N 
ATOM     18  H   LIG    1        0.034   0.083  -0.440  0.00  0.00    +0.430 HD
ATOM     19  C   LIG    1       -1.180   1.339   0.567  0.00  0.00    +0.490 C 
ATOM     20  O   LIG    1       -1.272   2.447   1.052  0.00  0.00    -0.470 OA
BRANCH  19  21
ATOM     21  C   LIG    1       -2.361   0.404   0.595  0.00  0.00    +0.340 C 
ATOM     22  F   LIG    1       -1.912  -0.910   0.761  0.00  0.00    -0.170 F 
ATOM     23  F   LIG    1       -3.066   0.508  -0.609  0.00  0.00    -0.170 F 
BRANCH  21  24
ATOM     24  C   LIG    1       -3.268   0.774   1.741  0.00  0.00    -0.150 A 
ATOM     25  C   LIG    1       -3.082   0.196   2.983  0.00  0.00    +0.050 A 
ATOM     26  C   LIG    1       -3.910   0.539   4.035  0.00  0.00    +0.010 A 
ATOM     27  C   LIG    1       -4.931   1.452   3.843  0.00  0.00    +0.040 A 
ATOM     28  C   LIG    1       -5.120   2.026   2.599  0.00  0.00    +0.010 A 
ATOM     29  C   LIG    1       -4.288   1.687   1.548  0.00  0.00    +0.060 A 
ENDBRANCH  21  24
ENDBRANCH  19  21
ENDBRANCH   6  17
TORSDOF 6
