REMARK  Name = ZINCvU00000005K0.0
REMARK                            x       y       z     vdW  Elec       q    Type
REMARK                         _______ _______ _______ _____ _____    ______ ____
ROOT
ATOM      1  O   LIG    1        4.704   0.007   0.985  0.00  0.00    -0.490 OA
ATOM      2  C   LIG    1        5.126  -1.054   1.404  0.00  0.00    +0.610 C 
ATOM      3  N   LIG    1        4.298  -1.903   2.046  0.00  0.00    -0.580 N 
ENDROOT
BRANCH   2   4
ATOM      4  C   LIG    1        6.534  -1.410   1.211  0.00  0.00    -0.080 A 
ATOM      5  C   LIG    1        7.512  -0.591   0.691  0.00  0.00    +0.060 A 
ATOM      6  C   LIG    1        8.698  -1.330   0.687  0.00  0.00    -0.030 A 
ATOM      7  C   LIG    1        8.406  -2.562   1.200  0.00  0.00    +0.060 A 
ATOM      8  O   LIG    1        7.098  -2.600   1.506  0.00  0.00    -0.150 OA
BRANCH   7   9
ATOM      9  C   LIG    1        9.365  -3.669   1.380  0.00  0.00    -0.070 A 
ATOM     10  C   LIG    1       10.138  -4.111   0.304  0.00  0.00    +0.080 A 
ATOM     11  C   LIG    1       11.033  -5.145   0.480  0.00  0.00    +0.010 A 
ATOM     12  C   LIG    1       11.168  -5.747   1.719  0.00  0.00    +0.070 A 
ATOM     13  C   LIG    1       10.411  -5.312   2.793  0.00  0.00    -0.020 A 
ATOM     14  C   LIG    1        9.506  -4.280   2.631  0.00  0.00    +0.130 A 
ATOM     15  F   LIG    1        8.763  -3.860   3.678  0.00  0.00    -0.120 F 
ENDBRANCH   7   9
ENDBRANCH   2   4
BRANCH   3  16
ATOM     16  C   LIG    1        2.857  -1.641   2.071  0.00  0.00    +0.200 C 
ATOM     17  C   LIG    1        2.305  -0.629   1.065  0.00  0.00    +0.050 C 
ATOM     18  C   LIG    1        2.398  -0.262   2.548  0.00  0.00    +0.020 C 
ENDBRANCH   3  16
BRANCH   3  19
ATOM     19  C   LIG    1        4.840  -3.086   2.718  0.00  0.00    +0.470 C 
BRANCH  19  20
ATOM     20  C   LIG    1        5.332  -2.703   4.090  0.00  0.00    +0.140 A 
ATOM     21  N   LIG    1        4.676  -2.840   5.209  0.00  0.00    -0.260 NA
ATOM     22  N   LIG    1        5.398  -2.413   6.185  0.00  0.00    -0.270 NA
ATOM     23  C   LIG    1        6.544  -1.978   5.718  0.00  0.00    +0.210 A 
ATOM     24  O   LIG    1        6.524  -2.154   4.381  0.00  0.00    -0.180 OA
BRANCH  23  25
ATOM     25  C   LIG    1        7.652  -1.401   6.509  0.00  0.00    -0.020 A 
ATOM     26  C   LIG    1        7.592  -1.404   7.903  0.00  0.00    +0.090 A 
ATOM     27  C   LIG    1        8.629  -0.865   8.636  0.00  0.00    +0.020 A 
ATOM     28  C   LIG    1        9.727  -0.322   7.993  0.00  0.00    +0.060 A 
ATOM     29  C   LIG    1        9.793  -0.315   6.611  0.00  0.00    +0.030 A 
ATOM     30  C   LIG    1        8.765  -0.857   5.865  0.00  0.00    -0.010 A 
ATOM     31 CL   LIG    1        8.853  -0.855   4.131  0.00  0.00    -0.030 Cl
ENDBRANCH  23  25
ENDBRANCH  19  20
ENDBRANCH   3  19
TORSDOF 6
