REMARK  Name = ZINCpk00000e9FkP.0
REMARK                            x       y       z     vdW  Elec       q    Type
REMARK                         _______ _______ _______ _____ _____    ______ ____
ROOT
ATOM      1  N   LIG    1       -1.185  -0.724   0.010  0.00  0.00    -0.580 N 
ATOM      2  C   LIG    1       -1.180  -2.190  -0.114  0.00  0.00    +0.300 C 
ATOM      3  C   LIG    1       -2.025  -2.773   1.030  0.00  0.00    +0.170 C 
ATOM      4  N   LIG    1       -3.357  -2.153   1.013  0.00  0.00    -0.530 NA
ATOM      5  C   LIG    1       -3.276  -0.708   1.264  0.00  0.00    +0.170 C 
ATOM      6  C   LIG    1       -2.482  -0.041   0.137  0.00  0.00    +0.300 C 
ENDROOT
BRANCH   1  11
ATOM      7  N   LIG    1        1.162   2.122  -0.045  0.00  0.00    -0.480 N 
ATOM      8  C   LIG    1        2.322   1.407  -0.015  0.00  0.00    +0.160 A 
ATOM      9  C   LIG    1        2.304   0.057   0.022  0.00  0.00    +0.190 A 
ATOM     10  N   LIG    1        1.160  -0.628   0.030  0.00  0.00    -0.510 NA
ATOM     11  C   LIG    1        0.002  -0.004   0.002  0.00  0.00    +0.350 A 
ATOM     12  C   LIG    1       -0.018   1.463  -0.038  0.00  0.00    +0.480 A 
ATOM     13  O   LIG    1       -1.074   2.072  -0.064  0.00  0.00    -0.530 OA
BRANCH   7  15
ATOM     14  C   LIG    1        1.191   4.135   1.343  0.00  0.00    +0.030 C 
ATOM     15  C   LIG    1        1.194   3.586  -0.085  0.00  0.00    +0.290 C 
ENDBRANCH   7  15
ENDBRANCH   1  11
BRANCH   4  16
ATOM     16  C   LIG    1       -4.253  -2.806   1.977  0.00  0.00    +0.240 C 
BRANCH  16  17
ATOM     17  C   LIG    1       -4.124  -4.302   1.849  0.00  0.00    -0.080 A 
ATOM     18  C   LIG    1       -3.191  -4.982   2.608  0.00  0.00    +0.080 A 
ATOM     19  C   LIG    1       -3.073  -6.355   2.491  0.00  0.00    +0.030 A 
ATOM     20  C   LIG    1       -3.889  -7.047   1.616  0.00  0.00    +0.100 A 
ATOM     21  C   LIG    1       -4.823  -6.366   0.858  0.00  0.00    -0.040 A 
ATOM     22  C   LIG    1       -4.944  -4.995   0.978  0.00  0.00    +0.130 A 
BRANCH  21  23
ATOM     23  N   LIG    1       -5.697  -7.107  -0.079  0.00  0.00    +0.030 N 
ATOM     24  O   LIG    1       -6.521  -6.508  -0.747  0.00  0.00    -0.150 OA
ATOM     25  O   LIG    1       -5.593  -8.317  -0.181  0.00  0.00    -0.160 OA
ENDBRANCH  21  23
ENDBRANCH  16  17
ENDBRANCH   4  16
TORSDOF 5
