REMARK  Name = ZINCpk000000oibU.0
REMARK                            x       y       z     vdW  Elec       q    Type
REMARK                         _______ _______ _______ _____ _____    ______ ____
ROOT
ATOM      1  N   LIG    1       -5.012   4.765   3.581  0.00  0.00    -0.410 N 
ATOM      2  C   LIG    1       -5.417   4.741   4.866  0.00  0.00    +0.500 A 
ATOM      3  N   LIG    1       -4.951   3.669   5.455  0.00  0.00    -0.500 NA
ATOM      4  C   LIG    1       -4.229   2.954   4.589  0.00  0.00    +0.320 A 
ATOM      5  N   LIG    1       -3.527   1.763   4.676  0.00  0.00    -0.510 N 
ATOM      6  C   LIG    1       -2.882   1.278   3.598  0.00  0.00    +0.710 A 
ATOM      7  O   LIG    1       -2.275   0.229   3.693  0.00  0.00    -0.530 OA
ATOM      8  N   LIG    1       -2.890   1.927   2.421  0.00  0.00    -0.540 N 
ATOM      9  C   LIG    1       -3.557   3.091   2.273  0.00  0.00    +0.590 A 
ATOM     10  O   LIG    1       -3.560   3.667   1.200  0.00  0.00    -0.510 OA
ATOM     11  C   LIG    1       -4.250   3.632   3.377  0.00  0.00    -0.160 A 
ENDROOT
BRANCH   1  12
ATOM     12  C   LIG    1       -5.323   5.798   2.589  0.00  0.00    +0.320 C 
BRANCH  12  13
ATOM     13  C   LIG    1       -6.544   5.370   1.773  0.00  0.00    +0.010 C 
BRANCH  13  15
ATOM     14  C   LIG    1       -8.090   6.020  -0.079  0.00  0.00    +0.020 C 
ATOM     15  C   LIG    1       -6.869   6.448   0.737  0.00  0.00    +0.020 C 
ENDBRANCH  13  15
ENDBRANCH  12  13
ENDBRANCH   1  12
BRANCH   5  16
ATOM     16  C   LIG    1       -3.488   1.028   5.943  0.00  0.00    +0.320 C 
BRANCH  16  17
ATOM     17  C   LIG    1       -4.659   0.045   5.997  0.00  0.00    +0.000 C 
ATOM     18  C   LIG    1       -4.620  -0.723   7.320  0.00  0.00    +0.030 C 
ENDBRANCH  16  17
ENDBRANCH   5  16
BRANCH   8  19
ATOM     19  C   LIG    1       -2.168   1.359   1.279  0.00  0.00    +0.330 C 
BRANCH  19  20
ATOM     20  C   LIG    1       -0.733   1.888   1.268  0.00  0.00    +0.210 C 
BRANCH  20  21
ATOM     21  C   LIG    1       -0.017   1.395   0.010  0.00  0.00    +0.430 C 
ATOM     22  F   LIG    1       -0.694   1.858  -1.124  0.00  0.00    -0.170 F 
ATOM     23  F   LIG    1        1.296   1.879  -0.000  0.00  0.00    -0.170 F 
ATOM     24  F   LIG    1        0.002  -0.004   0.002  0.00  0.00    -0.180 F 
ENDBRANCH  20  21
BRANCH  20  25
ATOM     25  O   LIG    1       -0.042   1.415   2.426  0.00  0.00    -0.520 OA
ATOM     26  H   LIG    1        0.010   0.451   2.487  0.00  0.00    +0.390 HD
ENDBRANCH  20  25
ENDBRANCH  19  20
ENDBRANCH   8  19
TORSDOF 9
