REMARK  Name = ZINCnE000001M5Hg.0
REMARK                            x       y       z     vdW  Elec       q    Type
REMARK                         _______ _______ _______ _____ _____    ______ ____
ROOT
ATOM      1  C   UNK A  0       -1.400   5.346  -3.395  0.00  0.00    +0.550 C 
ATOM      2  N   PHE A  1       -1.342   5.465  -2.054  0.00  0.00    -0.680 N 
ATOM      3  H   PHE A  1       -2.130   5.286  -1.516  0.00  0.00    +0.390 HD
ATOM      4  O   UNK A  0       -0.413   5.571  -4.068  0.00  0.00    -0.510 OA
ENDROOT
BRANCH   1   9
ATOM      5  C   UNK A  0       -4.979   4.304  -3.896  0.00  0.00    -0.090 A 
ATOM      6  C   UNK A  0       -5.031   4.183  -5.280  0.00  0.00    +0.020 A 
ATOM      7  C   UNK A  0       -3.908   4.439  -6.044  0.00  0.00    +0.040 A 
ATOM      8  C   UNK A  0       -2.726   4.817  -5.437  0.00  0.00    +0.010 A 
ATOM      9  C   UNK A  0       -2.663   4.942  -4.047  0.00  0.00    -0.090 A 
ATOM     10 CL   UNK A  0       -1.319   5.137  -6.402  0.00  0.00    -0.030 Cl
ATOM     11  C   UNK A  0       -3.796   4.678  -3.276  0.00  0.00    +0.090 A 
BRANCH   5  13
ATOM     12  C   UNK A  0       -7.654   3.530  -4.175  0.00  0.00    +0.130 C 
ATOM     13  S   UNK A  0       -6.414   3.974  -2.928  0.00  0.00    -0.100 S 
ENDBRANCH   5  13
ENDBRANCH   1   9
BRANCH   2  14
ATOM     14  CA  PHE A  1       -0.090   5.866  -1.407  0.00  0.00    +0.180 C 
BRANCH  14  15
ATOM     15  C   PHE A  1        0.013   7.369  -1.401  0.00  0.00    +0.490 C 
ATOM     16  OXT PHE A  1       -0.998   8.050  -1.358  0.00  0.00    -0.690 OA
ATOM     17  O   PHE A  1        1.108   7.905  -1.438  0.00  0.00    -0.690 OA
ENDBRANCH  14  15
BRANCH  14  18
ATOM     18  CB  PHE A  1       -0.070   5.347   0.032  0.00  0.00    +0.090 C 
BRANCH  18  19
ATOM     19  CG  PHE A  1       -0.050   3.840   0.023  0.00  0.00    -0.060 A 
ATOM     20  CD2 PHE A  1        1.156   3.165   0.008  0.00  0.00    +0.000 A 
ATOM     21  CE2 PHE A  1        1.175   1.783   0.000  0.00  0.00    +0.000 A 
ATOM     22  CZ  PHE A  1       -0.013   1.076   0.008  0.00  0.00    -0.010 A 
ATOM     23  CE1 PHE A  1       -1.219   1.751   0.017  0.00  0.00    +0.000 A 
ATOM     24  CD1 PHE A  1       -1.238   3.133   0.029  0.00  0.00    +0.000 A 
ENDBRANCH  18  19
ENDBRANCH  14  18
ENDBRANCH   2  14
TORSDOF 6
