REMARK  Name = ZINCpk00001AZiTi.0
REMARK                            x       y       z     vdW  Elec       q    Type
REMARK                         _______ _______ _______ _____ _____    ______ ____
ROOT
ATOM      1  C   LIG    1       -1.905  -6.446  -0.625  0.00  0.00    +0.170 C 
ATOM      2  C   LIG    1       -0.911  -7.493  -0.057  0.00  0.00    +0.080 C 
ATOM      3  C   LIG    1        0.428  -6.725  -0.040  0.00  0.00    +0.370 C 
ATOM      4  N   LIG    1        0.107  -5.290  -0.028  0.00  0.00    -0.610 N 
ATOM      5  C   LIG    1        1.006  -4.285  -0.032  0.00  0.00    +0.700 C 
ATOM      6  O   LIG    1        2.199  -4.534  -0.045  0.00  0.00    -0.590 OA
ATOM      7  C   LIG    1       -1.358  -5.133  -0.006  0.00  0.00    +0.270 C 
ENDROOT
BRANCH   5   8
ATOM      8  N   LIG    1        0.588  -3.017  -0.021  0.00  0.00    -0.680 NA
ATOM      9  C   LIG    1        1.476  -2.023  -0.024  0.00  0.00    +0.530 C 
ATOM     10  N   LIG    1        2.818  -2.154  -0.038  0.00  0.00    -0.330 NA
ATOM     11  N   LIG    1        3.372  -0.867  -0.036  0.00  0.00    -0.410 NA
ATOM     12  C   LIG    1        2.388   0.003  -0.021  0.00  0.00    +0.350 C 
ATOM     13  C   LIG    1        2.375   1.420  -0.013  0.00  0.00    +0.010 C 
ATOM     14  C   LIG    1        1.188   2.074   0.002  0.00  0.00    +0.160 C 
ATOM     15  C   LIG    1       -0.016   1.341   0.009  0.00  0.00    -0.010 C 
ATOM     16  C   LIG    1        0.002  -0.004   0.002  0.00  0.00    +0.340 C 
ATOM     17  H   LIG    1        4.318  -0.655  -0.044  0.00  0.00    +0.460 HD
ATOM     18  N   LIG    1        1.192  -0.688  -0.013  0.00  0.00    -0.400 N 
ENDBRANCH   5   8
BRANCH   3  19
ATOM     19  C   LIG    1        1.210  -7.086   1.197  0.00  0.00    +0.190 A 
ATOM     20  N   LIG    1        2.268  -7.858   1.254  0.00  0.00    -0.470 NA
ATOM     21  C   LIG    1        2.622  -7.891   2.552  0.00  0.00    +0.170 A 
ATOM     22  N   LIG    1        1.776  -7.152   3.205  0.00  0.00    -0.390 NA
ATOM     23  C   LIG    1        3.785  -8.648   3.140  0.00  0.00    +0.210 C 
ATOM     24  O   LIG    1        0.960  -6.675   2.444  0.00  0.00    +0.080 OA
ENDBRANCH   3  19
BRANCH   1  26
ATOM     25  C   LIG    1       -4.251  -6.296  -1.095  0.00  0.00    +0.210 C 
ATOM     26  O   LIG    1       -3.236  -6.707  -0.176  0.00  0.00    -0.370 OA
ENDBRANCH   1  26
TORSDOF 3
