REMARK  Name = ZINCrD000000g7YU.0
REMARK                            x       y       z     vdW  Elec       q    Type
REMARK                         _______ _______ _______ _____ _____    ______ ____
ROOT
ATOM      1  C   LIG    1        1.778   2.969   0.877  0.00  0.00    +0.540 C 
ATOM      2  N   LIG    1        1.490   1.653   0.822  0.00  0.00    -0.610 N 
ATOM      3  C   LIG    1        2.561   0.647   0.737  0.00  0.00    +0.240 C 
ATOM      4  C   LIG    1        2.316  -0.412   1.818  0.00  0.00    +0.220 C 
ATOM      5  O   LIG    1        0.976  -0.899   1.705  0.00  0.00    -0.370 OA
ATOM      6  C   LIG    1       -0.028   0.095   1.921  0.00  0.00    +0.190 C 
ATOM      7  C   LIG    1        0.097   1.181   0.845  0.00  0.00    +0.270 C 
ATOM      8  O   LIG    1        0.882   3.783   0.947  0.00  0.00    -0.520 OA
ENDROOT
BRANCH   1  15
ATOM      9  C   LIG    1        2.645   4.136   3.126  0.00  0.00    +0.650 C 
ATOM     10  N   LIG    1        3.533   4.113   2.113  0.00  0.00    -0.590 N 
ATOM     11  C   LIG    1        4.838   4.773   2.246  0.00  0.00    +0.280 C 
ATOM     12  C   LIG    1        5.026   5.737   1.071  0.00  0.00    +0.010 C 
ATOM     13  C   LIG    1        4.838   4.976  -0.243  0.00  0.00    +0.020 C 
ATOM     14  C   LIG    1        3.420   4.404  -0.309  0.00  0.00    +0.030 C 
ATOM     15  C   LIG    1        3.213   3.428   0.853  0.00  0.00    +0.240 C 
ATOM     16  O   LIG    1        1.615   3.495   3.047  0.00  0.00    -0.540 OA
BRANCH   9  17
ATOM     17  O   LIG    1        2.898   4.869   4.227  0.00  0.00    -0.360 OA
BRANCH  17  19
ATOM     18  C   LIG    1        1.711   3.411   5.774  0.00  0.00    +0.030 C 
ATOM     19  C   LIG    1        1.898   4.846   5.279  0.00  0.00    +0.140 C 
ATOM     20  C   LIG    1        0.570   5.374   4.731  0.00  0.00    +0.040 C 
ATOM     21  C   LIG    1        2.358   5.731   6.439  0.00  0.00    +0.080 C 
ENDBRANCH  17  19
ENDBRANCH   9  17
ENDBRANCH   1  15
BRANCH   6  22
ATOM     22  C   LIG    1       -1.392  -0.539   1.839  0.00  0.00    -0.090 A 
ATOM     23  C   LIG    1       -1.622  -1.573   0.950  0.00  0.00    +0.040 A 
ATOM     24  C   LIG    1       -2.872  -2.159   0.878  0.00  0.00    +0.000 A 
ATOM     25  C   LIG    1       -3.896  -1.704   1.689  0.00  0.00    +0.000 A 
ATOM     26  C   LIG    1       -3.668  -0.666   2.574  0.00  0.00    +0.000 A 
ATOM     27  C   LIG    1       -2.416  -0.084   2.648  0.00  0.00    +0.010 A 
ENDBRANCH   6  22
TORSDOF 4
