REMARK  Name = ZINCqH0000050s26.0
REMARK                            x       y       z     vdW  Elec       q    Type
REMARK                         _______ _______ _______ _____ _____    ______ ____
ROOT
ATOM      1  N   LIG    1        4.759   1.073   2.488  0.00  0.00    -1.030 NA
ATOM      2  C   LIG    1        4.291   0.055   1.528  0.00  0.00    +0.310 C 
ATOM      3  C   LIG    1        3.009   0.900   1.417  0.00  0.00    +0.000 C 
ATOM      4  C   LIG    1        3.870   2.086   1.887  0.00  0.00    +0.310 C 
ENDROOT
BRANCH   1   5
ATOM      5  S   LIG    1        5.846   1.076   3.738  0.00  0.00    +2.710 S 
ATOM      6  O   LIG    1        5.962  -0.272   4.172  0.00  0.00    -0.950 OA
ATOM      7  O   LIG    1        5.463   2.140   4.599  0.00  0.00    -0.950 OA
BRANCH   5  12
ATOM      8  C   LIG    1       11.212   2.595   1.435  0.00  0.00    +0.090 C 
ATOM      9  C   LIG    1        9.872   2.216   2.011  0.00  0.00    -0.030 A 
ATOM     10  C   LIG    1        9.018   3.197   2.479  0.00  0.00    -0.010 A 
ATOM     11  C   LIG    1        7.788   2.849   3.006  0.00  0.00    +0.120 A 
ATOM     12  C   LIG    1        7.413   1.520   3.066  0.00  0.00    -0.690 A 
ATOM     13  C   LIG    1        8.269   0.538   2.602  0.00  0.00    +0.120 A 
ATOM     14  C   LIG    1        9.496   0.887   2.071  0.00  0.00    -0.010 A 
ENDBRANCH   5  12
ENDBRANCH   1   5
BRANCH   3  15
ATOM     15  C   LIG    1        2.490   1.046  -0.015  0.00  0.00    +0.100 C 
BRANCH  15  16
ATOM     16  C   LIG    1        1.174   1.782   0.000  0.00  0.00    -0.090 A 
ATOM     17  C   LIG    1       -0.013   1.076   0.008  0.00  0.00    +0.060 A 
ATOM     18  C   LIG    1       -1.220   1.750   0.017  0.00  0.00    +0.000 A 
ATOM     19  C   LIG    1       -1.242   3.132   0.030  0.00  0.00    +0.050 A 
ATOM     20  C   LIG    1       -0.057   3.844   0.022  0.00  0.00    -0.060 A 
ATOM     21  C   LIG    1        1.155   3.169   0.008  0.00  0.00    +0.110 A 
BRANCH  21  22
ATOM     22  O   LIG    1        2.321   3.867   0.001  0.00  0.00    -0.310 OA
BRANCH  22  23
ATOM     23  C   LIG    1        2.225   5.292   0.009  0.00  0.00    +0.600 C 
ATOM     24  F   LIG    1        1.526   5.719  -1.125  0.00  0.00    -0.160 F 
ATOM     25  F   LIG    1        3.510   5.846   0.000  0.00  0.00    -0.130 F 
ATOM     26  F   LIG    1        1.546   5.707   1.159  0.00  0.00    -0.160 F 
ENDBRANCH  22  23
ENDBRANCH  21  22
ENDBRANCH  15  16
ENDBRANCH   3  15
TORSDOF 6
