REMARK  Name = ZINCpk00000eaVvb.0
REMARK                            x       y       z     vdW  Elec       q    Type
REMARK                         _______ _______ _______ _____ _____    ______ ____
ROOT
ATOM      1  C   LIG    1        2.051   4.373   0.006  0.00  0.00    +0.570 C 
ATOM      2  O   LIG    1        3.179   3.925  -0.007  0.00  0.00    -0.470 OA
ENDROOT
BRANCH   1  10
ATOM      3  C   LIG    1        4.112   9.552   0.016  0.00  0.00    +0.170 C 
ATOM      4  C   LIG    1        2.630   9.280   0.028  0.00  0.00    +0.200 A 
ATOM      5  C   LIG    1        1.741  10.305   0.043  0.00  0.00    -0.030 A 
ATOM      6  C   LIG    1        0.368  10.022   0.055  0.00  0.00    +0.240 A 
ATOM      7  N   LIG    1       -0.053   8.779   0.051  0.00  0.00    -0.460 NA
ATOM      8  C   LIG    1        0.815   7.759   0.037  0.00  0.00    +0.460 A 
ATOM      9  N   LIG    1        0.648   6.445   0.031  0.00  0.00    -0.480 NA
ATOM     10  C   LIG    1        1.837   5.838   0.016  0.00  0.00    +0.260 A 
ATOM     11  N   LIG    1        2.792   6.749   0.017  0.00  0.00    -0.260 NA
ATOM     12  C   LIG    1       -0.629  11.152   0.071  0.00  0.00    +0.170 C 
ATOM     13  N   LIG    1        2.163   8.001   0.025  0.00  0.00    -0.330 N 
ENDBRANCH   1  10
BRANCH   1  14
ATOM     14  O   LIG    1        0.994   3.538   0.012  0.00  0.00    -0.300 OA
BRANCH  14  15
ATOM     15  C   LIG    1        1.278   2.115   0.001  0.00  0.00    +0.270 C 
BRANCH  15  16
ATOM     16  C   LIG    1       -0.016   1.344   0.009  0.00  0.00    +0.520 C 
ATOM     17  N   LIG    1        0.002  -0.004   0.002  0.00  0.00    -0.610 N 
ATOM     18  C   LIG    1        1.276  -0.735  -0.020  0.00  0.00    +0.260 C 
ATOM     19  C   LIG    1        1.287  -1.734   1.147  0.00  0.00    -0.020 C 
ATOM     20  C   LIG    1        0.048  -2.628   1.058  0.00  0.00    +0.030 C 
ATOM     21  C   LIG    1       -1.213  -1.768   1.171  0.00  0.00    -0.030 C 
ATOM     22  C   LIG    1       -2.450  -2.666   1.115  0.00  0.00    +0.030 C 
ATOM     23  C   LIG    1        1.273  -0.973   2.475  0.00  0.00    +0.020 C 
ATOM     24  C   LIG    1       -1.252  -0.770   0.010  0.00  0.00    +0.290 C 
ATOM     25  O   LIG    1       -1.075   1.936   0.018  0.00  0.00    -0.510 OA
ENDBRANCH  15  16
ENDBRANCH  14  15
ENDBRANCH   1  14
TORSDOF 4
