REMARK  Name = ZINCrH000004ri2k.0
REMARK                            x       y       z     vdW  Elec       q    Type
REMARK                         _______ _______ _______ _____ _____    ______ ____
ROOT
ATOM      1  C   LIG    1       -1.207   1.587   0.017  0.00  0.00    +0.600 C 
ATOM      2  N   LIG    1       -0.011   0.966   0.007  0.00  0.00    -0.670 N 
ATOM      3  H   LIG    1        0.032  -0.003   0.007  0.00  0.00    +0.410 HD
ATOM      4  O   LIG    1       -1.264   2.799  -0.067  0.00  0.00    -0.530 OA
ENDROOT
BRANCH   2   5
ATOM      5  C   LIG    1        1.169   1.720  -0.008  0.00  0.00    +0.130 A 
ATOM      6  C   LIG    1        2.294   1.264   0.676  0.00  0.00    +0.030 A 
ATOM      7  C   LIG    1        3.463   1.994   0.670  0.00  0.00    +0.050 A 
ATOM      8  C   LIG    1        3.528   3.196  -0.022  0.00  0.00    +0.050 A 
ATOM      9  O   LIG    1        4.507   4.107  -0.205  0.00  0.00    -0.190 OA
ATOM     10  C   LIG    1        4.077   5.126  -0.968  0.00  0.00    +0.030 A 
ATOM     11  C   LIG    1        2.799   4.932  -1.321  0.00  0.00    -0.020 A 
ATOM     12  C   LIG    1        2.395   3.659  -0.712  0.00  0.00    -0.120 A 
ATOM     13  C   LIG    1        1.218   2.913  -0.707  0.00  0.00    +0.080 A 
BRANCH  10  14
ATOM     14  C   LIG    1        4.911   6.316  -1.369  0.00  0.00    +0.310 C 
BRANCH  14  15
ATOM     15  O   LIG    1        4.769   7.348  -0.391  0.00  0.00    -0.560 OA
ATOM     16  H   LIG    1        5.280   8.146  -0.584  0.00  0.00    +0.390 HD
ENDBRANCH  14  15
ENDBRANCH  10  14
ENDBRANCH   2   5
BRANCH   1  19
ATOM     17  N   LIG    1       -4.567   0.245   0.267  0.00  0.00    -0.350 N 
ATOM     18  C   LIG    1       -3.735   1.293   0.153  0.00  0.00    +0.330 A 
ATOM     19  C   LIG    1       -2.447   0.797   0.130  0.00  0.00    -0.300 A 
ATOM     20  C   LIG    1       -2.539  -0.609   0.229  0.00  0.00    +0.270 A 
ATOM     21  N   LIG    1       -3.802  -0.925   0.316  0.00  0.00    -0.280 NA
BRANCH  17  22
ATOM     22  C   LIG    1       -6.029   0.316   0.327  0.00  0.00    +0.380 C 
BRANCH  22  27
ATOM     23  C   LIG    1       -8.293  -3.025  -3.808  0.00  0.00    +0.090 C 
ATOM     24  C   LIG    1       -7.703  -2.154  -2.730  0.00  0.00    -0.070 A 
ATOM     25  C   LIG    1       -7.444  -2.682  -1.479  0.00  0.00    +0.010 A 
ATOM     26  C   LIG    1       -6.903  -1.883  -0.489  0.00  0.00    +0.050 A 
ATOM     27  C   LIG    1       -6.619  -0.555  -0.751  0.00  0.00    -0.120 A 
ATOM     28  C   LIG    1       -6.882  -0.026  -2.001  0.00  0.00    +0.030 A 
ATOM     29  C   LIG    1       -7.419  -0.827  -2.992  0.00  0.00    -0.010 A 
ENDBRANCH  22  27
ENDBRANCH  17  22
ENDBRANCH   1  19
TORSDOF 6
