REMARK  Name = ZINCtV00000L6k3S.0
REMARK                            x       y       z     vdW  Elec       q    Type
REMARK                         _______ _______ _______ _____ _____    ______ ____
ROOT
ATOM      1  C   LIG    1        1.759  -0.033  -0.011  0.00  0.00    -0.310 A 
ATOM      2  C   LIG    1        2.235   1.248  -0.009  0.00  0.00    +0.050 A 
ATOM      3  C   LIG    1        1.255   2.211   0.002  0.00  0.00    -0.170 A 
ATOM      4  C   LIG    1       -0.021   1.697   0.011  0.00  0.00    +0.040 A 
ATOM      5  N   LIG    1       -1.142   2.522   0.032  0.00  0.00    -0.610 N 
ATOM      6  H   LIG    1       -2.018   2.172  -0.194  0.00  0.00    +0.420 HD
ATOM      7  C   LIG    1       -0.982   3.838   0.375  0.00  0.00    +0.230 C 
ATOM      8  C   LIG    1        0.228   4.437   0.379  0.00  0.00    -0.280 C 
ATOM      9  C   LIG    1        0.360   5.791   0.741  0.00  0.00    +0.400 C 
ATOM     10  C   LIG    1       -0.834   6.627   1.106  0.00  0.00    +0.040 C 
ATOM     11  C   LIG    1       -2.067   6.076   0.382  0.00  0.00    -0.050 C 
ATOM     12  C   LIG    1       -3.310   6.857   0.811  0.00  0.00    +0.050 C 
ATOM     13  C   LIG    1       -1.875   6.199  -1.131  0.00  0.00    +0.030 C 
ATOM     14  O   LIG    1        1.465   6.295   0.759  0.00  0.00    -0.470 OA
ATOM     15  C   LIG    1       -2.227   4.603   0.763  0.00  0.00    +0.100 C 
ATOM     16  C   LIG    1        1.496   3.709  -0.001  0.00  0.00    +0.190 C 
ATOM     17  C   LIG    1        3.705   1.576  -0.018  0.00  0.00    +0.130 C 
ATOM     18  S   LIG    1        0.002  -0.004   0.002  0.00  0.00    +0.280 S 
ENDROOT
BRANCH  16  19
ATOM     19  C   LIG    1        1.928   4.143  -1.378  0.00  0.00    -0.060 A 
ATOM     20  C   LIG    1        1.098   3.929  -2.462  0.00  0.00    +0.030 A 
ATOM     21  C   LIG    1        1.492   4.332  -3.725  0.00  0.00    +0.020 A 
ATOM     22  C   LIG    1        2.722   4.939  -3.905  0.00  0.00    -0.040 A 
ATOM     23  C   LIG    1        3.555   5.147  -2.820  0.00  0.00    +0.020 A 
ATOM     24 CL   LIG    1        3.221   5.437  -5.491  0.00  0.00    -0.070 Cl
ATOM     25  C   LIG    1        3.157   4.750  -1.557  0.00  0.00    +0.040 A 
ENDBRANCH  16  19
BRANCH   1  26
ATOM     26  C   LIG    1        2.558  -1.203  -0.022  0.00  0.00    +0.550 C 
ATOM     27  O   LIG    1        3.772  -1.111  -0.031  0.00  0.00    -0.500 OA
BRANCH  26  28
ATOM     28  O   LIG    1        1.974  -2.419  -0.023  0.00  0.00    -0.360 OA
BRANCH  28  30
ATOM     29  C   LIG    1        2.003  -4.836  -0.034  0.00  0.00    +0.070 C 
ATOM     30  C   LIG    1        2.841  -3.555  -0.035  0.00  0.00    +0.200 C 
ENDBRANCH  28  30
ENDBRANCH  26  28
ENDBRANCH   1  26
TORSDOF 4
