REMARK  Name = ZINCqH0000007pGF.0
REMARK                            x       y       z     vdW  Elec       q    Type
REMARK                         _______ _______ _______ _____ _____    ______ ____
ROOT
ATOM      1  C   LIG    1       -0.013   1.086   0.008  0.00  0.00    +0.240 C 
ENDROOT
BRANCH   1   5
ATOM      2  C   LIG    1        3.996   2.565  -0.022  0.00  0.00    +0.130 A 
ATOM      3  C   LIG    1        3.731   1.268  -0.438  0.00  0.00    -0.020 A 
ATOM      4  C   LIG    1        2.434   0.792  -0.427  0.00  0.00    +0.060 A 
ATOM      5  C   LIG    1        1.401   1.607  -0.003  0.00  0.00    -0.130 A 
ATOM      6  C   LIG    1        1.662   2.902   0.406  0.00  0.00    +0.080 A 
ATOM      7  C   LIG    1        2.958   3.381   0.403  0.00  0.00    -0.080 A 
BRANCH   2   9
ATOM      8  C   LIG    1        5.470   4.380   0.409  0.00  0.00    +0.250 C 
ATOM      9  O   LIG    1        5.271   3.035  -0.032  0.00  0.00    -0.320 OA
ENDBRANCH   2   9
ENDBRANCH   1   5
BRANCH   1  10
ATOM     10  C   LIG    1       -0.742   1.585  -1.213  0.00  0.00    -0.070 A 
ATOM     11  C   LIG    1       -1.257   2.868  -1.234  0.00  0.00    +0.050 A 
ATOM     12  C   LIG    1       -1.922   3.327  -2.355  0.00  0.00    -0.010 A 
ATOM     13  C   LIG    1       -2.079   2.501  -3.453  0.00  0.00    +0.000 A 
ATOM     14  C   LIG    1       -1.568   1.216  -3.430  0.00  0.00    +0.000 A 
ATOM     15  C   LIG    1       -0.899   0.759  -2.310  0.00  0.00    +0.000 A 
ENDBRANCH   1  10
BRANCH   1  16
ATOM     16  N   LIG    1       -0.700   1.560   1.217  0.00  0.00    -0.660 NA
ATOM     17  H   LIG    1       -0.052   1.669   1.982  0.00  0.00    +0.360 HD
BRANCH  16  18
ATOM     18  C   LIG    1       -1.801   0.659   1.583  0.00  0.00    +0.200 C 
BRANCH  18  19
ATOM     19  C   LIG    1       -2.481   1.176   2.825  0.00  0.00    +0.510 C 
ATOM     20  N   LIG    1       -3.527   0.507   3.349  0.00  0.00    -0.610 N 
ATOM     21  C   LIG    1       -3.976  -0.701   2.693  0.00  0.00    +0.270 C 
ATOM     22  C   LIG    1       -5.033  -0.356   1.623  0.00  0.00    +0.010 C 
ATOM     23  C   LIG    1       -6.292   0.055   2.263  0.00  0.00    +0.000 C 
ATOM     24  C   LIG    1       -6.182   1.319   3.110  0.00  0.00    +0.010 C 
ATOM     25  C   LIG    1       -5.706   0.955   4.494  0.00  0.00    +0.020 C 
ATOM     26  C   LIG    1       -4.171   1.040   4.565  0.00  0.00    +0.260 C 
ATOM     27  O   LIG    1       -2.088   2.195   3.352  0.00  0.00    -0.520 OA
ENDBRANCH  18  19
ENDBRANCH  16  18
ENDBRANCH   1  16
TORSDOF 6
