REMARK  Name = ZINCnE000008Jfpu.0
REMARK                            x       y       z     vdW  Elec       q    Type
REMARK                         _______ _______ _______ _____ _____    ______ ____
ROOT
ATOM      1  S   LIG    1        3.822   1.958  -0.024  0.00  0.00    +2.610 S 
ATOM      2  O   LIG    1        3.898   2.625   1.229  0.00  0.00    -1.020 OA
ATOM      3  O   LIG    1        3.875   2.638  -1.270  0.00  0.00    -1.040 OA
ENDROOT
BRANCH   1   6
ATOM      4  C   LIG    1        7.007  -0.223  -1.149  0.00  0.00    +0.060 A 
ATOM      5  C   LIG    1        5.975   0.703  -1.135  0.00  0.00    +0.070 A 
ATOM      6  C   LIG    1        5.133   0.782  -0.042  0.00  0.00    -0.620 A 
ATOM      7  C   LIG    1        5.324  -0.061   1.043  0.00  0.00    +0.200 A 
ATOM      8  C   LIG    1        6.354  -0.990   1.027  0.00  0.00    -0.060 A 
ATOM      9  C   LIG    1        7.195  -1.069  -0.066  0.00  0.00    -0.040 A 
ATOM     10  C   LIG    1        8.317  -2.076  -0.081  0.00  0.00    +0.100 C 
BRANCH   4  12
ATOM     11  C   LIG    1        7.584   0.600  -3.304  0.00  0.00    +0.240 C 
ATOM     12  O   LIG    1        7.836  -0.301  -2.224  0.00  0.00    -0.320 OA
ENDBRANCH   4  12
BRANCH   7  13
ATOM     13  O   LIG    1        4.499   0.021   2.121  0.00  0.00    -0.290 OA
ATOM     14  C   LIG    1        4.754  -0.877   3.203  0.00  0.00    +0.230 C 
ENDBRANCH   7  13
ENDBRANCH   1   6
BRANCH   1  15
ATOM     15  N   LIG    1        2.401   1.108  -0.015  0.00  0.00    -1.080 NA
BRANCH  15  16
ATOM     16  C   LIG    1        1.180   1.788   0.000  0.00  0.00    +0.290 A 
ATOM     17  C   LIG    1       -0.013   1.076   0.008  0.00  0.00    -0.080 A 
ATOM     18  C   LIG    1       -1.217   1.751   0.017  0.00  0.00    -0.050 A 
ATOM     19  C   LIG    1       -1.237   3.134   0.030  0.00  0.00    -0.130 A 
ATOM     20  C   LIG    1       -0.051   3.845   0.023  0.00  0.00    -0.040 A 
ATOM     21  C   LIG    1       -0.078   5.352   0.032  0.00  0.00    +0.070 C 
ATOM     22  C   LIG    1       -2.512   0.980   0.019  0.00  0.00    +0.070 C 
ATOM     23  C   LIG    1        1.157   3.176   0.008  0.00  0.00    -0.180 A 
ENDBRANCH  15  16
ENDBRANCH   1  15
TORSDOF 5
