REMARK  Name = ZINCnE000001H7u7.0
REMARK                            x       y       z     vdW  Elec       q    Type
REMARK                         _______ _______ _______ _____ _____    ______ ____
ROOT
ATOM      1  C   LIG    1       -0.048   3.848   0.024  0.00  0.00    -0.060 A 
ATOM      2  C   LIG    1        1.155   3.167   0.009  0.00  0.00    +0.010 A 
ATOM      3  C   LIG    1        1.172   1.783   0.000  0.00  0.00    -0.010 A 
ATOM      4  C   LIG    1       -0.013   1.076   0.008  0.00  0.00    +0.010 A 
ATOM      5  C   LIG    1       -1.228   1.757   0.017  0.00  0.00    -0.070 A 
ATOM      6  C   LIG    1       -1.240   3.151   0.031  0.00  0.00    +0.060 A 
ENDROOT
BRANCH   5   7
ATOM      7  C   LIG    1       -2.505   1.002   0.019  0.00  0.00    +0.030 A 
ATOM      8  C   LIG    1       -3.721   1.684   0.034  0.00  0.00    +0.010 A 
ATOM      9  C   LIG    1       -4.906   0.976   0.029  0.00  0.00    +0.120 A 
ATOM     10  C   LIG    1       -4.888  -0.407   0.021  0.00  0.00    -0.670 A 
ATOM     11  C   LIG    1       -3.685  -1.089   0.012  0.00  0.00    +0.120 A 
ATOM     12  C   LIG    1       -2.494  -0.391   0.011  0.00  0.00    -0.010 A 
BRANCH  10  13
ATOM     13  S   LIG    1       -6.405  -1.304   0.022  0.00  0.00    +2.500 S 
ATOM     14  O   LIG    1       -6.080  -2.543  -0.592  0.00  0.00    -0.940 OA
ATOM     15  O   LIG    1       -7.339  -0.414  -0.575  0.00  0.00    -0.940 OA
ATOM     16  C   LIG    1       -6.787  -1.544   1.778  0.00  0.00    -0.260 C 
ENDBRANCH  10  13
ENDBRANCH   5   7
BRANCH   1  17
ATOM     17  C   LIG    1       -0.059   5.355   0.033  0.00  0.00    +0.080 C 
BRANCH  17  18
ATOM     18  C   LIG    1       -0.076   5.873  -1.407  0.00  0.00    -0.100 C 
BRANCH  18  19
ATOM     19  C   LIG    1       -1.367   5.469  -2.071  0.00  0.00    +0.510 C 
ATOM     20  O   LIG    1       -1.347   4.769  -3.068  0.00  0.00    -0.700 OA
ATOM     21  O   LIG    1       -2.433   5.843  -1.611  0.00  0.00    -0.700 OA
ENDBRANCH  18  19
BRANCH  18  23
ATOM     22  C   LIG    1        0.147   7.908  -2.840  0.00  0.00    +0.000 C 
ATOM     23  C   LIG    1        0.038   7.399  -1.401  0.00  0.00    -0.000 C 
ENDBRANCH  18  23
ENDBRANCH  17  18
ENDBRANCH   1  17
TORSDOF 6
