REMARK  Name = ZINCrD00000F5LmH.0
REMARK                            x       y       z     vdW  Elec       q    Type
REMARK                         _______ _______ _______ _____ _____    ______ ____
ROOT
ATOM      1  N   LIG    1        1.907   4.938  -1.970  0.00  0.00    -0.470 N 
ENDROOT
BRANCH   1   2
ATOM      2  C   LIG    1        2.420   6.112  -2.482  0.00  0.00    +0.410 A 
ATOM      3  N   LIG    1        3.389   6.088  -3.392  0.00  0.00    -0.530 NA
ATOM      4  C   LIG    1        3.881   7.207  -3.884  0.00  0.00    +0.400 A 
ATOM      5  N   LIG    1        3.446   8.393  -3.506  0.00  0.00    -0.530 NA
ATOM      6  C   LIG    1        2.484   8.515  -2.606  0.00  0.00    +0.400 A 
ATOM      7  C   LIG    1        1.922   7.361  -2.055  0.00  0.00    -0.150 A 
BRANCH   4   8
ATOM      8  C   LIG    1        4.979   7.128  -4.913  0.00  0.00    +0.020 C 
ATOM      9  C   LIG    1        5.668   8.435  -5.312  0.00  0.00    +0.060 C 
ATOM     10  C   LIG    1        4.707   7.748  -6.285  0.00  0.00    +0.060 C 
ENDBRANCH   4   8
BRANCH   7  11
ATOM     11  C   LIG    1        0.875   7.444  -1.081  0.00  0.00    +0.260 C 
ATOM     12  N   LIG    1        0.044   7.509  -0.309  0.00  0.00    -0.390 NA
ENDBRANCH   7  11
ENDBRANCH   1   2
BRANCH   1  13
ATOM     13  C   LIG    1        2.241   3.797  -2.833  0.00  0.00    +0.210 C 
BRANCH  13  14
ATOM     14  C   LIG    1        1.186   2.702  -2.661  0.00  0.00    +0.130 C 
ATOM     15  C   LIG    1        1.174   2.205  -1.200  0.00  0.00    -0.010 C 
ATOM     16  C   LIG    1        0.915   0.683  -1.319  0.00  0.00    +0.020 C 
ATOM     17  C   LIG    1        1.732   0.294  -2.576  0.00  0.00    +0.020 C 
ATOM     18  C   LIG    1        1.541   1.487  -3.535  0.00  0.00    +0.040 C 
BRANCH  14  19
ATOM     19  O   LIG    1       -0.103   3.203  -3.019  0.00  0.00    -0.370 OA
BRANCH  19  21
ATOM     20  C   LIG    1       -2.015   4.605  -2.552  0.00  0.00    +0.040 C 
ATOM     21  C   LIG    1       -0.581   4.243  -2.163  0.00  0.00    +0.160 C 
ENDBRANCH  19  21
ENDBRANCH  14  19
ENDBRANCH  13  14
ENDBRANCH   1  13
BRANCH   1  22
ATOM     22  C   LIG    1        2.376   4.714  -0.596  0.00  0.00    +0.320 C 
BRANCH  22  23
ATOM     23  C   LIG    1        3.868   4.498  -0.603  0.00  0.00    -0.280 A 
ATOM     24  C   LIG    1        4.812   5.467  -0.596  0.00  0.00    +0.250 A 
ATOM     25  N   LIG    1        6.019   4.865  -0.606  0.00  0.00    -0.470 N 
ATOM     26  H   LIG    1        6.880   5.312  -0.605  0.00  0.00    +0.440 HD
ATOM     27  N   LIG    1        5.810   3.480  -0.626  0.00  0.00    -0.280 NA
ATOM     28  C   LIG    1        4.520   3.261  -0.619  0.00  0.00    +0.250 A 
ENDBRANCH  22  23
ENDBRANCH   1  22
TORSDOF 9
