REMARK  Name = ZINCrg00001JduOb.2
REMARK                            x       y       z     vdW  Elec       q    Type
REMARK                         _______ _______ _______ _____ _____    ______ ____
ROOT
ATOM      1  C   LIG    1        0.911   2.267   2.823  0.00  0.00    +0.220 C 
ATOM      2  C   LIG    1        0.076   3.516   2.440  0.00  0.00    +0.000 C 
ATOM      3  C   LIG    1       -0.735   3.041   1.213  0.00  0.00    +0.180 C 
ATOM      4  N   LIG    1       -0.699   1.559   1.215  0.00  0.00    -0.500 NA
ATOM      5  C   LIG    1       -0.013   1.086   0.008  0.00  0.00    +0.180 C 
ATOM      6  C   LIG    1       -0.064   1.124   2.467  0.00  0.00    +0.120 C 
ATOM      7  C   LIG    1        0.682  -0.195   2.358  0.00  0.00    +0.020 C 
ATOM      8  C   LIG    1       -0.295  -1.348   2.109  0.00  0.00    +0.040 C 
ATOM      9  C   LIG    1       -1.367  -1.357   3.201  0.00  0.00    +0.160 C 
ATOM     10  N   LIG    1       -2.067  -0.064   3.212  0.00  0.00    -0.510 NA
ATOM     11  C   LIG    1       -1.135   1.019   3.560  0.00  0.00    +0.200 C 
ENDROOT
BRANCH   1  13
ATOM     12  C   LIG    1        2.402   2.817   4.664  0.00  0.00    +0.580 C 
ATOM     13  N   LIG    1        1.244   2.272   4.245  0.00  0.00    -0.710 N 
ATOM     14  H   LIG    1        0.631   1.882   4.887  0.00  0.00    +0.400 HD
ATOM     15  O   LIG    1        3.171   3.307   3.858  0.00  0.00    -0.530 OA
BRANCH  12  21
ATOM     16  C   LIG    1        5.016   4.030   5.771  0.00  0.00    +0.120 C 
ATOM     17  C   LIG    1        3.957   3.386   6.627  0.00  0.00    -0.050 A 
ATOM     18  C   LIG    1        4.049   3.278   7.947  0.00  0.00    -0.070 A 
ATOM     19  S   LIG    1        2.632   2.474   8.601  0.00  0.00    +0.200 S 
ATOM     20  C   LIG    1        1.929   2.300   7.058  0.00  0.00    -0.040 A 
ATOM     21  C   LIG    1        2.738   2.822   6.097  0.00  0.00    -0.150 A 
ENDBRANCH  12  21
ENDBRANCH   1  13
BRANCH  10  22
ATOM     22  C   LIG    1       -3.206  -0.094   4.141  0.00  0.00    +0.320 C 
BRANCH  22  23
ATOM     23  C   LIG    1       -4.255  -1.042   3.619  0.00  0.00    +0.180 A 
ATOM     24  N   LIG    1       -4.347  -2.323   3.878  0.00  0.00    -0.310 NA
ATOM     25  N   LIG    1       -5.373  -2.783   3.248  0.00  0.00    -0.140 N 
ATOM     26  N   LIG    1       -5.933  -1.823   2.597  0.00  0.00    -0.060 NA
ATOM     27  C   LIG    1       -5.830  -4.174   3.269  0.00  0.00    +0.410 C 
ATOM     28  N   LIG    1       -5.270  -0.736   2.810  0.00  0.00    -0.260 NA
ENDBRANCH  22  23
ENDBRANCH  10  22
TORSDOF 4
