REMARK  Name = ZINCpk00001AZitw.0
REMARK                            x       y       z     vdW  Elec       q    Type
REMARK                         _______ _______ _______ _____ _____    ______ ____
ROOT
ATOM      1  C   LIG    1        0.097   7.326  -2.234  0.00  0.00    +0.080 C 
ATOM      2  C   LIG    1       -0.205   7.340  -0.758  0.00  0.00    +0.530 C 
ATOM      3  N   LIG    1        0.224   6.332   0.027  0.00  0.00    -0.640 N 
ATOM      4  C   LIG    1        1.079   5.145  -0.189  0.00  0.00    +0.290 C 
ATOM      5  C   LIG    1        0.353   4.547   1.012  0.00  0.00    -0.090 C 
ATOM      6  C   LIG    1        1.212   3.722   1.981  0.00  0.00    +0.030 C 
ATOM      7  C   LIG    1        0.178   2.964   2.844  0.00  0.00    +0.180 C 
ATOM      8  C   LIG    1       -1.127   2.914   2.030  0.00  0.00    +0.150 C 
ATOM      9  C   LIG    1       -0.847   3.644   0.697  0.00  0.00    +0.080 C 
ATOM     10  C   LIG    1        0.027   5.972   1.448  0.00  0.00    +0.250 C 
ATOM     11  O   LIG    1       -0.834   8.258  -0.276  0.00  0.00    -0.530 OA
ENDROOT
BRANCH   8  12
ATOM     12  N   LIG    1       -1.505   1.519   1.770  0.00  0.00    -0.520 NA
ATOM     13  C   LIG    1       -1.805   0.812   3.024  0.00  0.00    +0.230 C 
ATOM     14  C   LIG    1       -2.852   1.599   3.823  0.00  0.00    +0.260 C 
ATOM     15  N   LIG    1       -3.964   1.925   2.926  0.00  0.00    -0.450 N 
ATOM     16  C   LIG    1       -5.222   2.332   3.246  0.00  0.00    +0.120 A 
ATOM     17  C   LIG    1       -5.881   2.501   2.080  0.00  0.00    -0.000 A 
ATOM     18  N   LIG    1       -5.038   2.203   1.077  0.00  0.00    -0.480 NA
ATOM     19  C   LIG    1       -7.313   2.947   1.930  0.00  0.00    +0.140 C 
ATOM     20  C   LIG    1       -3.888   1.859   1.574  0.00  0.00    +0.170 A 
ATOM     21  C   LIG    1       -2.639   1.444   0.833  0.00  0.00    +0.360 C 
ENDBRANCH   8  12
BRANCH  10  22
ATOM     22  C   LIG    1       -1.410   6.154   1.941  0.00  0.00    -0.020 C 
ATOM     23  C   LIG    1       -1.694   7.644   2.146  0.00  0.00    +0.020 C 
ATOM     24  C   LIG    1       -1.591   5.414   3.268  0.00  0.00    +0.030 C 
ENDBRANCH  10  22
BRANCH   7  25
ATOM     25  O   LIG    1       -0.038   3.661   4.073  0.00  0.00    -0.550 OA
ATOM     26  H   LIG    1        0.749   3.726   4.632  0.00  0.00    +0.370 HD
ENDBRANCH   7  25
TORSDOF 3
