REMARK  Name = ZINCvU0000000HjZ.0
REMARK                            x       y       z     vdW  Elec       q    Type
REMARK                         _______ _______ _______ _____ _____    ______ ____
ROOT
ATOM      1  C   LIG    1       -1.556   0.830  -1.688  0.00  0.00    +0.270 A 
ATOM      2  N   LIG    1       -1.696   1.427  -2.848  0.00  0.00    -0.270 NA
ATOM      3  N   LIG    1       -1.209   2.615  -2.792  0.00  0.00    -0.290 NA
ATOM      4  C   LIG    1       -0.732   2.851  -1.591  0.00  0.00    +0.150 A 
ATOM      5  N   LIG    1       -0.939   1.725  -0.845  0.00  0.00    -0.450 N 
ENDROOT
BRANCH   1   8
ATOM      6  C   LIG    1       -4.342  -0.459  -2.323  0.00  0.00    +0.180 C 
ATOM      7  C   LIG    1       -3.186  -1.121  -1.617  0.00  0.00    +0.060 A 
ATOM      8  C   LIG    1       -1.983  -0.545  -1.350  0.00  0.00    -0.130 A 
ATOM      9  C   LIG    1       -1.194  -1.575  -0.661  0.00  0.00    -0.050 A 
ATOM     10  C   LIG    1       -1.989  -2.654  -0.573  0.00  0.00    +0.190 A 
ATOM     11  O   LIG    1       -3.170  -2.376  -1.147  0.00  0.00    -0.170 OA
ENDBRANCH   1   8
BRANCH   4  12
ATOM     12  S   LIG    1        0.032   4.342  -1.045  0.00  0.00    +0.080 S 
BRANCH  12  13
ATOM     13  C   LIG    1       -0.067   5.321  -2.564  0.00  0.00    +0.020 C 
ATOM     14  C   LIG    1       -1.534   5.592  -2.902  0.00  0.00    +0.080 C 
BRANCH  13  15
ATOM     15  C   LIG    1        0.653   6.630  -2.365  0.00  0.00    +0.540 C 
ATOM     16  N   LIG    1        1.066   7.341  -3.433  0.00  0.00    -0.660 N 
ATOM     17  H   LIG    1        0.835   7.049  -4.329  0.00  0.00    +0.420 HD
ATOM     18  O   LIG    1        0.862   7.044  -1.244  0.00  0.00    -0.500 OA
BRANCH  16  19
ATOM     19  C   LIG    1        1.827   8.501  -3.250  0.00  0.00    +0.150 A 
ATOM     20  C   LIG    1        1.708   9.559  -4.141  0.00  0.00    +0.000 A 
ATOM     21  C   LIG    1        2.456  10.705  -3.954  0.00  0.00    +0.050 A 
ATOM     22  C   LIG    1        3.332  10.795  -2.889  0.00  0.00    +0.040 A 
ATOM     23  C   LIG    1        3.458   9.740  -2.002  0.00  0.00    -0.070 A 
ATOM     24 BR   LIG    1        4.657   9.867  -0.546  0.00  0.00    -0.040 Br
ATOM     25  C   LIG    1        2.708   8.593  -2.180  0.00  0.00    +0.060 A 
ENDBRANCH  16  19
ENDBRANCH  13  15
ENDBRANCH  12  13
ENDBRANCH   4  12
BRANCH   5  26
ATOM     26  C   LIG    1       -0.574   1.513   0.558  0.00  0.00    +0.370 C 
BRANCH  26  27
ATOM     27  C   LIG    1       -1.713   1.948   1.444  0.00  0.00    -0.120 A 
ATOM     28  C   LIG    1       -1.796   3.262   1.867  0.00  0.00    +0.040 A 
ATOM     29  C   LIG    1       -2.843   3.662   2.676  0.00  0.00    +0.010 A 
ATOM     30  C   LIG    1       -3.801   2.747   3.071  0.00  0.00    +0.030 A 
ATOM     31  C   LIG    1       -3.715   1.432   2.652  0.00  0.00    +0.010 A 
ATOM     32  C   LIG    1       -2.671   1.033   1.839  0.00  0.00    +0.030 A 
ENDBRANCH  26  27
ENDBRANCH   5  26
TORSDOF 7
