REMARK  Name = ZINCbu0000000Gxy.0
REMARK                            x       y       z     vdW  Elec       q    Type
REMARK                         _______ _______ _______ _____ _____    ______ ____
ROOT
ATOM      1  C   LIG    1       -0.013   1.086   0.008  0.00  0.00    +0.160 C 
ATOM      2  C   LIG    1       -0.773   1.573   1.254  0.00  0.00    +0.060 C 
ATOM      3  C   LIG    1        0.087   1.524   2.532  0.00  0.00    +0.020 C 
ATOM      4  C   LIG    1        0.917   0.272   2.644  0.00  0.00    -0.020 C 
ATOM      5  C   LIG    1        2.301   0.519   1.998  0.00  0.00    +0.050 C 
ATOM      6  C   LIG    1        2.210   0.515   0.540  0.00  0.00    +0.260 C 
ATOM      7  C   LIG    1        1.099  -0.091   4.119  0.00  0.00    +0.040 C 
ATOM      8  N   LIG    1        1.346   1.578  -0.002  0.00  0.00    -0.500 N 
ATOM      9  H   LIG    1        1.415   2.404   0.573  0.00  0.00    +0.430 HD
ATOM     10  H   LIG    1        1.624   1.795  -0.948  0.00  0.00    +0.430 HD
ENDROOT
BRANCH   1  12
ATOM     11  C   LIG    1        0.001   1.086  -2.490  0.00  0.00    +0.040 C 
ATOM     12  C   LIG    1       -0.736   1.584  -1.245  0.00  0.00    -0.020 C 
ATOM     13  C   LIG    1       -2.169   1.050  -1.253  0.00  0.00    +0.070 C 
ENDBRANCH   1  12
TORSDOF 1
