REMARK  Name = ZINCpe00000gN08W.0
REMARK                            x       y       z     vdW  Elec       q    Type
REMARK                         _______ _______ _______ _____ _____    ______ ____
ROOT
ATOM      1  C   LIG    1        1.277  -2.133  -0.022  0.00  0.00    +0.600 C 
ATOM      2  N   LIG    1        2.466  -2.757  -0.139  0.00  0.00    -0.600 N 
ATOM      3  C   LIG    1        3.722  -1.991  -0.154  0.00  0.00    +0.300 C 
ATOM      4  C   LIG    1        4.673  -2.603   0.887  0.00  0.00    +0.170 C 
ATOM      5  N   LIG    1        4.819  -4.041   0.625  0.00  0.00    -0.490 N 
ATOM      6  C   LIG    1        3.539  -4.744   0.780  0.00  0.00    +0.190 C 
ATOM      7  C   LIG    1        2.542  -4.221  -0.259  0.00  0.00    +0.300 C 
ATOM      8  O   LIG    1        0.255  -2.786   0.075  0.00  0.00    -0.540 OA
ENDROOT
BRANCH   1  15
ATOM      9  C   LIG    1        2.598   2.296  -1.920  0.00  0.00    +0.360 C 
ATOM     10  N   LIG    1        1.868   1.477  -0.948  0.00  0.00    -0.550 N 
ATOM     11  C   LIG    1        1.111   2.071  -0.010  0.00  0.00    +0.690 A 
ATOM     12  N   LIG    1        0.423   1.367   0.902  0.00  0.00    -0.630 N 
ATOM     13  H   LIG    1       -0.114   1.839   1.559  0.00  0.00    +0.440 HD
ATOM     14  C   LIG    1        0.456   0.009   0.925  0.00  0.00    +0.430 A 
ATOM     15  C   LIG    1        1.215  -0.664  -0.013  0.00  0.00    -0.320 A 
ATOM     16  O   LIG    1        1.047   3.284   0.013  0.00  0.00    -0.530 OA
ATOM     17  C   LIG    1        1.960   0.131  -1.002  0.00  0.00    +0.560 A 
ATOM     18  O   LIG    1        2.644  -0.412  -1.849  0.00  0.00    -0.490 OA
ENDBRANCH   1  15
BRANCH   5  19
ATOM     19  C   LIG    1        5.803  -4.603   1.445  0.00  0.00    +0.080 A 
ATOM     20  C   LIG    1        5.628  -4.630   2.822  0.00  0.00    +0.030 A 
ATOM     21  C   LIG    1        6.601  -5.186   3.630  0.00  0.00    +0.000 A 
ATOM     22  C   LIG    1        7.750  -5.715   3.069  0.00  0.00    +0.110 A 
ATOM     23  C   LIG    1        7.928  -5.689   1.695  0.00  0.00    +0.010 A 
ATOM     24  F   LIG    1        8.700  -6.257   3.861  0.00  0.00    -0.130 F 
ATOM     25  C   LIG    1        6.955  -5.140   0.882  0.00  0.00    +0.020 A 
ATOM     26 CL   LIG    1        7.175  -5.114  -0.840  0.00  0.00    -0.030 Cl
ENDBRANCH   5  19
TORSDOF 2
