REMARK  Name = ZINCvU00000007fM.0
REMARK                            x       y       z     vdW  Elec       q    Type
REMARK                         _______ _______ _______ _____ _____    ______ ____
ROOT
ATOM      1  N   LIG    1       -1.279  -2.395  -2.584  0.00  0.00    -0.670 N 
ATOM      2  H   LIG    1       -0.722  -2.742  -3.298  0.00  0.00    +0.410 HD
ATOM      3  C   LIG    1       -1.152  -1.111  -2.194  0.00  0.00    +0.560 C 
ATOM      4  O   LIG    1       -1.793  -0.697  -1.248  0.00  0.00    -0.500 OA
ENDROOT
BRANCH   1  11
ATOM      5  C   LIG    1       -2.578  -4.377  -4.157  0.00  0.00    +0.090 C 
ATOM      6  C   LIG    1       -2.871  -4.209  -2.688  0.00  0.00    -0.100 A 
ATOM      7  C   LIG    1       -3.793  -5.029  -2.070  0.00  0.00    +0.040 A 
ATOM      8  C   LIG    1       -4.063  -4.874  -0.717  0.00  0.00    +0.080 A 
ATOM      9  C   LIG    1       -3.407  -3.895   0.014  0.00  0.00    +0.030 A 
ATOM     10  C   LIG    1       -2.480  -3.077  -0.603  0.00  0.00    +0.050 A 
ATOM     11  C   LIG    1       -2.214  -3.228  -1.957  0.00  0.00    +0.150 A 
BRANCH   8  12
ATOM     12  O   LIG    1       -4.971  -5.683  -0.109  0.00  0.00    -0.230 OA
BRANCH  12  13
ATOM     13  C   LIG    1       -4.604  -6.958   0.165  0.00  0.00    +0.500 A 
ATOM     14  N   LIG    1       -3.360  -7.338  -0.078  0.00  0.00    -0.550 NA
ATOM     15  C   LIG    1       -2.967  -8.574   0.183  0.00  0.00    +0.360 A 
ATOM     16  C   LIG    1       -3.880  -9.477   0.706  0.00  0.00    -0.120 A 
ATOM     17  C   LIG    1       -5.176  -9.046   0.942  0.00  0.00    +0.370 A 
ATOM     18  N   LIG    1       -5.500  -7.795   0.664  0.00  0.00    -0.520 NA
ENDBRANCH  12  13
ENDBRANCH   8  12
ENDBRANCH   1  11
BRANCH   3  19
ATOM     19  C   LIG    1       -0.234  -0.206  -2.918  0.00  0.00    -0.140 A 
ATOM     20  C   LIG    1        0.421  -0.647  -4.069  0.00  0.00    +0.040 A 
ATOM     21  C   LIG    1        1.278   0.203  -4.739  0.00  0.00    +0.000 A 
ATOM     22  C   LIG    1        1.487   1.488  -4.272  0.00  0.00    +0.050 A 
ATOM     23  C   LIG    1        0.836   1.933  -3.135  0.00  0.00    +0.000 A 
ATOM     24  C   LIG    1       -0.018   1.092  -2.453  0.00  0.00    -0.010 A 
BRANCH  24  25
ATOM     25  C   LIG    1       -0.721   1.576  -1.211  0.00  0.00    +0.090 C 
BRANCH  25  26
ATOM     26  C   LIG    1        0.001   1.039   0.026  0.00  0.00    +0.070 C 
BRANCH  26  27
ATOM     27  C   LIG    1       -0.702   1.523   1.268  0.00  0.00    -0.080 A 
ATOM     28  C   LIG    1       -0.324   2.715   1.857  0.00  0.00    +0.000 A 
ATOM     29  C   LIG    1       -0.973   3.162   2.993  0.00  0.00    +0.000 A 
ATOM     30  C   LIG    1       -1.992   2.410   3.547  0.00  0.00    -0.010 A 
ATOM     31  C   LIG    1       -2.367   1.216   2.962  0.00  0.00    +0.000 A 
ATOM     32  C   LIG    1       -1.722   0.772   1.823  0.00  0.00    +0.020 A 
ENDBRANCH  26  27
ENDBRANCH  25  26
ENDBRANCH  24  25
ENDBRANCH   3  19
TORSDOF 7
