REMARK  Name = ZINCpe00000MD9dL.0
REMARK                            x       y       z     vdW  Elec       q    Type
REMARK                         _______ _______ _______ _____ _____    ______ ____
ROOT
ATOM      1  C   LIG    1        2.779  -0.336  -2.642  0.00  0.00    +0.140 C 
ATOM      2  C   LIG    1        4.257   0.136  -2.679  0.00  0.00    +0.030 C 
ATOM      3  C   LIG    1        4.893  -0.900  -3.639  0.00  0.00    +0.220 C 
ATOM      4  N   LIG    1        4.215  -2.175  -3.322  0.00  0.00    -0.440 N 
ATOM      5  C   LIG    1        2.903  -1.872  -2.720  0.00  0.00    +0.220 C 
ENDROOT
BRANCH   4   6
ATOM      6  C   LIG    1        4.073  -2.956  -4.455  0.00  0.00    +0.490 A 
ATOM      7  N   LIG    1        2.859  -3.322  -4.839  0.00  0.00    -0.550 NA
ATOM      8  C   LIG    1        2.688  -4.064  -5.921  0.00  0.00    +0.350 A 
ATOM      9  C   LIG    1        3.798  -4.467  -6.646  0.00  0.00    -0.240 A 
ATOM     10  C   LIG    1        3.926  -5.306  -7.896  0.00  0.00    +0.090 C 
ATOM     11  C   LIG    1        5.348  -5.023  -8.428  0.00  0.00    +0.050 C 
ATOM     12  C   LIG    1        6.109  -4.621  -7.147  0.00  0.00    +0.120 C 
ATOM     13  C   LIG    1        5.053  -4.072  -6.214  0.00  0.00    +0.190 A 
ATOM     14  N   LIG    1        5.154  -3.325  -5.126  0.00  0.00    -0.520 NA
ENDBRANCH   4   6
BRANCH   1  15
ATOM     15  C   LIG    1        2.108   0.087  -1.334  0.00  0.00    -0.020 C 
ATOM     16  C   LIG    1        0.693  -0.497  -1.272  0.00  0.00    +0.040 C 
ATOM     17  C   LIG    1        0.002  -0.004   0.002  0.00  0.00    +0.220 C 
ATOM     18  O   LIG    1       -0.017   1.425   0.010  0.00  0.00    -0.370 OA
ATOM     19  C   LIG    1        1.279   2.026   0.001  0.00  0.00    +0.220 C 
ATOM     20  C   LIG    1        2.022   1.615  -1.273  0.00  0.00    +0.040 C 
BRANCH  15  21
ATOM     21  C   LIG    1        2.915  -0.421  -0.167  0.00  0.00    +0.460 C 
ATOM     22  O   LIG    1        3.922  -1.060  -0.360  0.00  0.00    -0.480 OA
BRANCH  21  24
ATOM     23  C   LIG    1        3.340  -0.684   2.163  0.00  0.00    +0.270 C 
ATOM     24  O   LIG    1        2.514  -0.164   1.088  0.00  0.00    -0.350 OA
ENDBRANCH  21  24
ENDBRANCH  15  21
ENDBRANCH   1  15
BRANCH   1  25
ATOM     25  O   LIG    1        2.056   0.170  -3.766  0.00  0.00    -0.540 OA
ATOM     26  H   LIG    1        2.439  -0.070  -4.621  0.00  0.00    +0.380 HD
ENDBRANCH   1  25
TORSDOF 5
