REMARK  Name = ZINCpk000000oJu6.0
REMARK                            x       y       z     vdW  Elec       q    Type
REMARK                         _______ _______ _______ _____ _____    ______ ____
ROOT
ATOM      1  C   LIG    1       -4.422  -1.863  -4.734  0.00  0.00    +0.150 A 
ATOM      2  N   LIG    1       -4.300  -1.264  -3.574  0.00  0.00    -0.470 NA
ATOM      3  C   LIG    1       -3.505  -2.061  -2.837  0.00  0.00    +0.170 A 
ATOM      4  N   LIG    1       -3.197  -3.088  -3.571  0.00  0.00    -0.370 NA
ATOM      5  O   LIG    1       -3.714  -2.994  -4.665  0.00  0.00    +0.090 OA
ENDROOT
BRANCH   1   6
ATOM      6  C   LIG    1       -5.215  -1.372  -5.918  0.00  0.00    +0.480 C 
BRANCH   6  10
ATOM      7  N   LIG    1       -2.356   0.948  -8.076  0.00  0.00    -0.600 N 
ATOM      8  C   LIG    1       -2.848   1.394  -6.773  0.00  0.00    +0.280 C 
ATOM      9  C   LIG    1       -4.277   0.899  -6.543  0.00  0.00    +0.290 C 
ATOM     10  N   LIG    1       -4.358  -0.544  -6.771  0.00  0.00    -0.600 N 
ATOM     11  C   LIG    1       -3.649  -1.114  -7.766  0.00  0.00    +0.510 C 
ATOM     12  O   LIG    1       -3.797  -2.288  -8.033  0.00  0.00    -0.470 OA
ATOM     13  C   LIG    1       -2.678  -0.277  -8.539  0.00  0.00    +0.510 C 
ATOM     14  O   LIG    1       -2.186  -0.696  -9.566  0.00  0.00    -0.480 OA
BRANCH   7  16
ATOM     15  C   LIG    1       -2.393   2.689  -9.793  0.00  0.00    +0.020 C 
ATOM     16  C   LIG    1       -1.511   1.834  -8.881  0.00  0.00    +0.280 C 
ENDBRANCH   7  16
ENDBRANCH   6  10
ENDBRANCH   1   6
BRANCH   3  17
ATOM     17  C   LIG    1       -3.060  -1.812  -1.420  0.00  0.00    +0.160 C 
BRANCH  17  18
ATOM     18  C   LIG    1       -1.745  -1.028  -1.429  0.00  0.00    +0.030 C 
BRANCH  18  19
ATOM     19  C   LIG    1       -1.293  -0.775   0.011  0.00  0.00    +0.080 C 
BRANCH  19  20
ATOM     20  C   LIG    1        0.002  -0.004   0.002  0.00  0.00    -0.080 A 
ATOM     21  C   LIG    1       -0.017   1.378   0.010  0.00  0.00    +0.000 A 
ATOM     22  C   LIG    1        1.171   2.086   0.002  0.00  0.00    +0.000 A 
ATOM     23  C   LIG    1        2.377   1.411  -0.015  0.00  0.00    +0.000 A 
ATOM     24  C   LIG    1        2.396   0.029  -0.022  0.00  0.00    +0.000 A 
ATOM     25  C   LIG    1        1.208  -0.679  -0.013  0.00  0.00    +0.000 A 
ENDBRANCH  19  20
ENDBRANCH  18  19
ENDBRANCH  17  18
ENDBRANCH   3  17
TORSDOF 7
