REMARK  Name = ZINCpk00001AZioI.0
REMARK                            x       y       z     vdW  Elec       q    Type
REMARK                         _______ _______ _______ _____ _____    ______ ____
ROOT
ATOM      1  C   LIG    1       -1.189   2.136   0.019  0.00  0.00    +0.590 C 
ATOM      2  N   LIG    1       -0.020   1.465  -0.004  0.00  0.00    -0.590 N 
ATOM      3  C   LIG    1        1.257   2.190  -0.034  0.00  0.00    +0.270 C 
ATOM      4  C   LIG    1        2.134   1.690   1.119  0.00  0.00    +0.030 C 
ATOM      5  C   LIG    1        2.261   0.170   1.037  0.00  0.00    -0.070 C 
ATOM      6  C   LIG    1        0.887  -0.486   1.146  0.00  0.00    +0.040 C 
ATOM      7  C   LIG    1        2.924  -0.227  -0.295  0.00  0.00    +0.020 C 
ATOM      8  C   LIG    1        3.828  -1.429   0.075  0.00  0.00    +0.020 C 
ATOM      9  C   LIG    1        4.372  -1.032   1.471  0.00  0.00    +0.010 C 
ATOM     10  C   LIG    1        3.177  -0.340   2.160  0.00  0.00    +0.250 C 
ATOM     11  C   LIG    1       -0.000  -0.004  -0.006  0.00  0.00    +0.290 C 
ATOM     12  O   LIG    1       -2.241   1.528  -0.058  0.00  0.00    -0.510 OA
ENDROOT
BRANCH   1  14
ATOM     13  C   LIG    1       -1.246   4.336   1.320  0.00  0.00    -0.100 A 
ATOM     14  C   LIG    1       -1.194   3.599   0.138  0.00  0.00    +0.070 A 
ATOM     15  N   LIG    1       -1.154   4.500  -0.890  0.00  0.00    -0.350 N 
ATOM     16  N   LIG    1       -1.175   5.787  -0.339  0.00  0.00    -0.270 NA
ATOM     17  C   LIG    1       -1.098   4.176  -2.317  0.00  0.00    +0.380 C 
ATOM     18  C   LIG    1       -1.226   5.696   0.964  0.00  0.00    +0.280 A 
BRANCH  13  20
ATOM     19  C   LIG    1       -1.354   3.373   3.739  0.00  0.00    +0.050 C 
ATOM     20  C   LIG    1       -1.306   3.807   2.650  0.00  0.00    -0.120 C 
ENDBRANCH  13  20
ENDBRANCH   1  14
BRANCH  10  21
ATOM     21  N   LIG    1        3.646   0.783   2.975  0.00  0.00    -0.720 N 
ATOM     22  H   LIG    1        3.690   1.674   2.594  0.00  0.00    +0.400 HD
ATOM     23  C   LIG    1        4.018   0.578   4.254  0.00  0.00    +0.540 C 
ATOM     24  O   LIG    1        3.964  -0.539   4.732  0.00  0.00    -0.540 OA
BRANCH  23  25
ATOM     25  C   LIG    1        4.490   1.706   5.072  0.00  0.00    -0.090 C 
ATOM     26  C   LIG    1        4.857   1.504   6.335  0.00  0.00    +0.140 C 
ENDBRANCH  23  25
ENDBRANCH  10  21
TORSDOF 4
