REMARK  Name = ZINCqH0000005j2j.0
REMARK                            x       y       z     vdW  Elec       q    Type
REMARK                         _______ _______ _______ _____ _____    ______ ____
ROOT
ATOM      1  C   LIG    1        1.346   2.010   0.000  0.00  0.00    +0.190 C 
ATOM      2  N   LIG    1       -0.018   1.465   0.010  0.00  0.00    -0.530 NA
ENDROOT
BRANCH   2   3
ATOM      3  C   LIG    1        0.002  -0.004   0.002  0.00  0.00    +0.300 C 
BRANCH   3   4
ATOM      4  C   LIG    1        0.598  -0.505   1.292  0.00  0.00    +0.020 A 
ATOM      5  N   LIG    1        1.873  -0.673   1.563  0.00  0.00    -0.280 NA
ATOM      6  N   LIG    1        1.985  -1.113   2.766  0.00  0.00    -0.100 N 
ATOM      7  N   LIG    1        0.828  -1.255   3.309  0.00  0.00    -0.290 NA
ATOM      8  C   LIG    1       -0.092  -0.893   2.444  0.00  0.00    +0.200 A 
BRANCH   6   9
ATOM      9  C   LIG    1        3.203  -1.403   3.398  0.00  0.00    +0.140 A 
ATOM     10  C   LIG    1        4.400  -1.218   2.720  0.00  0.00    +0.040 A 
ATOM     11  C   LIG    1        5.598  -1.499   3.347  0.00  0.00    +0.040 A 
ATOM     12  C   LIG    1        5.605  -1.974   4.645  0.00  0.00    +0.020 A 
ATOM     13  C   LIG    1        4.414  -2.165   5.322  0.00  0.00    +0.040 A 
ATOM     14  C   LIG    1        3.213  -1.880   4.702  0.00  0.00    +0.040 A 
ENDBRANCH   6   9
ENDBRANCH   3   4
ENDBRANCH   2   3
BRANCH   2  15
ATOM     15  C   LIG    1       -0.802   1.987  -1.117  0.00  0.00    +0.240 C 
BRANCH  15  16
ATOM     16  C   LIG    1       -1.007   3.470  -0.943  0.00  0.00    -0.080 A 
ATOM     17  C   LIG    1       -2.203   3.948  -0.445  0.00  0.00    +0.070 A 
ATOM     18  C   LIG    1       -2.392   5.309  -0.284  0.00  0.00    +0.000 A 
ATOM     19  C   LIG    1       -1.384   6.193  -0.622  0.00  0.00    +0.050 A 
ATOM     20  C   LIG    1       -0.186   5.720  -1.121  0.00  0.00    -0.060 A 
ATOM     21  C   LIG    1        0.008   4.355  -1.277  0.00  0.00    +0.110 A 
BRANCH  21  22
ATOM     22  O   LIG    1        1.188   3.886  -1.761  0.00  0.00    -0.310 OA
BRANCH  22  23
ATOM     23  C   LIG    1        2.187   4.855  -2.084  0.00  0.00    +0.600 C 
ATOM     24  F   LIG    1        1.696   5.723  -3.065  0.00  0.00    -0.170 F 
ATOM     25  F   LIG    1        3.329   4.205  -2.566  0.00  0.00    -0.130 F 
ATOM     26  F   LIG    1        2.516   5.586  -0.937  0.00  0.00    -0.160 F 
ENDBRANCH  22  23
ENDBRANCH  21  22
ENDBRANCH  15  16
ENDBRANCH   2  15
TORSDOF 7
