REMARK  Name = ZINCpe00000FUf7i.0
REMARK                            x       y       z     vdW  Elec       q    Type
REMARK                         _______ _______ _______ _____ _____    ______ ____
ROOT
ATOM      1  C   LIG    1        3.324   1.815   4.619  0.00  0.00    +0.520 C 
ATOM      2  N   LIG    1        4.091   1.758   3.512  0.00  0.00    -0.610 N 
ATOM      3  C   LIG    1        5.556   1.720   3.618  0.00  0.00    +0.260 C 
ATOM      4  C   LIG    1        6.075   0.511   2.833  0.00  0.00    +0.030 C 
ATOM      5  C   LIG    1        5.550   0.576   1.397  0.00  0.00    +0.060 C 
ATOM      6  C   LIG    1        4.020   0.523   1.409  0.00  0.00    +0.120 C 
ATOM      7  C   LIG    1        3.477   1.732   2.177  0.00  0.00    +0.260 C 
ATOM      8  O   LIG    1        2.116   1.846   4.519  0.00  0.00    -0.530 OA
ENDROOT
BRANCH   6   9
ATOM      9  O   LIG    1        3.590  -0.681   2.047  0.00  0.00    -0.540 OA
ATOM     10  H   LIG    1        2.629  -0.781   2.091  0.00  0.00    +0.380 HD
ENDBRANCH   6   9
BRANCH   1  11
ATOM     11  C   LIG    1        3.968   1.841   5.981  0.00  0.00    +0.140 C 
BRANCH  11  15
ATOM     12  C   LIG    1        0.624   3.569   9.291  0.00  0.00    +0.360 C 
ATOM     13  N   LIG    1        1.444   2.665   8.481  0.00  0.00    -0.380 N 
ATOM     14  C   LIG    1        2.368   3.033   7.570  0.00  0.00    +0.240 A 
ATOM     15  C   LIG    1        2.899   1.906   7.041  0.00  0.00    -0.230 A 
ATOM     16  C   LIG    1        2.283   0.811   7.657  0.00  0.00    +0.240 A 
ATOM     17  N   LIG    1        1.411   1.265   8.520  0.00  0.00    -0.300 NA
ENDBRANCH  11  15
ENDBRANCH   1  11
BRANCH   6  18
ATOM     18  C   LIG    1        3.497   0.554  -0.028  0.00  0.00    +0.180 C 
BRANCH  18  19
ATOM     19  C   LIG    1        1.992   0.626  -0.014  0.00  0.00    +0.170 A 
ATOM     20  N   LIG    1        1.262   1.715  -0.001  0.00  0.00    -0.470 NA
ATOM     21  C   LIG    1       -0.015   1.295   0.009  0.00  0.00    +0.210 A 
ATOM     22  N   LIG    1        0.002  -0.004   0.002  0.00  0.00    -0.380 NA
ATOM     23  O   LIG    1        1.146  -0.408  -0.011  0.00  0.00    +0.080 OA
BRANCH  21  24
ATOM     24  C   LIG    1       -1.242   2.171   0.020  0.00  0.00    +0.060 C 
ATOM     25  C   LIG    1       -2.596   1.488   0.227  0.00  0.00    +0.050 C 
ATOM     26  C   LIG    1       -2.217   2.034  -1.151  0.00  0.00    +0.060 C 
ENDBRANCH  21  24
ENDBRANCH  18  19
ENDBRANCH   6  18
TORSDOF 6
