REMARK  Name = ZINCqH0000035EUt.0
REMARK                            x       y       z     vdW  Elec       q    Type
REMARK                         _______ _______ _______ _____ _____    ______ ____
ROOT
ATOM      1  C   LIG    1       -2.578   6.555   0.060  0.00  0.00    +0.370 C 
ATOM      2  C   LIG    1       -3.157   6.768   1.461  0.00  0.00    +0.060 C 
ENDROOT
BRANCH   1   6
ATOM      3  C   LIG    1       -1.223   1.744   0.017  0.00  0.00    +0.150 A 
ATOM      4  C   LIG    1       -1.246   3.137   0.031  0.00  0.00    +0.030 A 
ATOM      5  O   LIG    1       -2.241   4.048   0.045  0.00  0.00    -0.150 OA
ATOM      6  C   LIG    1       -1.747   5.298   0.046  0.00  0.00    +0.020 A 
ATOM      7  C   LIG    1       -0.407   5.264   0.033  0.00  0.00    -0.160 A 
ATOM      8  C   LIG    1        0.528   6.446   0.029  0.00  0.00    +0.120 C 
ATOM      9  C   LIG    1       -0.034   3.845   0.023  0.00  0.00    -0.090 A 
ATOM     10  C   LIG    1        1.179   3.156   0.007  0.00  0.00    +0.020 A 
ATOM     11  C   LIG    1        1.183   1.779   0.000  0.00  0.00    -0.060 A 
ATOM     12  C   LIG    1        2.492   1.032  -0.016  0.00  0.00    +0.100 C 
ATOM     13  C   LIG    1       -0.013   1.076   0.008  0.00  0.00    -0.050 A 
BRANCH   3  15
ATOM     14  C   LIG    1       -2.288  -0.382   0.011  0.00  0.00    +0.250 C 
ATOM     15  O   LIG    1       -2.388   1.044   0.019  0.00  0.00    -0.310 OA
ENDBRANCH   3  15
ENDBRANCH   1   6
BRANCH   1  16
ATOM     16  N   LIG    1       -3.672   6.428  -0.906  0.00  0.00    -0.580 N 
ATOM     17  C   LIG    1       -4.611   5.476  -0.858  0.00  0.00    +0.700 C 
ATOM     18  N   LIG    1       -5.503   5.582  -1.859  0.00  0.00    -0.730 N 
ATOM     19  H   LIG    1       -6.266   5.005  -2.019  0.00  0.00    +0.440 HD
ATOM     20  C   LIG    1       -5.093   6.743  -2.667  0.00  0.00    +0.230 C 
ATOM     21  O   LIG    1       -4.655   4.613  -0.003  0.00  0.00    -0.510 OA
ATOM     22  C   LIG    1       -3.854   7.252  -1.956  0.00  0.00    +0.530 C 
ATOM     23  O   LIG    1       -3.170   8.204  -2.268  0.00  0.00    -0.460 OA
BRANCH  20  24
ATOM     24  C   LIG    1       -6.188   7.811  -2.671  0.00  0.00    +0.090 C 
BRANCH  24  25
ATOM     25  C   LIG    1       -7.377   7.319  -3.499  0.00  0.00    +0.080 C 
BRANCH  25  26
ATOM     26  S   LIG    1       -8.676   8.585  -3.504  0.00  0.00    -0.250 S 
ATOM     27  C   LIG    1       -9.977   7.832  -4.519  0.00  0.00    +0.140 C 
ENDBRANCH  25  26
ENDBRANCH  24  25
ENDBRANCH  20  24
ENDBRANCH   1  16
TORSDOF 6
