REMARK  Name = ZINCqH00000372eF.0
REMARK                            x       y       z     vdW  Elec       q    Type
REMARK                         _______ _______ _______ _____ _____    ______ ____
ROOT
ATOM      1  C   LIG    1        1.438  -2.760  -1.593  0.00  0.00    +0.030 C 
ATOM      2  C   LIG    1        0.818  -1.646  -0.747  0.00  0.00    -0.010 C 
ATOM      3  C   LIG    1       -0.680  -1.597  -1.032  0.00  0.00    +0.040 C 
ATOM      4  C   LIG    1       -1.192  -3.001  -1.251  0.00  0.00    +0.020 C 
ATOM      5  C   LIG    1       -1.692  -3.591   0.079  0.00  0.00    +0.270 C 
ATOM      6  N   LIG    1       -0.807  -3.245   1.209  0.00  0.00    -0.590 N 
ATOM      7  C   LIG    1        0.635  -3.277   1.111  0.00  0.00    +0.270 C 
ATOM      8  C   LIG    1       -1.367  -2.885   2.381  0.00  0.00    +0.550 C 
ATOM      9  O   LIG    1       -2.570  -2.723   2.456  0.00  0.00    -0.520 OA
ATOM     10  C   LIG    1        1.156  -1.888   0.664  0.00  0.00    +0.030 C 
ENDROOT
BRANCH   8  11
ATOM     11  C   LIG    1       -0.520  -2.686   3.573  0.00  0.00    -0.100 A 
ATOM     12  C   LIG    1        0.812  -2.294   3.431  0.00  0.00    +0.070 A 
ATOM     13  C   LIG    1        1.601  -2.103   4.547  0.00  0.00    +0.040 A 
ATOM     14  C   LIG    1        1.083  -2.309   5.814  0.00  0.00    +0.070 A 
ATOM     15  C   LIG    1       -0.236  -2.704   5.971  0.00  0.00    +0.060 A 
ATOM     16  N   LIG    1       -1.024  -2.983   7.088  0.00  0.00    -0.650 N 
ATOM     17  H   LIG    1       -0.742  -2.940   8.015  0.00  0.00    +0.450 HD
ATOM     18  C   LIG    1       -2.249  -3.325   6.642  0.00  0.00    +0.640 A 
ATOM     19  O   LIG    1       -3.192  -3.632   7.345  0.00  0.00    -0.480 OA
ATOM     20  O   LIG    1       -2.267  -3.273   5.300  0.00  0.00    -0.220 OA
ATOM     21  C   LIG    1       -1.047  -2.895   4.854  0.00  0.00    +0.090 A 
ENDBRANCH   8  11
BRANCH   2  22
ATOM     22  C   LIG    1        1.429  -0.333  -1.165  0.00  0.00    -0.070 A 
ATOM     23  C   LIG    1        0.962   0.850  -0.624  0.00  0.00    +0.000 A 
ATOM     24  C   LIG    1        1.524   2.054  -1.006  0.00  0.00    +0.000 A 
ATOM     25  C   LIG    1        2.547   2.075  -1.935  0.00  0.00    +0.000 A 
ATOM     26  C   LIG    1        3.011   0.893  -2.479  0.00  0.00    +0.000 A 
ATOM     27  C   LIG    1        2.451  -0.311  -2.095  0.00  0.00    +0.010 A 
ENDBRANCH   2  22
TORSDOF 2
