REMARK  Name = ZINCtV000002Li6b.0
REMARK                            x       y       z     vdW  Elec       q    Type
REMARK                         _______ _______ _______ _____ _____    ______ ____
ROOT
ATOM      1  C   LIG    1        3.126   5.150   0.080  0.00  0.00    +0.350 C 
ENDROOT
BRANCH   1   8
ATOM      2  F   LIG    1        4.659   4.870  -2.266  0.00  0.00    -0.120 F 
ATOM      3  C   LIG    1        5.312   5.232  -1.141  0.00  0.00    +0.140 A 
ATOM      4  C   LIG    1        6.678   5.448  -1.173  0.00  0.00    -0.010 A 
ATOM      5  C   LIG    1        7.347   5.819  -0.015  0.00  0.00    +0.130 A 
ATOM      6  C   LIG    1        6.645   5.973   1.171  0.00  0.00    -0.010 A 
ATOM      7  C   LIG    1        5.279   5.761   1.198  0.00  0.00    +0.100 A 
ATOM      8  C   LIG    1        4.614   5.386   0.046  0.00  0.00    -0.150 A 
BRANCH   5   9
ATOM      9  O   LIG    1        8.689   6.032  -0.044  0.00  0.00    -0.250 OA
BRANCH   9  10
ATOM     10  C   LIG    1        9.487   5.166   0.633  0.00  0.00    +0.120 A 
ATOM     11  C   LIG    1        8.941   4.035   1.225  0.00  0.00    -0.060 A 
ATOM     12  C   LIG    1        9.755   3.154   1.909  0.00  0.00    +0.050 A 
ATOM     13  C   LIG    1       11.111   3.402   2.013  0.00  0.00    -0.020 A 
ATOM     14  C   LIG    1       11.657   4.530   1.429  0.00  0.00    +0.050 A 
ATOM     15  C   LIG    1       10.848   5.412   0.740  0.00  0.00    -0.010 A 
ENDBRANCH   9  10
ENDBRANCH   5   9
ENDBRANCH   1   8
BRANCH   1  16
ATOM     16  N   LIG    1        2.861   3.711   0.153  0.00  0.00    -0.700 N 
ATOM     17  H   LIG    1        3.600   3.082   0.172  0.00  0.00    +0.410 HD
BRANCH  16  18
ATOM     18  C   LIG    1        1.558   3.248   0.195  0.00  0.00    +0.500 A 
ATOM     19  C   LIG    1        1.285   1.874   0.265  0.00  0.00    -0.250 A 
ATOM     20  C   LIG    1        2.095   0.658   0.311  0.00  0.00    -0.140 A 
ATOM     21  C   LIG    1        1.240  -0.376   0.374  0.00  0.00    +0.280 A 
ATOM     22  N   LIG    1       -0.051   0.088   0.372  0.00  0.00    -0.430 N 
ATOM     23 BR   LIG    1        3.983   0.559   0.286  0.00  0.00    -0.010 Br
ATOM     24  C   LIG    1       -0.058   1.454   0.306  0.00  0.00    +0.360 A 
ATOM     25  N   LIG    1       -1.015   2.380   0.281  0.00  0.00    -0.570 NA
ATOM     26  C   LIG    1       -0.712   3.658   0.210  0.00  0.00    +0.570 A 
ATOM     27  N   LIG    1        0.533   4.095   0.170  0.00  0.00    -0.590 NA
BRANCH  22  28
ATOM     28  C   LIG    1       -1.248  -0.756   0.430  0.00  0.00    +0.210 C 
ATOM     29  C   LIG    1       -1.047  -2.248   0.703  0.00  0.00    +0.050 C 
ATOM     30  C   LIG    1       -1.451  -1.773  -0.695  0.00  0.00    +0.030 C 
ENDBRANCH  22  28
ENDBRANCH  16  18
ENDBRANCH   1  16
TORSDOF 6
