REMARK  Name = ZINCrH000004m3VF.0
REMARK                            x       y       z     vdW  Elec       q    Type
REMARK                         _______ _______ _______ _____ _____    ______ ____
ROOT
ATOM      1  C   LIG    1       -1.357   0.671   1.211  0.00  0.00    +0.510 C 
ATOM      2  N   LIG    1       -0.172   0.359   0.652  0.00  0.00    -0.720 N 
ATOM      3  H   LIG    1       -0.036  -0.517   0.260  0.00  0.00    +0.410 HD
ATOM      4  O   LIG    1       -1.527   1.767   1.701  0.00  0.00    -0.540 OA
ENDROOT
BRANCH   1   5
ATOM      5  C   LIG    1       -2.472  -0.343   1.228  0.00  0.00    +0.070 C 
BRANCH   5   6
ATOM      6  C   LIG    1       -3.699   0.260   1.916  0.00  0.00    +0.120 C 
BRANCH   6   9
ATOM      7  C   LIG    1       -5.961  -2.563   3.013  0.00  0.00    +0.170 A 
ATOM      8  C   LIG    1       -4.935  -1.629   2.995  0.00  0.00    -0.050 A 
ATOM      9  C   LIG    1       -4.814  -0.754   1.933  0.00  0.00    -0.010 A 
ATOM     10  C   LIG    1       -5.717  -0.803   0.888  0.00  0.00    -0.050 A 
ATOM     11  C   LIG    1       -6.742  -1.739   0.899  0.00  0.00    +0.170 A 
ATOM     12  C   LIG    1       -6.865  -2.618   1.964  0.00  0.00    -0.170 A 
BRANCH   7  14
ATOM     13  C   LIG    1       -7.160  -4.358   4.011  0.00  0.00    +0.250 C 
ATOM     14  O   LIG    1       -6.080  -3.423   4.059  0.00  0.00    -0.310 OA
ENDBRANCH   7  14
BRANCH  11  15
ATOM     15  O   LIG    1       -7.627  -1.790  -0.131  0.00  0.00    -0.310 OA
ATOM     16  C   LIG    1       -8.659  -2.775  -0.051  0.00  0.00    +0.250 C 
ENDBRANCH  11  15
ENDBRANCH   6   9
ENDBRANCH   5   6
ENDBRANCH   1   5
BRANCH   2  17
ATOM     17  C   LIG    1        0.910   1.347   0.630  0.00  0.00    +0.280 C 
BRANCH  17  18
ATOM     18  C   LIG    1        2.135   0.747  -0.063  0.00  0.00    +0.210 C 
BRANCH  18  19
ATOM     19  C   LIG    1        3.286   1.716   0.023  0.00  0.00    -0.110 A 
ATOM     20  C   LIG    1        3.362   2.606   1.077  0.00  0.00    +0.040 A 
ATOM     21  C   LIG    1        4.418   3.495   1.156  0.00  0.00    +0.020 A 
ATOM     22  C   LIG    1        5.398   3.494   0.181  0.00  0.00    +0.030 A 
ATOM     23  C   LIG    1        5.323   2.604  -0.874  0.00  0.00    +0.030 A 
ATOM     24  C   LIG    1        4.270   1.710  -0.950  0.00  0.00    -0.030 A 
ATOM     25 CL   LIG    1        4.179   0.586  -2.270  0.00  0.00    -0.060 Cl
ENDBRANCH  18  19
BRANCH  18  26
ATOM     26  N   LIG    1        2.504  -0.512   0.599  0.00  0.00    -0.520 NA
ATOM     27  C   LIG    1        2.950  -0.271   1.978  0.00  0.00    +0.180 C 
ATOM     28  C   LIG    1        3.531  -1.229  -0.169  0.00  0.00    +0.200 C 
ENDBRANCH  18  26
ENDBRANCH  17  18
ENDBRANCH   2  17
TORSDOF 9
