REMARK  Name = ZINCvU0000000C8q.0
REMARK                            x       y       z     vdW  Elec       q    Type
REMARK                         _______ _______ _______ _____ _____    ______ ____
ROOT
ATOM      1  C   LIG    1       -5.595 -10.441  -0.929  0.00  0.00    +0.180 C 
ATOM      2  C   LIG    1       -4.132 -10.085  -0.851  0.00  0.00    +0.150 A 
ATOM      3  N   LIG    1       -3.143 -10.926  -0.888  0.00  0.00    -0.250 NA
ATOM      4  N   LIG    1       -1.935 -10.230  -0.790  0.00  0.00    -0.300 N 
ATOM      5  C   LIG    1       -2.222  -8.894  -0.690  0.00  0.00    +0.020 A 
ATOM      6  S   LIG    1       -1.476  -7.309  -0.536  0.00  0.00    +0.260 S 
ATOM      7  C   LIG    1       -3.046  -6.522  -0.524  0.00  0.00    -0.270 A 
ATOM      8  C   LIG    1       -4.027  -7.432  -0.625  0.00  0.00    +0.200 A 
ATOM      9  C   LIG    1       -3.601  -8.763  -0.725  0.00  0.00    -0.220 A 
ENDROOT
BRANCH   4  10
ATOM     10  C   LIG    1       -0.655 -10.799  -0.794  0.00  0.00    +0.140 A 
ATOM     11  C   LIG    1        0.401 -10.132  -1.401  0.00  0.00    +0.040 A 
ATOM     12  C   LIG    1        1.663 -10.692  -1.399  0.00  0.00    +0.020 A 
ATOM     13  C   LIG    1        1.874 -11.924  -0.802  0.00  0.00    +0.100 A 
ATOM     14  C   LIG    1        0.822 -12.593  -0.201  0.00  0.00    +0.020 A 
ATOM     15  F   LIG    1        3.109 -12.472  -0.806  0.00  0.00    -0.130 F 
ATOM     16  C   LIG    1       -0.441 -12.034  -0.196  0.00  0.00    +0.070 A 
ENDBRANCH   4  10
BRANCH   7  17
ATOM     17  C   LIG    1       -3.255  -5.077  -0.413  0.00  0.00    +0.550 C 
ATOM     18  O   LIG    1       -4.384  -4.624  -0.413  0.00  0.00    -0.490 OA
BRANCH  17  19
ATOM     19  O   LIG    1       -2.196  -4.248  -0.310  0.00  0.00    -0.330 OA
BRANCH  19  20
ATOM     20  C   LIG    1       -2.478  -2.828  -0.204  0.00  0.00    +0.270 C 
BRANCH  20  21
ATOM     21  C   LIG    1       -1.183  -2.064  -0.099  0.00  0.00    +0.520 C 
ATOM     22  N   LIG    1       -1.199  -0.721   0.010  0.00  0.00    -0.670 N 
ATOM     23  H   LIG    1       -2.044  -0.252   0.098  0.00  0.00    +0.420 HD
ATOM     24  O   LIG    1       -0.126  -2.659  -0.113  0.00  0.00    -0.490 OA
BRANCH  22  25
ATOM     25  C   LIG    1        0.002  -0.004  -0.004  0.00  0.00    +0.170 A 
ATOM     26  C   LIG    1        1.071  -0.452  -0.768  0.00  0.00    +0.040 A 
ATOM     27  C   LIG    1        2.256   0.259  -0.780  0.00  0.00    -0.000 A 
ATOM     28  C   LIG    1        2.378   1.417  -0.032  0.00  0.00    +0.030 A 
ATOM     29  C   LIG    1        1.314   1.866   0.730  0.00  0.00    -0.000 A 
ATOM     30 CL   LIG    1        1.470   3.319   1.668  0.00  0.00    -0.050 Cl
ATOM     31 CL   LIG    1        3.594  -0.301  -1.735  0.00  0.00    -0.050 Cl
ATOM     32  C   LIG    1        0.126   1.159   0.746  0.00  0.00    +0.020 A 
ENDBRANCH  22  25
ENDBRANCH  20  21
ENDBRANCH  19  20
ENDBRANCH  17  19
ENDBRANCH   7  17
TORSDOF 6
