REMARK  Name = ZINCrH000004jeTq.0
REMARK                            x       y       z     vdW  Elec       q    Type
REMARK                         _______ _______ _______ _____ _____    ______ ____
ROOT
ATOM      1  C   LIG    1        1.640  -0.515   0.713  0.00  0.00    -0.150 A 
ATOM      2  C   LIG    1        2.762   0.314   0.750  0.00  0.00    +0.110 A 
ATOM      3  C   LIG    1        2.614   1.677   0.594  0.00  0.00    +0.010 A 
ATOM      4  C   LIG    1        1.357   2.222   0.403  0.00  0.00    +0.160 A 
ATOM      5  C   LIG    1        0.240   1.405   0.365  0.00  0.00    -0.680 A 
ATOM      6  C   LIG    1        0.375   0.041   0.519  0.00  0.00    +0.210 A 
ENDROOT
BRANCH   1   9
ATOM      7  N   LIG    1        3.015  -2.510   1.065  0.00  0.00    -0.630 N 
ATOM      8  H   LIG    1        3.796  -1.935   1.091  0.00  0.00    +0.420 HD
ATOM      9  C   LIG    1        1.792  -1.976   0.878  0.00  0.00    +0.550 C 
ATOM     10  O   LIG    1        0.813  -2.696   0.845  0.00  0.00    -0.450 OA
BRANCH   7  14
ATOM     11  C   LIG    1        3.802  -6.239   1.530  0.00  0.00    -0.230 A 
ATOM     12  C   LIG    1        2.498  -6.008   1.364  0.00  0.00    +0.240 A 
ATOM     13  N   LIG    1        2.182  -4.737   1.200  0.00  0.00    -0.470 NA
ATOM     14  C   LIG    1        3.157  -3.883   1.220  0.00  0.00    +0.260 A 
ATOM     15  S   LIG    1        4.644  -4.693   1.456  0.00  0.00    +0.130 S 
BRANCH  11  17
ATOM     16  C   LIG    1        4.816  -8.188   0.380  0.00  0.00    +0.030 C 
ATOM     17  C   LIG    1        4.444  -7.587   1.736  0.00  0.00    +0.130 C 
ENDBRANCH  11  17
ENDBRANCH   7  14
ENDBRANCH   1   9
BRANCH   5  18
ATOM     18  S   LIG    1       -1.355   2.109   0.113  0.00  0.00    +2.680 S 
ATOM     19  O   LIG    1       -2.169   1.075  -0.425  0.00  0.00    -0.930 OA
ATOM     20  O   LIG    1       -1.146   3.353  -0.540  0.00  0.00    -0.940 OA
BRANCH  18  21
ATOM     21  N   LIG    1       -1.976   2.463   1.607  0.00  0.00    -0.950 N 
ATOM     22  C   LIG    1       -1.631   3.728   2.262  0.00  0.00    +0.320 C 
BRANCH  21  23
ATOM     23  C   LIG    1       -2.829   1.557   2.242  0.00  0.00    +0.130 A 
ATOM     24  C   LIG    1       -4.029   1.195   1.644  0.00  0.00    +0.030 A 
ATOM     25  C   LIG    1       -4.867   0.295   2.273  0.00  0.00    +0.030 A 
ATOM     26  C   LIG    1       -4.518  -0.237   3.500  0.00  0.00    +0.020 A 
ATOM     27  C   LIG    1       -3.326   0.125   4.100  0.00  0.00    +0.020 A 
ATOM     28  C   LIG    1       -2.480   1.021   3.475  0.00  0.00    +0.010 A 
ENDBRANCH  21  23
ENDBRANCH  18  21
ENDBRANCH   5  18
TORSDOF 6
