REMARK  Name = ZINCrD00000F5LDG.0
REMARK                            x       y       z     vdW  Elec       q    Type
REMARK                         _______ _______ _______ _____ _____    ______ ____
ROOT
ATOM      1  C   LIG    1        4.211  -2.807  -3.614  0.00  0.00    +0.120 C 
ATOM      2  C   LIG    1        2.865  -3.471  -3.908  0.00  0.00    +0.000 C 
ATOM      3  S   LIG    1        1.515  -2.247  -3.838  0.00  0.00    +0.090 S 
ATOM      4  C   LIG    1        0.666  -3.054  -2.508  0.00  0.00    +0.240 C 
ATOM      5  N   LIG    1        1.389  -4.158  -2.171  0.00  0.00    -0.500 N 
ATOM      6  C   LIG    1       -0.522  -2.631  -1.911  0.00  0.00    -0.160 C 
ATOM      7  C   LIG    1        2.503  -4.455  -2.819  0.00  0.00    +0.530 C 
ATOM      8  O   LIG    1        3.177  -5.428  -2.559  0.00  0.00    -0.450 OA
ENDROOT
BRANCH   5   9
ATOM      9  C   LIG    1        0.946  -4.990  -1.132  0.00  0.00    +0.070 A 
ATOM     10  C   LIG    1        1.376  -4.766   0.169  0.00  0.00    +0.080 A 
ATOM     11  C   LIG    1        0.934  -5.582   1.191  0.00  0.00    +0.010 A 
ATOM     12  C   LIG    1        0.072  -6.631   0.918  0.00  0.00    +0.140 A 
ATOM     13  C   LIG    1       -0.353  -6.859  -0.380  0.00  0.00    +0.010 A 
ATOM     14  F   LIG    1       -0.355  -7.432   1.918  0.00  0.00    -0.130 F 
ATOM     15  C   LIG    1        0.082  -6.042  -1.405  0.00  0.00    +0.080 A 
ENDBRANCH   5   9
BRANCH   6  16
ATOM     16  C   LIG    1       -1.242  -1.478  -2.450  0.00  0.00    +0.590 C 
ATOM     17  N   LIG    1       -2.390  -1.071  -1.873  0.00  0.00    -0.720 N 
ATOM     18  H   LIG    1       -2.739  -1.542  -1.100  0.00  0.00    +0.400 HD
ATOM     19  O   LIG    1       -0.805  -0.887  -3.420  0.00  0.00    -0.520 OA
BRANCH  17  20
ATOM     20  C   LIG    1       -3.112   0.084  -2.413  0.00  0.00    +0.320 C 
BRANCH  20  21
ATOM     21  C   LIG    1       -4.352   0.330  -1.594  0.00  0.00    -0.110 A 
ATOM     22  C   LIG    1       -5.543  -0.278  -1.944  0.00  0.00    +0.020 A 
ATOM     23  C   LIG    1       -6.680  -0.057  -1.190  0.00  0.00    +0.010 A 
ATOM     24  C   LIG    1       -6.628   0.781  -0.091  0.00  0.00    +0.010 A 
ATOM     25  C   LIG    1       -5.439   1.393   0.256  0.00  0.00    +0.010 A 
ATOM     26  C   LIG    1       -4.301   1.168  -0.496  0.00  0.00    +0.030 A 
ENDBRANCH  20  21
ENDBRANCH  17  20
ENDBRANCH   6  16
BRANCH   6  27
ATOM     27  C   LIG    1       -1.037  -3.327  -0.770  0.00  0.00    +0.250 C 
ATOM     28  N   LIG    1       -1.445  -3.879   0.135  0.00  0.00    -0.400 NA
ENDBRANCH   6  27
TORSDOF 5
