REMARK  Name = ZINCrD0000074ILn.0
REMARK                            x       y       z     vdW  Elec       q    Type
REMARK                         _______ _______ _______ _____ _____    ______ ____
ROOT
ATOM      1  C   LIG    1        3.100   3.111   0.040  0.00  0.00    +0.300 A 
ATOM      2  C   LIG    1        1.889   3.588   0.525  0.00  0.00    -0.010 A 
ATOM      3  C   LIG    1        0.782   2.759   0.509  0.00  0.00    +0.110 A 
ATOM      4  C   LIG    1        0.927   1.469   0.003  0.00  0.00    +0.060 A 
ATOM      5  C   LIG    1        2.169   1.060  -0.460  0.00  0.00    +0.280 A 
ATOM      6  N   LIG    1        3.201   1.880  -0.433  0.00  0.00    -0.500 NA
ENDROOT
BRANCH   4   7
ATOM      7  N   LIG    1       -0.167   0.594  -0.033  0.00  0.00    -0.660 N 
ATOM      8  H   LIG    1       -0.022  -0.365  -0.019  0.00  0.00    +0.420 HD
ATOM      9  C   LIG    1       -1.421   1.084  -0.092  0.00  0.00    +0.530 C 
ATOM     10  O   LIG    1       -1.600   2.277  -0.218  0.00  0.00    -0.510 OA
BRANCH   9  11
ATOM     11  C   LIG    1       -2.601   0.150  -0.002  0.00  0.00    +0.010 C 
ATOM     12  C   LIG    1       -2.683  -0.759  -1.250  0.00  0.00    +0.070 C 
ATOM     13  C   LIG    1       -4.167  -0.888  -1.517  0.00  0.00    +0.520 C 
ATOM     14  N   LIG    1       -4.841   0.066  -0.853  0.00  0.00    -0.620 N 
ATOM     15  O   LIG    1       -4.673  -1.731  -2.228  0.00  0.00    -0.520 OA
ATOM     16  C   LIG    1       -3.931   0.930  -0.092  0.00  0.00    +0.300 C 
BRANCH  14  17
ATOM     17  C   LIG    1       -6.297   0.223  -0.884  0.00  0.00    +0.330 C 
BRANCH  17  18
ATOM     18  C   LIG    1       -6.685   1.154  -2.035  0.00  0.00    -0.070 C 
ATOM     19  C   LIG    1       -7.356   2.481  -1.674  0.00  0.00    +0.010 C 
ATOM     20  C   LIG    1       -8.177   1.356  -2.309  0.00  0.00    +0.030 C 
ENDBRANCH  17  18
ENDBRANCH  14  17
ENDBRANCH   9  11
ENDBRANCH   4   7
BRANCH   1  21
ATOM     21  O   LIG    1        4.192   3.917   0.052  0.00  0.00    -0.250 OA
BRANCH  21  26
ATOM     22  C   LIG    1        8.917   2.006  -2.344  0.00  0.00    +0.090 C 
ATOM     23  C   LIG    1        7.653   2.517  -1.703  0.00  0.00    -0.090 A 
ATOM     24  C   LIG    1        6.535   2.760  -2.479  0.00  0.00    +0.020 A 
ATOM     25  C   LIG    1        5.374   3.228  -1.894  0.00  0.00    +0.010 A 
ATOM     26  C   LIG    1        5.332   3.456  -0.526  0.00  0.00    +0.090 A 
ATOM     27  C   LIG    1        6.457   3.217   0.250  0.00  0.00    +0.020 A 
ATOM     28  C   LIG    1        7.613   2.743  -0.339  0.00  0.00    +0.020 A 
ENDBRANCH  21  26
ENDBRANCH   1  21
TORSDOF 6
