REMARK  Name = ZINCqH0000003Py2.0
REMARK                            x       y       z     vdW  Elec       q    Type
REMARK                         _______ _______ _______ _____ _____    ______ ____
ROOT
ATOM      1  C   LIG    1       -1.330   1.944   0.019  0.00  0.00    +0.140 C 
ENDROOT
BRANCH   1   4
ATOM      2  C   LIG    1       -2.783   0.346   2.566  0.00  0.00    +0.180 A 
ATOM      3  C   LIG    1       -3.043   0.291   1.191  0.00  0.00    -0.120 A 
ATOM      4  C   LIG    1       -2.462   0.950   0.019  0.00  0.00    -0.130 A 
ATOM      5  C   LIG    1       -3.132   0.503  -1.054  0.00  0.00    +0.220 A 
ATOM      6  N   LIG    1       -4.090  -0.394  -0.665  0.00  0.00    -0.590 N 
ATOM      7  H   LIG    1       -4.700  -0.854  -1.264  0.00  0.00    +0.420 HD
ATOM      8  C   LIG    1       -4.063  -0.544   0.703  0.00  0.00    +0.130 A 
ATOM      9  C   LIG    1       -4.808  -1.309   1.596  0.00  0.00    -0.050 A 
ATOM     10  C   LIG    1       -4.542  -1.246   2.946  0.00  0.00    +0.070 A 
ATOM     11  C   LIG    1       -3.535  -0.424   3.433  0.00  0.00    -0.120 A 
BRANCH   2  12
ATOM     12  O   LIG    1       -1.798   1.150   3.044  0.00  0.00    -0.310 OA
BRANCH  12  14
ATOM     13  C   LIG    1       -0.451   2.111   4.806  0.00  0.00    +0.060 C 
ATOM     14  C   LIG    1       -1.592   1.153   4.458  0.00  0.00    +0.170 C 
ENDBRANCH  12  14
ENDBRANCH   2  12
ENDBRANCH   1   4
BRANCH   1  15
ATOM     15  C   LIG    1       -0.014   1.209   0.009  0.00  0.00    +0.520 C 
ATOM     16  N   LIG    1        1.143   1.898   0.001  0.00  0.00    -0.730 N 
ATOM     17  H   LIG    1        1.130   2.868   0.007  0.00  0.00    +0.400 HD
ATOM     18  O   LIG    1        0.002  -0.004   0.002  0.00  0.00    -0.530 OA
BRANCH  16  19
ATOM     19  C   LIG    1        2.422   1.183  -0.015  0.00  0.00    +0.240 C 
ATOM     20  C   LIG    1        2.822   0.815   1.418  0.00  0.00    -0.010 C 
ATOM     21  C   LIG    1        4.191   0.131   1.398  0.00  0.00    +0.210 C 
ATOM     22  O   LIG    1        5.150   1.005   0.800  0.00  0.00    -0.370 OA
ATOM     23  C   LIG    1        4.852   1.366  -0.547  0.00  0.00    +0.120 C 
ATOM     24  C   LIG    1        4.829   0.114  -1.435  0.00  0.00    +0.000 C 
ATOM     25  C   LIG    1        5.926   0.314  -2.503  0.00  0.00    +0.020 C 
ATOM     26  C   LIG    1        6.908   1.322  -1.855  0.00  0.00    +0.020 C 
ATOM     27  C   LIG    1        5.959   2.285  -1.097  0.00  0.00    +0.050 C 
ATOM     28  C   LIG    1        3.505   2.083  -0.620  0.00  0.00    +0.010 C 
ENDBRANCH  16  19
ENDBRANCH   1  15
TORSDOF 5
