REMARK  Name = ZINCpk00000k1x6o.0
REMARK                            x       y       z     vdW  Elec       q    Type
REMARK                         _______ _______ _______ _____ _____    ______ ____
ROOT
ATOM      1  C   LIG    1        3.370   3.697  -5.422  0.00  0.00    +0.260 C 
ATOM      2  N   LIG    1        3.224   4.224  -4.063  0.00  0.00    -1.120 NA
ATOM      3  S   LIG    1        1.916   4.791  -3.618  0.00  0.00    +2.250 S 
ATOM      4  C   LIG    1        2.104   5.343  -1.893  0.00  0.00    -0.170 C 
ATOM      5  C   LIG    1        2.346   4.106  -1.019  0.00  0.00    +0.120 C 
ATOM      6  C   LIG    1        1.150   3.162  -1.119  0.00  0.00    +0.090 C 
ATOM      7  C   LIG    1        1.235   2.118   0.002  0.00  0.00    +0.290 C 
ATOM      8  N   LIG    1       -0.016   1.344   0.009  0.00  0.00    -0.620 N 
ATOM      9  C   LIG    1       -1.288   2.084   0.019  0.00  0.00    +0.250 C 
ATOM     10  C   LIG    1       -1.250   3.133  -1.091  0.00  0.00    +0.220 C 
ATOM     11  C   LIG    1        0.002  -0.004   0.002  0.00  0.00    +0.520 C 
ATOM     12  O   LIG    1        1.060  -0.596  -0.011  0.00  0.00    -0.530 OA
ATOM     13  C   LIG    1        1.134   2.450  -2.470  0.00  0.00    +0.060 C 
ATOM     14  O   LIG    1       -0.059   3.912  -0.965  0.00  0.00    -0.370 OA
ATOM     15  O   LIG    1        1.572   5.833  -4.520  0.00  0.00    -0.960 OA
ATOM     16  C   LIG    1        0.706   3.431  -3.568  0.00  0.00    -0.360 C 
ENDROOT
BRANCH  11  17
ATOM     17  C   LIG    1       -1.293  -0.775   0.010  0.00  0.00    +0.060 C 
BRANCH  17  18
ATOM     18  C   LIG    1       -0.993  -2.276  -0.001  0.00  0.00    +0.040 C 
BRANCH  18  19
ATOM     19  C   LIG    1       -2.307  -3.058   0.008  0.00  0.00    +0.280 C 
BRANCH  19  20
ATOM     20  N   LIG    1       -2.020  -4.495  -0.003  0.00  0.00    -0.460 N 
ATOM     21  C   LIG    1       -1.971  -5.306  -1.105  0.00  0.00    +0.110 A 
ATOM     22  C   LIG    1       -1.674  -6.543  -0.665  0.00  0.00    +0.140 A 
ATOM     23  N   LIG    1       -1.554  -6.492   0.670  0.00  0.00    -0.490 NA
ATOM     24  C   LIG    1       -1.760  -5.268   1.073  0.00  0.00    +0.210 A 
ATOM     25  C   LIG    1       -1.714  -4.796   2.504  0.00  0.00    +0.170 C 
ENDBRANCH  19  20
ENDBRANCH  18  19
ENDBRANCH  17  18
ENDBRANCH  11  17
TORSDOF 4
