REMARK  Name = ZINCrg000000saEU.0
REMARK                            x       y       z     vdW  Elec       q    Type
REMARK                         _______ _______ _______ _____ _____    ______ ____
ROOT
ATOM      1  N   LIG    1       -2.820   1.199   0.194  0.00  0.00    -0.670 N 
ATOM      2  H   LIG    1       -3.632   1.725   0.121  0.00  0.00    +0.420 HD
ATOM      3  C   LIG    1       -2.894  -0.129   0.410  0.00  0.00    +0.500 C 
ATOM      4  O   LIG    1       -1.883  -0.799   0.422  0.00  0.00    -0.500 OA
ENDROOT
BRANCH   1   9
ATOM      5  C   LIG    1        2.245   3.713  -0.308  0.00  0.00    +0.110 C 
ATOM      6  C   LIG    1        0.901   3.046  -0.172  0.00  0.00    -0.060 A 
ATOM      7  C   LIG    1        0.713   1.766  -0.658  0.00  0.00    +0.050 A 
ATOM      8  C   LIG    1       -0.518   1.151  -0.535  0.00  0.00    +0.060 A 
ATOM      9  C   LIG    1       -1.572   1.820   0.074  0.00  0.00    +0.160 A 
ATOM     10  C   LIG    1       -1.384   3.103   0.569  0.00  0.00    +0.010 A 
ATOM     11  C   LIG    1       -0.147   3.718   0.443  0.00  0.00    +0.130 A 
BRANCH  11  12
ATOM     12  N   LIG    1        0.045   5.016   0.937  0.00  0.00    -0.330 N 
ATOM     13  C   LIG    1       -0.281   5.485   2.161  0.00  0.00    +0.470 A 
ATOM     14  N   LIG    1        0.071   6.743   2.202  0.00  0.00    -0.330 NA
ATOM     15  N   LIG    1        0.598   7.102   1.087  0.00  0.00    -0.040 NA
ATOM     16  N   LIG    1        0.624   6.108   0.266  0.00  0.00    -0.070 NA
ENDBRANCH  11  12
ENDBRANCH   1   9
BRANCH   3  17
ATOM     17  C   LIG    1       -4.234  -0.782   0.636  0.00  0.00    +0.340 C 
BRANCH  17  18
ATOM     18  N   LIG    1       -4.046  -2.220   0.845  0.00  0.00    -0.580 N 
ATOM     19  C   LIG    1       -4.060  -3.130  -0.166  0.00  0.00    +0.550 C 
ATOM     20  C   LIG    1       -3.525  -4.400   0.417  0.00  0.00    +0.000 C 
ATOM     21  C   LIG    1       -4.064  -5.726  -0.076  0.00  0.00    +0.060 C 
ATOM     22  C   LIG    1       -3.348  -6.814   0.749  0.00  0.00    +0.020 C 
ATOM     23  C   LIG    1       -3.567  -6.629   2.246  0.00  0.00    +0.020 C 
ATOM     24  C   LIG    1       -3.197  -5.209   2.715  0.00  0.00    +0.060 C 
ATOM     25  C   LIG    1       -4.019  -4.250   1.886  0.00  0.00    +0.000 C 
ATOM     26  O   LIG    1       -4.429  -2.947  -1.306  0.00  0.00    -0.460 OA
ATOM     27  C   LIG    1       -3.848  -2.776   2.071  0.00  0.00    +0.550 C 
ATOM     28  O   LIG    1       -3.585  -2.196   3.102  0.00  0.00    -0.460 OA
ENDBRANCH  17  18
ENDBRANCH   3  17
TORSDOF 4
