REMARK  Name = ZINCpe000027pGYu.1
REMARK                            x       y       z     vdW  Elec       q    Type
REMARK                         _______ _______ _______ _____ _____    ______ ____
ROOT
ATOM      1  C   LIG    1       -5.811  -0.838   0.824  0.00  0.00    +0.520 C 
ATOM      2  N   LIG    1       -4.655  -0.153   0.924  0.00  0.00    -0.620 N 
ATOM      3  C   LIG    1       -4.655   1.317   0.934  0.00  0.00    +0.280 C 
ATOM      4  C   LIG    1       -3.730   1.814  -0.183  0.00  0.00    +0.290 C 
ATOM      5  N   LIG    1       -2.447   1.105  -0.082  0.00  0.00    -0.610 N 
ATOM      6  C   LIG    1       -2.446  -0.364  -0.098  0.00  0.00    +0.270 C 
ATOM      7  C   LIG    1       -1.290   1.791   0.018  0.00  0.00    +0.550 C 
ATOM      8  O   LIG    1       -1.309   3.003   0.121  0.00  0.00    -0.530 OA
ATOM      9  C   LIG    1       -3.371  -0.862   1.026  0.00  0.00    +0.270 C 
ATOM     10  O   LIG    1       -6.864  -0.242   0.740  0.00  0.00    -0.510 OA
ENDROOT
BRANCH   7  11
ATOM     11  C   LIG    1       -0.012   1.076   0.003  0.00  0.00    -0.050 C 
ATOM     12  C   LIG    1        1.146   1.766  -0.003  0.00  0.00    +0.120 C 
BRANCH  12  13
ATOM     13  C   LIG    1        2.430   1.048  -0.025  0.00  0.00    -0.020 A 
ATOM     14  C   LIG    1        2.454  -0.350  -0.033  0.00  0.00    +0.040 A 
ATOM     15  C   LIG    1        3.662  -1.015  -0.057  0.00  0.00    +0.110 A 
ATOM     16  C   LIG    1        4.848  -0.303  -0.063  0.00  0.00    -0.040 A 
ATOM     17  C   LIG    1        4.833   1.081  -0.050  0.00  0.00    +0.110 A 
ATOM     18  C   LIG    1        3.634   1.761  -0.031  0.00  0.00    +0.060 A 
BRANCH  16  19
ATOM     19  N   LIG    1        6.140  -1.025  -0.084  0.00  0.00    +0.020 N 
ATOM     20  O   LIG    1        6.157  -2.243  -0.095  0.00  0.00    -0.160 OA
ATOM     21  O   LIG    1        7.186  -0.402  -0.089  0.00  0.00    -0.150 OA
ENDBRANCH  16  19
ENDBRANCH  12  13
ENDBRANCH   7  11
BRANCH   1  22
ATOM     22  C   LIG    1       -5.795  -2.345   0.815  0.00  0.00    +0.200 C 
BRANCH  22  24
ATOM     23  C   LIG    1       -7.182  -4.296   0.447  0.00  0.00    +0.200 C 
ATOM     24  N   LIG    1       -7.170  -2.848   0.697  0.00  0.00    -0.530 NA
ATOM     25  C   LIG    1       -7.957  -2.514   1.891  0.00  0.00    +0.200 C 
ENDBRANCH  22  24
ENDBRANCH   1  22
TORSDOF 5
