REMARK  Name = ZINCrH000004m6al.0
REMARK                            x       y       z     vdW  Elec       q    Type
REMARK                         _______ _______ _______ _____ _____    ______ ____
ROOT
ATOM      1  C   LIG    1       -1.237   3.144   0.030  0.00  0.00    +0.100 A 
ATOM      2  C   LIG    1       -0.043   3.847   0.023  0.00  0.00    -0.010 A 
ATOM      3  C   LIG    1        1.160   3.166   0.008  0.00  0.00    -0.110 A 
ATOM      4  C   LIG    1        1.175   1.784   0.000  0.00  0.00    +0.040 A 
ATOM      5  C   LIG    1       -0.013   1.076   0.008  0.00  0.00    -0.040 A 
ATOM      6  C   LIG    1       -1.222   1.752   0.017  0.00  0.00    +0.110 A 
ENDROOT
BRANCH   1   8
ATOM      7  C   LIG    1       -2.360   5.240   0.052  0.00  0.00    +0.240 C 
ATOM      8  O   LIG    1       -2.421   3.812   0.045  0.00  0.00    -0.300 OA
ENDBRANCH   1   8
BRANCH   3   9
ATOM      9  C   LIG    1        2.458   3.932  -0.000  0.00  0.00    +0.330 C 
BRANCH   9  10
ATOM     10  N   LIG    1        2.865   4.187  -1.384  0.00  0.00    -0.730 N 
ATOM     11  H   LIG    1        2.315   3.871  -2.118  0.00  0.00    +0.400 HD
ATOM     12  C   LIG    1        4.004   4.862  -1.638  0.00  0.00    +0.520 C 
ATOM     13  O   LIG    1        4.691   5.258  -0.720  0.00  0.00    -0.520 OA
BRANCH  12  14
ATOM     14  C   LIG    1        4.423   5.126  -3.061  0.00  0.00    +0.110 C 
BRANCH  14  15
ATOM     15  C   LIG    1        5.720   5.892  -3.069  0.00  0.00    -0.060 A 
ATOM     16  C   LIG    1        6.913   5.229  -3.292  0.00  0.00    +0.030 A 
ATOM     17  C   LIG    1        8.103   5.932  -3.300  0.00  0.00    +0.020 A 
ATOM     18  C   LIG    1        8.102   7.298  -3.084  0.00  0.00    +0.020 A 
ATOM     19  C   LIG    1        6.910   7.961  -2.861  0.00  0.00    +0.020 A 
ATOM     20  C   LIG    1        5.718   7.260  -2.860  0.00  0.00    -0.020 A 
ATOM     21 CL   LIG    1        4.220   8.093  -2.587  0.00  0.00    -0.070 Cl
ENDBRANCH  14  15
ENDBRANCH  12  14
ENDBRANCH   9  10
ENDBRANCH   3   9
BRANCH   6  22
ATOM     22  O   LIG    1       -2.391   1.058   0.019  0.00  0.00    -0.290 OA
BRANCH  22  23
ATOM     23  C   LIG    1       -2.299  -0.368   0.011  0.00  0.00    +0.210 C 
BRANCH  23  24
ATOM     24  C   LIG    1       -3.705  -0.971   0.014  0.00  0.00    +0.160 C 
ATOM     25  C   LIG    1       -3.619  -2.503  -0.121  0.00  0.00    +0.010 C 
ATOM     26  C   LIG    1       -4.329  -3.036   1.147  0.00  0.00    +0.000 C 
ATOM     27  C   LIG    1       -5.195  -1.822   1.569  0.00  0.00    +0.200 C 
ATOM     28  O   LIG    1       -4.355  -0.688   1.265  0.00  0.00    -0.360 OA
ENDBRANCH  23  24
ENDBRANCH  22  23
ENDBRANCH   6  22
TORSDOF 8
