REMARK  Name = ZINCtj00001yywoW.1
REMARK                            x       y       z     vdW  Elec       q    Type
REMARK                         _______ _______ _______ _____ _____    ______ ____
ROOT
ATOM      1  N   LIG    1       -4.773  -5.628  -0.547  0.00  0.00    -0.750 N 
ATOM      2  H   LIG    1       -5.642  -5.556  -0.973  0.00  0.00    +0.400 HD
ATOM      3  C   LIG    1       -3.955  -4.557  -0.502  0.00  0.00    +0.510 C 
ATOM      4  O   LIG    1       -2.869  -4.646   0.031  0.00  0.00    -0.480 OA
ENDROOT
BRANCH   1   5
ATOM      5  C   LIG    1       -4.351  -6.898   0.047  0.00  0.00    +0.320 C 
BRANCH   5   6
ATOM      6  C   LIG    1       -5.512  -7.893   0.004  0.00  0.00    +0.170 C 
BRANCH   6   7
ATOM      7  N   LIG    1       -6.526  -7.504   0.993  0.00  0.00    -0.380 N 
ATOM      8  C   LIG    1       -7.006  -6.147   0.696  0.00  0.00    +0.230 C 
ATOM      9  C   LIG    1       -8.062  -5.745   1.728  0.00  0.00    +0.260 C 
ATOM     10  O   LIG    1       -7.496  -5.826   3.039  0.00  0.00    -0.350 OA
ATOM     11  C   LIG    1       -6.992  -7.124   3.367  0.00  0.00    +0.260 C 
ATOM     12  C   LIG    1       -5.934  -7.529   2.338  0.00  0.00    +0.230 C 
ATOM     13  H   LIG    1       -7.300  -8.150   0.954  0.00  0.00    +0.420 HD
ENDBRANCH   6   7
BRANCH   6  14
ATOM     14  C   LIG    1       -4.995  -9.296   0.328  0.00  0.00    +0.080 C 
BRANCH  14  16
ATOM     15  C   LIG    1       -6.660 -10.366  -1.197  0.00  0.00    +0.030 C 
ATOM     16  C   LIG    1       -6.149 -10.297   0.244  0.00  0.00    -0.040 C 
ATOM     17  C   LIG    1       -5.657 -11.679   0.678  0.00  0.00    +0.050 C 
ENDBRANCH  14  16
ENDBRANCH   6  14
ENDBRANCH   5   6
ENDBRANCH   1   5
BRANCH   3  18
ATOM     18  C   LIG    1       -4.390  -3.250  -1.113  0.00  0.00    +0.220 C 
BRANCH  18  19
ATOM     19  O   LIG    1       -3.359  -2.276  -0.938  0.00  0.00    -0.330 OA
BRANCH  19  20
ATOM     20  C   LIG    1       -3.672  -0.994  -1.485  0.00  0.00    +0.290 C 
BRANCH  20  21
ATOM     21  C   LIG    1       -2.522  -0.051  -1.245  0.00  0.00    +0.380 A 
ATOM     22  N   LIG    1       -1.477  -0.501  -0.619  0.00  0.00    -0.480 NA
ATOM     23  C   LIG    1       -0.404   0.290  -0.367  0.00  0.00    +0.140 A 
ATOM     24  C   LIG    1        0.720  -0.193   0.307  0.00  0.00    +0.040 A 
ATOM     25  C   LIG    1        1.787   0.645   0.541  0.00  0.00    +0.070 A 
ATOM     26  C   LIG    1        1.760   1.967   0.116  0.00  0.00    +0.010 A 
ATOM     27  C   LIG    1        0.663   2.466  -0.551  0.00  0.00    +0.100 A 
ATOM     28  C   LIG    1       -0.427   1.635  -0.798  0.00  0.00    -0.200 A 
ATOM     29  C   LIG    1       -1.628   2.114  -1.499  0.00  0.00    +0.550 A 
ATOM     30  O   LIG    1       -1.712   3.261  -1.897  0.00  0.00    -0.500 OA
ATOM     31  N   LIG    1       -2.631   1.227  -1.695  0.00  0.00    -0.650 N 
ATOM     32  H   LIG    1       -3.437   1.506  -2.156  0.00  0.00    +0.420 HD
ENDBRANCH  20  21
ENDBRANCH  19  20
ENDBRANCH  18  19
ENDBRANCH   3  18
TORSDOF 9
