REMARK  Name = ZINC9l0000003ZdD.0
REMARK                            x       y       z     vdW  Elec       q    Type
REMARK                         _______ _______ _______ _____ _____    ______ ____
ROOT
ATOM      1  C   LIG    1        3.921   1.834   0.195  0.00  0.00    +0.070 C 
ATOM      2  C   LIG    1        2.490   2.266   0.385  0.00  0.00    -0.160 C 
ATOM      3  C   LIG    1        1.496   1.469  -0.004  0.00  0.00    -0.150 C 
ATOM      4  C   LIG    1       -0.019   1.534   0.011  0.00  0.00    +0.070 C 
ATOM      5  C   LIG    1        0.002  -0.004   0.002  0.00  0.00    -0.010 C 
ATOM      6  C   LIG    1        1.389   0.104  -0.655  0.00  0.00    +0.030 C 
ENDROOT
BRANCH   2   7
ATOM      7  C   LIG    1        2.191   3.565   0.999  0.00  0.00    +0.520 C 
ATOM      8  O   LIG    1        3.104   4.297   1.357  0.00  0.00    -0.700 OA
ATOM      9  O   LIG    1        1.029   3.916   1.153  0.00  0.00    -0.690 OA
ENDBRANCH   2   7
TORSDOF 1
