REMARK  Name = ZINCrH00000No4AQ.0
REMARK                            x       y       z     vdW  Elec       q    Type
REMARK                         _______ _______ _______ _____ _____    ______ ____
ROOT
ATOM      1  O   LIG    1        9.027  -1.277   0.167  0.00  0.00    -0.420 OA
ATOM      2  C   LIG    1        8.609  -0.168   0.443  0.00  0.00    +0.480 C 
ATOM      3  O   LIG    1        9.336   0.929   0.746  0.00  0.00    -0.290 OA
ATOM      4  C   LIG    1        8.492   1.950   0.995  0.00  0.00    +0.350 C 
ATOM      5  N   LIG    1        7.246   1.581   0.865  0.00  0.00    -0.470 NA
ATOM      6  C   LIG    1        7.205   0.265   0.515  0.00  0.00    -0.100 C 
ATOM      7  C   LIG    1        6.075  -0.507   0.281  0.00  0.00    +0.240 C 
ENDROOT
BRANCH   7   8
ATOM      8  C   LIG    1        4.808   0.091   0.269  0.00  0.00    -0.180 C 
ATOM      9  C   LIG    1        3.686  -0.679   0.160  0.00  0.00    +0.150 C 
ATOM     10  C   LIG    1        2.386   0.004   0.132  0.00  0.00    -0.150 A 
ATOM     11  C   LIG    1        1.195  -0.688   0.356  0.00  0.00    +0.090 A 
ATOM     12  C   LIG    1       -0.004  -0.004   0.322  0.00  0.00    -0.070 A 
ATOM     13  C   LIG    1       -0.026   1.359   0.068  0.00  0.00    +0.090 A 
ATOM     14  C   LIG    1        1.149   2.054  -0.155  0.00  0.00    +0.010 A 
ATOM     15 CL   LIG    1       -1.492  -0.856   0.599  0.00  0.00    -0.060 Cl
ATOM     16  C   LIG    1        2.360   1.387  -0.126  0.00  0.00    +0.150 A 
ATOM     17  O   LIG    1        3.528   2.041  -0.342  0.00  0.00    -0.310 OA
ATOM     18  C   LIG    1        4.676   1.588   0.377  0.00  0.00    +0.340 C 
ENDBRANCH   7   8
BRANCH   4  19
ATOM     19  C   LIG    1        8.921   3.311   1.366  0.00  0.00    -0.040 A 
ATOM     20  C   LIG    1        7.969   4.307   1.599  0.00  0.00    +0.120 A 
ATOM     21  C   LIG    1        8.372   5.577   1.951  0.00  0.00    +0.040 A 
ATOM     22  C   LIG    1        9.723   5.875   2.065  0.00  0.00    +0.070 A 
ATOM     23  O   LIG    1       10.366   7.034   2.388  0.00  0.00    -0.300 OA
ATOM     24  C   LIG    1       11.705   6.645   2.747  0.00  0.00    +0.440 C 
ATOM     25  O   LIG    1       11.919   5.430   2.004  0.00  0.00    -0.300 OA
ATOM     26  C   LIG    1       10.679   4.887   1.828  0.00  0.00    +0.030 A 
ATOM     27  C   LIG    1       10.282   3.610   1.481  0.00  0.00    +0.090 A 
ENDBRANCH   4  19
TORSDOF 2
