REMARK  Name = ZINCrD00000l5rCE.0
REMARK                            x       y       z     vdW  Elec       q    Type
REMARK                         _______ _______ _______ _____ _____    ______ ____
ROOT
ATOM      1  C   LIG    1        1.008   1.695   2.968  0.00  0.00    +0.570 C 
ATOM      2  N   LIG    1       -0.059   1.051   2.454  0.00  0.00    -0.720 N 
ATOM      3  H   LIG    1       -0.381   0.237   2.872  0.00  0.00    +0.400 HD
ATOM      4  O   LIG    1        1.411   2.716   2.445  0.00  0.00    -0.530 OA
ENDROOT
BRANCH   1   7
ATOM      5  C   LIG    1        1.863  -0.510   5.888  0.00  0.00    +0.110 A 
ATOM      6  C   LIG    1        1.222  -0.008   4.775  0.00  0.00    +0.000 A 
ATOM      7  C   LIG    1        1.686   1.161   4.166  0.00  0.00    -0.130 A 
ATOM      8  C   LIG    1        2.792   1.825   4.703  0.00  0.00    +0.100 A 
ATOM      9  C   LIG    1        3.419   1.323   5.818  0.00  0.00    -0.150 A 
ATOM     10  C   LIG    1        4.604   1.817   6.625  0.00  0.00    +0.090 C 
ATOM     11  C   LIG    1        4.467   0.997   7.929  0.00  0.00    +0.240 C 
ATOM     12  O   LIG    1        3.744  -0.169   7.498  0.00  0.00    -0.290 OA
ATOM     13  C   LIG    1        2.974   0.154   6.423  0.00  0.00    +0.110 A 
BRANCH   5  15
ATOM     14  C   LIG    1        0.273  -2.278   5.876  0.00  0.00    +0.240 C 
ATOM     15  O   LIG    1        1.410  -1.651   6.472  0.00  0.00    -0.310 OA
ENDBRANCH   5  15
ENDBRANCH   1   7
BRANCH   2  16
ATOM     16  C   LIG    1       -0.732   1.581   1.266  0.00  0.00    +0.250 C 
ATOM     17  C   LIG    1       -0.013   1.086   0.008  0.00  0.00    +0.000 C 
ATOM     18  C   LIG    1       -0.756   1.594  -1.230  0.00  0.00    +0.050 C 
ATOM     19  C   LIG    1       -2.207   1.109  -1.184  0.00  0.00    +0.180 C 
ATOM     20  N   LIG    1       -2.852   1.610   0.036  0.00  0.00    -0.500 N 
ATOM     21  C   LIG    1       -2.185   1.096   1.239  0.00  0.00    +0.180 C 
BRANCH  20  22
ATOM     22  C   LIG    1       -4.213   1.296   0.047  0.00  0.00    +0.090 A 
ATOM     23  C   LIG    1       -5.159   2.304   0.194  0.00  0.00    +0.030 A 
ATOM     24  C   LIG    1       -6.504   1.990   0.199  0.00  0.00    +0.020 A 
ATOM     25  C   LIG    1       -6.910   0.675   0.069  0.00  0.00    +0.000 A 
ATOM     26  C   LIG    1       -5.971  -0.331  -0.072  0.00  0.00    -0.080 A 
ATOM     27  C   LIG    1       -6.418  -1.763  -0.213  0.00  0.00    +0.080 C 
ATOM     28  C   LIG    1       -4.625  -0.024  -0.083  0.00  0.00    -0.030 A 
ENDBRANCH  20  22
ENDBRANCH   2  16
TORSDOF 4
