REMARK  Name = ZINCvU0000000Gzw.0
REMARK                            x       y       z     vdW  Elec       q    Type
REMARK                         _______ _______ _______ _____ _____    ______ ____
ROOT
ATOM      1  C   LIG    1       -4.864   0.393  -0.235  0.00  0.00    +0.140 A 
ATOM      2  C   LIG    1       -3.738  -0.265   0.243  0.00  0.00    +0.030 A 
ATOM      3  C   LIG    1       -2.533   0.404   0.331  0.00  0.00    +0.110 A 
ATOM      4  C   LIG    1       -2.449   1.736  -0.049  0.00  0.00    +0.140 A 
ATOM      5  C   LIG    1       -3.575   2.394  -0.528  0.00  0.00    -0.030 A 
ATOM      6 CL   LIG    1       -3.469   4.059  -1.010  0.00  0.00    -0.060 Cl
ATOM      7  C   LIG    1       -4.779   1.724  -0.621  0.00  0.00    +0.100 A 
ENDROOT
BRANCH   1   8
ATOM      8  N   LIG    1       -6.085  -0.287  -0.329  0.00  0.00    -0.630 N 
ATOM      9  H   LIG    1       -6.391  -0.838   0.409  0.00  0.00    +0.410 HD
BRANCH   8  11
ATOM     10  S   LIG    1       -6.349   0.881  -2.699  0.00  0.00    -0.600 S 
ATOM     11  C   LIG    1       -6.835  -0.176  -1.443  0.00  0.00    +0.550 C 
BRANCH  11  12
ATOM     12  N   LIG    1       -7.966  -0.897  -1.569  0.00  0.00    -0.680 N 
ATOM     13  H   LIG    1       -8.242  -1.496  -0.857  0.00  0.00    +0.400 HD
BRANCH  12  14
ATOM     14  C   LIG    1       -8.781  -0.776  -2.780  0.00  0.00    +0.310 C 
BRANCH  14  15
ATOM     15  C   LIG    1      -10.001  -1.693  -2.668  0.00  0.00    +0.070 C 
BRANCH  15  16
ATOM     16  C   LIG    1      -10.839  -1.568  -3.914  0.00  0.00    -0.090 A 
ATOM     17  C   LIG    1      -11.849  -0.627  -3.977  0.00  0.00    +0.010 A 
ATOM     18  C   LIG    1      -12.615  -0.509  -5.122  0.00  0.00    +0.000 A 
ATOM     19  C   LIG    1      -12.377  -1.340  -6.200  0.00  0.00    +0.000 A 
ATOM     20  C   LIG    1      -11.371  -2.286  -6.136  0.00  0.00    +0.000 A 
ATOM     21  C   LIG    1      -10.601  -2.400  -4.993  0.00  0.00    +0.010 A 
ENDBRANCH  15  16
ENDBRANCH  14  15
ENDBRANCH  12  14
ENDBRANCH  11  12
ENDBRANCH   8  11
ENDBRANCH   1   8
BRANCH   4  22
ATOM     22  N   LIG    1       -1.227   2.416   0.046  0.00  0.00    -0.630 N 
ATOM     23  H   LIG    1       -1.186   3.282   0.479  0.00  0.00    +0.410 HD
BRANCH  22  24
ATOM     24  C   LIG    1       -0.108   1.865  -0.466  0.00  0.00    +0.560 C 
ATOM     25  S   LIG    1       -0.153   0.282  -1.116  0.00  0.00    -0.610 S 
BRANCH  24  26
ATOM     26  N   LIG    1        1.045   2.563  -0.471  0.00  0.00    -0.680 N 
ATOM     27  H   LIG    1        1.071   3.460  -0.103  0.00  0.00    +0.400 HD
BRANCH  26  28
ATOM     28  C   LIG    1        2.260   1.967  -1.033  0.00  0.00    +0.310 C 
BRANCH  28  29
ATOM     29  C   LIG    1        3.417   2.961  -0.916  0.00  0.00    +0.070 C 
BRANCH  29  30
ATOM     30  C   LIG    1        4.666   2.348  -1.494  0.00  0.00    -0.090 A 
ATOM     31  C   LIG    1        5.519   1.622  -0.683  0.00  0.00    +0.010 A 
ATOM     32  C   LIG    1        6.662   1.056  -1.214  0.00  0.00    +0.000 A 
ATOM     33  C   LIG    1        6.959   1.223  -2.554  0.00  0.00    +0.000 A 
ATOM     34  C   LIG    1        6.109   1.953  -3.364  0.00  0.00    +0.000 A 
ATOM     35  C   LIG    1        4.962   2.515  -2.834  0.00  0.00    +0.010 A 
ENDBRANCH  29  30
ENDBRANCH  28  29
ENDBRANCH  26  28
ENDBRANCH  24  26
ENDBRANCH  22  24
ENDBRANCH   4  22
TORSDOF 12
