REMARK  Name = ZINCtj0000003J8A.0
REMARK                            x       y       z     vdW  Elec       q    Type
REMARK                         _______ _______ _______ _____ _____    ______ ____
ROOT
ATOM      1  C   LIG    1       -0.134   5.428   0.031  0.00  0.00    +0.600 C 
ATOM      2  N   LIG    1        1.002   6.147   0.125  0.00  0.00    -0.630 N 
ATOM      3  C   LIG    1        2.317   5.488   0.112  0.00  0.00    +0.310 C 
ATOM      4  C   LIG    1        3.200   6.186  -0.928  0.00  0.00    +0.270 C 
ATOM      5  N   LIG    1        3.247   7.625  -0.642  0.00  0.00    -0.510 N 
ATOM      6  C   LIG    1        1.909   8.210  -0.803  0.00  0.00    +0.170 C 
ATOM      7  H   LIG    1        3.886   8.073  -1.282  0.00  0.00    +0.430 HD
ATOM      8  H   LIG    1        3.564   7.769   0.304  0.00  0.00    +0.430 HD
ATOM      9  C   LIG    1        0.963   7.613   0.238  0.00  0.00    +0.330 C 
ATOM     10  O   LIG    1       -1.207   5.995  -0.051  0.00  0.00    -0.490 OA
ENDROOT
BRANCH   1  13
ATOM     11  N   LIG    1        0.213   1.919   1.199  0.00  0.00    -0.380 N 
ATOM     12  C   LIG    1        0.165   3.265   1.198  0.00  0.00    +0.350 A 
ATOM     13  C   LIG    1       -0.076   3.955   0.026  0.00  0.00    -0.250 A 
ATOM     14  C   LIG    1       -0.269   3.237  -1.178  0.00  0.00    +0.140 A 
ATOM     15  C   LIG    1       -0.210   1.878  -1.153  0.00  0.00    -0.060 A 
ATOM     16  C   LIG    1        0.038   1.218   0.064  0.00  0.00    +0.510 A 
ATOM     17  O   LIG    1        0.091  -0.001   0.092  0.00  0.00    -0.520 OA
BRANCH  11  21
ATOM     18  C   LIG    1        0.938  -1.682   4.474  0.00  0.00    +0.390 C 
ATOM     19  N   LIG    1        0.778  -0.359   3.865  0.00  0.00    -0.360 N 
ATOM     20  C   LIG    1        0.535  -0.111   2.559  0.00  0.00    +0.310 A 
ATOM     21  C   LIG    1        0.454   1.237   2.404  0.00  0.00    -0.080 A 
ATOM     22  C   LIG    1        0.662   1.825   3.661  0.00  0.00    +0.240 A 
ATOM     23  N   LIG    1        0.849   0.869   4.534  0.00  0.00    -0.270 NA
ENDBRANCH  11  21
ENDBRANCH   1  13
BRANCH   6  24
ATOM     24  C   LIG    1        1.990   9.726  -0.612  0.00  0.00    +0.140 C 
BRANCH  24  25
ATOM     25  C   LIG    1        2.823  10.328  -1.714  0.00  0.00    -0.140 A 
ATOM     26  C   LIG    1        4.187  10.473  -1.547  0.00  0.00    +0.020 A 
ATOM     27  C   LIG    1        4.953  11.020  -2.559  0.00  0.00    +0.010 A 
ATOM     28  C   LIG    1        4.351  11.434  -3.736  0.00  0.00    +0.120 A 
ATOM     29  C   LIG    1        2.984  11.293  -3.899  0.00  0.00    +0.010 A 
ATOM     30  F   LIG    1        5.098  11.973  -4.724  0.00  0.00    -0.130 F 
ATOM     31  C   LIG    1        2.221  10.741  -2.888  0.00  0.00    +0.070 A 
ENDBRANCH  24  25
ENDBRANCH   6  24
TORSDOF 4
