REMARK  Name = ZINCpe00000bKJDE.0
REMARK                            x       y       z     vdW  Elec       q    Type
REMARK                         _______ _______ _______ _____ _____    ______ ____
ROOT
ATOM      1  C   LIG    1       -2.262   1.554   1.153  0.00  0.00    +0.270 C 
ATOM      2  C   LIG    1       -2.260   2.901   1.898  0.00  0.00    +0.020 C 
ATOM      3  C   LIG    1       -0.837   3.111   1.354  0.00  0.00    +0.240 C 
ATOM      4  C   LIG    1       -0.729   1.579   1.267  0.00  0.00    -0.100 C 
ATOM      5  C   LIG    1       -0.198   0.929   2.546  0.00  0.00    +0.070 C 
ATOM      6  C   LIG    1       -0.013   1.086   0.008  0.00  0.00    +0.040 C 
ENDROOT
BRANCH   3   7
ATOM      7  N   LIG    1        0.082   3.710   2.324  0.00  0.00    -0.720 N 
ATOM      8  H   LIG    1        0.407   3.185   3.072  0.00  0.00    +0.400 HD
ATOM      9  C   LIG    1        0.476   4.990   2.177  0.00  0.00    +0.520 C 
ATOM     10  O   LIG    1        0.070   5.647   1.242  0.00  0.00    -0.540 OA
BRANCH   9  11
ATOM     11  C   LIG    1        1.422   5.607   3.176  0.00  0.00    +0.050 C 
BRANCH  11  12
ATOM     12  C   LIG    1        1.707   7.057   2.781  0.00  0.00    +0.250 C 
ATOM     13  C   LIG    1        2.574   7.745   3.858  0.00  0.00    +0.050 C 
ATOM     14  C   LIG    1        4.000   7.523   3.304  0.00  0.00    +0.040 C 
ATOM     15  C   LIG    1        3.798   7.355   1.814  0.00  0.00    +0.510 C 
ATOM     16  O   LIG    1        4.674   7.439   0.980  0.00  0.00    -0.540 OA
ATOM     17  N   LIG    1        2.505   7.101   1.550  0.00  0.00    -0.720 N 
ATOM     18  H   LIG    1        2.145   6.964   0.659  0.00  0.00    +0.420 HD
ENDBRANCH  11  12
ENDBRANCH   9  11
ENDBRANCH   3   7
BRANCH   1  19
ATOM     19  N   LIG    1       -2.750   1.646  -0.225  0.00  0.00    -0.680 N 
ATOM     20  H   LIG    1       -2.202   2.065  -0.906  0.00  0.00    +0.410 HD
BRANCH  19  25
ATOM     21  C   LIG    1       -5.606   0.747  -2.154  0.00  0.00    +0.400 A 
ATOM     22  C   LIG    1       -6.403   0.141  -1.183  0.00  0.00    -0.150 A 
ATOM     23  C   LIG    1       -5.923   0.065   0.111  0.00  0.00    +0.400 A 
ATOM     24  N   LIG    1       -4.729   0.565   0.389  0.00  0.00    -0.590 NA
ATOM     25  C   LIG    1       -3.994   1.135  -0.554  0.00  0.00    +0.600 A 
ATOM     26  N   LIG    1       -4.421   1.232  -1.804  0.00  0.00    -0.620 NA
BRANCH  21  28
ATOM     27  C   LIG    1       -5.162   1.477  -4.369  0.00  0.00    +0.260 C 
ATOM     28  O   LIG    1       -6.038   0.843  -3.435  0.00  0.00    -0.300 OA
ENDBRANCH  21  28
ENDBRANCH  19  25
ENDBRANCH   1  19
TORSDOF 6
