REMARK  Name = ZINC650000002JuA.0
REMARK                            x       y       z     vdW  Elec       q    Type
REMARK                         _______ _______ _______ _____ _____    ______ ____
ROOT
ATOM      1  C   LIG    1        1.286   1.562  -0.002  0.00  0.00    +0.190 C 
ATOM      2  C   LIG    1        2.025   1.222  -1.317  0.00  0.00    +0.050 C 
ATOM      3  C   LIG    1        1.763   2.473  -2.194  0.00  0.00    +0.280 C 
ATOM      4  N   LIG    1        1.829   3.591  -1.219  0.00  0.00    -0.520 N 
ATOM      5  H   LIG    1        2.790   3.827  -1.024  0.00  0.00    +0.430 HD
ATOM      6  H   LIG    1        1.338   4.396  -1.579  0.00  0.00    +0.440 HD
ATOM      7  C   LIG    1        1.166   3.097   0.008  0.00  0.00    +0.290 C 
ENDROOT
BRANCH   1   8
ATOM      8  O   LIG    1       -0.011   0.963   0.007  0.00  0.00    -0.560 OA
ATOM      9  H   LIG    1        0.002  -0.004   0.002  0.00  0.00    +0.400 HD
ENDBRANCH   1   8
TORSDOF 1
