REMARK  Name = ZINCAx0000000eMf.0
REMARK                            x       y       z     vdW  Elec       q    Type
REMARK                         _______ _______ _______ _____ _____    ______ ____
ROOT
ATOM      1  O   LIG    1       -2.277   4.383   1.080  0.00  0.00    -0.340 OA
ENDROOT
BRANCH   1   2
ATOM      2  C   LIG    1       -1.281   3.484   1.053  0.00  0.00    +0.480 C 
ATOM      3  O   LIG    1       -0.286   3.664   1.714  0.00  0.00    -0.480 OA
BRANCH   2   4
ATOM      4  C   LIG    1       -1.403   2.249   0.197  0.00  0.00    +0.320 C 
BRANCH   4   5
ATOM      5  C   LIG    1       -1.572   2.659  -1.267  0.00  0.00    +0.170 C 
ATOM      6  C   LIG    1       -2.898   3.403  -1.439  0.00  0.00    +0.040 C 
BRANCH   5   7
ATOM      7  O   LIG    1       -0.493   3.513  -1.651  0.00  0.00    -0.560 OA
ATOM      8  H   LIG    1       -0.535   3.812  -2.569  0.00  0.00    +0.390 HD
ENDBRANCH   5   7
ENDBRANCH   4   5
BRANCH   4   9
ATOM      9  N   LIG    1       -0.194   1.435   0.340  0.00  0.00    -1.100 NA
ATOM     10  H   LIG    1        0.669   1.863   0.453  0.00  0.00    +0.430 HD
BRANCH   9  11
ATOM     11  S   LIG    1       -0.300  -0.218   0.302  0.00  0.00    +2.700 S 
ATOM     12  O   LIG    1       -1.345  -0.574   1.197  0.00  0.00    -0.950 OA
ATOM     13  O   LIG    1        1.028  -0.708   0.424  0.00  0.00    -0.940 OA
BRANCH  11  14
ATOM     14  C   LIG    1       -0.851  -0.668  -1.310  0.00  0.00    -0.680 A 
ATOM     15  C   LIG    1       -2.204  -0.786  -1.570  0.00  0.00    +0.140 A 
ATOM     16  C   LIG    1       -2.637  -1.134  -2.835  0.00  0.00    +0.020 A 
ATOM     17  C   LIG    1       -1.716  -1.376  -3.839  0.00  0.00    +0.020 A 
ATOM     18  C   LIG    1       -0.362  -1.263  -3.577  0.00  0.00    +0.020 A 
ATOM     19 CL   LIG    1       -2.259  -1.822  -5.427  0.00  0.00    -0.050 Cl
ATOM     20  C   LIG    1        0.069  -0.909  -2.312  0.00  0.00    +0.150 A 
ENDBRANCH  11  14
ENDBRANCH   9  11
ENDBRANCH   4   9
ENDBRANCH   2   4
ENDBRANCH   1   2
BRANCH   1  21
ATOM     21  C   LIG    1       -2.091   5.548   1.927  0.00  0.00    +0.320 C 
BRANCH  21  26
ATOM     22  C   LIG    1       -3.565  10.060   4.000  0.00  0.00    +0.220 A 
ATOM     23  C   LIG    1       -2.426   9.263   4.115  0.00  0.00    -0.010 A 
ATOM     24  C   LIG    1       -2.330   8.092   3.420  0.00  0.00    +0.110 A 
ATOM     25  C   LIG    1       -3.380   7.689   2.587  0.00  0.00    -0.160 A 
ATOM     26  C   LIG    1       -3.303   6.438   1.830  0.00  0.00    +0.020 A 
ATOM     27  C   LIG    1       -4.352   6.105   1.033  0.00  0.00    -0.060 A 
ATOM     28  C   LIG    1       -5.476   6.952   0.963  0.00  0.00    +0.510 A 
ATOM     29  O   LIG    1       -5.541   8.098   1.660  0.00  0.00    -0.270 OA
ATOM     30  O   LIG    1       -6.412   6.639   0.248  0.00  0.00    -0.450 OA
ATOM     31  C   LIG    1       -4.531   8.490   2.466  0.00  0.00    +0.180 A 
ATOM     32  C   LIG    1       -4.614   9.676   3.178  0.00  0.00    +0.020 A 
BRANCH  22  34
ATOM     33  C   LIG    1       -4.840  11.681   5.180  0.00  0.00    +0.650 C 
ATOM     34  N   LIG    1       -3.648  11.255   4.717  0.00  0.00    -0.650 N 
ATOM     35  H   LIG    1       -2.849  11.778   4.881  0.00  0.00    +0.430 HD
ATOM     36  O   LIG    1       -5.825  10.979   5.058  0.00  0.00    -0.540 OA
BRANCH  33  37
ATOM     37  O   LIG    1       -4.940  12.883   5.777  0.00  0.00    -0.360 OA
BRANCH  37  39
ATOM     38  C   LIG    1       -6.170  14.661   6.897  0.00  0.00    +0.080 C 
ATOM     39  C   LIG    1       -6.254  13.277   6.252  0.00  0.00    +0.240 C 
ENDBRANCH  37  39
ENDBRANCH  33  37
ENDBRANCH  22  34
ENDBRANCH  21  26
ENDBRANCH   1  21
TORSDOF 12
