REMARK  Name = ZINCvU00000008Bu.0
REMARK                            x       y       z     vdW  Elec       q    Type
REMARK                         _______ _______ _______ _____ _____    ______ ____
ROOT
ATOM      1  N   LIG    1        0.354  -1.740   3.375  0.00  0.00    -0.400 N 
ATOM      2  C   LIG    1       -0.102  -0.759   2.539  0.00  0.00    +0.160 A 
ATOM      3  N   LIG    1       -0.754  -1.352   1.562  0.00  0.00    -0.280 NA
ATOM      4  N   LIG    1       -0.742  -2.626   1.732  0.00  0.00    -0.250 NA
ATOM      5  C   LIG    1       -0.082  -2.927   2.827  0.00  0.00    +0.230 A 
ENDROOT
BRANCH   1  12
ATOM      6  C   LIG    1        3.193  -1.734   3.164  0.00  0.00    +0.100 C 
ATOM      7  C   LIG    1        2.493  -1.564   4.488  0.00  0.00    -0.050 A 
ATOM      8  C   LIG    1        3.230  -1.399   5.644  0.00  0.00    +0.030 A 
ATOM      9  C   LIG    1        2.589  -1.242   6.859  0.00  0.00    +0.050 A 
ATOM     10  C   LIG    1        1.208  -1.250   6.920  0.00  0.00    +0.030 A 
ATOM     11  C   LIG    1        0.464  -1.410   5.767  0.00  0.00    +0.040 A 
ATOM     12  C   LIG    1        1.105  -1.573   4.547  0.00  0.00    +0.090 A 
ENDBRANCH   1  12
BRANCH   5  13
ATOM     13  C   LIG    1        0.153  -4.282   3.366  0.00  0.00    +0.030 A 
ATOM     14  C   LIG    1        0.598  -4.466   4.682  0.00  0.00    -0.020 A 
ATOM     15  C   LIG    1        0.799  -5.749   5.146  0.00  0.00    +0.270 A 
ATOM     16  N   LIG    1        0.589  -6.792   4.365  0.00  0.00    -0.470 NA
ATOM     17  C   LIG    1        0.176  -6.663   3.119  0.00  0.00    +0.280 A 
ATOM     18  C   LIG    1       -0.056  -5.418   2.575  0.00  0.00    +0.020 A 
ENDBRANCH   5  13
BRANCH   2  19
ATOM     19  S   LIG    1        0.145   0.975   2.729  0.00  0.00    +0.100 S 
BRANCH  19  20
ATOM     20  C   LIG    1       -0.725   1.579   1.261  0.00  0.00    +0.020 C 
ATOM     21  C   LIG    1       -0.002   1.094   0.003  0.00  0.00    +0.090 C 
BRANCH  20  22
ATOM     22  C   LIG    1       -0.750   3.086   1.276  0.00  0.00    +0.540 C 
ATOM     23  N   LIG    1       -1.721   3.751   0.618  0.00  0.00    -0.660 N 
ATOM     24  H   LIG    1       -2.363   3.263   0.080  0.00  0.00    +0.420 HD
ATOM     25  O   LIG    1        0.103   3.700   1.881  0.00  0.00    -0.500 OA
BRANCH  23  26
ATOM     26  C   LIG    1       -1.801   5.145   0.712  0.00  0.00    +0.150 A 
ATOM     27  C   LIG    1       -3.041   5.771   0.710  0.00  0.00    +0.010 A 
ATOM     28  C   LIG    1       -3.117   7.147   0.806  0.00  0.00    +0.050 A 
ATOM     29  C   LIG    1       -1.961   7.901   0.896  0.00  0.00    -0.050 A 
ATOM     30  C   LIG    1       -0.724   7.280   0.893  0.00  0.00    +0.050 A 
ATOM     31 CL   LIG    1       -2.061   9.631   1.011  0.00  0.00    -0.070 Cl
ATOM     32  C   LIG    1       -0.642   5.904   0.801  0.00  0.00    +0.040 A 
ENDBRANCH  23  26
ENDBRANCH  20  22
ENDBRANCH  19  20
ENDBRANCH   2  19
TORSDOF 6
