REMARK  Name = ZINCpe00000VVGl1.0
REMARK                            x       y       z     vdW  Elec       q    Type
REMARK                         _______ _______ _______ _____ _____    ______ ____
ROOT
ATOM      1  C   LIG    1       -3.363  -3.090   2.478  0.00  0.00    +0.360 C 
ATOM      2  N   LIG    1       -4.104  -1.826   2.470  0.00  0.00    -0.530 N 
ATOM      3  C   LIG    1       -4.746  -1.425   3.598  0.00  0.00    +0.460 A 
ATOM      4  C   LIG    1       -5.445  -0.234   3.592  0.00  0.00    -0.330 A 
ATOM      5  C   LIG    1       -5.462   0.553   2.348  0.00  0.00    +0.570 A 
ATOM      6  N   LIG    1       -4.795   0.077   1.275  0.00  0.00    -0.550 N 
ATOM      7  O   LIG    1       -6.062   1.609   2.289  0.00  0.00    -0.510 OA
ATOM      8  C   LIG    1       -4.138  -1.093   1.346  0.00  0.00    +0.690 A 
ATOM      9  O   LIG    1       -3.550  -1.498   0.362  0.00  0.00    -0.500 OA
ENDROOT
BRANCH   4  10
ATOM     10  C   LIG    1       -6.153   0.234   4.793  0.00  0.00    +0.600 C 
ATOM     11  O   LIG    1       -6.214  -0.476   5.778  0.00  0.00    -0.560 OA
ATOM     12  N   LIG    1       -6.733   1.451   4.802  0.00  0.00    -0.840 N 
ATOM     13  H   LIG    1       -7.135   1.790   5.617  0.00  0.00    +0.400 HD
ATOM     14  H   LIG    1       -6.748   1.987   3.994  0.00  0.00    +0.410 HD
ENDBRANCH   4  10
BRANCH   6  15
ATOM     15  C   LIG    1       -4.794   0.838   0.023  0.00  0.00    +0.350 C 
BRANCH  15  16
ATOM     16  C   LIG    1       -3.607   1.803   0.014  0.00  0.00    +0.200 C 
BRANCH  16  17
ATOM     17  O   LIG    1       -2.387   1.058   0.005  0.00  0.00    -0.300 OA
BRANCH  17  18
ATOM     18  C   LIG    1       -1.230   1.769  -0.004  0.00  0.00    +0.130 A 
ATOM     19  C   LIG    1       -0.034   1.109  -0.013  0.00  0.00    -0.020 A 
ATOM     20  C   LIG    1        1.164   1.844  -0.028  0.00  0.00    -0.010 A 
ATOM     21  C   LIG    1        2.413   1.200  -0.043  0.00  0.00    +0.010 A 
ATOM     22  C   LIG    1        3.553   1.943  -0.057  0.00  0.00    +0.020 A 
ATOM     23  C   LIG    1        3.502   3.336  -0.056  0.00  0.00    -0.010 A 
ATOM     24  C   LIG    1        2.310   3.993  -0.042  0.00  0.00    +0.040 A 
ATOM     25  C   LIG    1        1.112   3.260  -0.027  0.00  0.00    -0.080 A 
ATOM     26  C   LIG    1       -0.137   3.906  -0.012  0.00  0.00    +0.070 A 
ATOM     27  C   LIG    1       -1.278   3.167   0.002  0.00  0.00    -0.060 A 
ENDBRANCH  17  18
ENDBRANCH  16  17
ENDBRANCH  15  16
ENDBRANCH   6  15
TORSDOF 5
