REMARK  Name = ZINCnE000001TCNN.0
REMARK                            x       y       z     vdW  Elec       q    Type
REMARK                         _______ _______ _______ _____ _____    ______ ____
ROOT
ATOM      1  C   LIG    1       -3.175   0.937  -0.387  0.00  0.00    +0.610 C 
ATOM      2  N   LIG    1       -2.210   0.987  -1.326  0.00  0.00    -0.610 N 
ATOM      3  C   LIG    1       -2.289   0.390  -2.672  0.00  0.00    +0.260 C 
ATOM      4  C   LIG    1       -1.291   1.209  -3.528  0.00  0.00    +0.040 C 
ATOM      5  C   LIG    1       -0.147   1.468  -2.512  0.00  0.00    +0.030 C 
ATOM      6  C   LIG    1       -0.903   1.646  -1.179  0.00  0.00    +0.220 C 
ATOM      7  O   LIG    1       -3.050   1.564   0.647  0.00  0.00    -0.500 OA
ENDROOT
BRANCH   1  11
ATOM      8  C   LIG    1       -5.828  -1.227  -1.570  0.00  0.00    -0.010 A 
ATOM      9  C   LIG    1       -6.354  -0.872  -0.348  0.00  0.00    -0.060 A 
ATOM     10  C   LIG    1       -5.426  -0.014   0.256  0.00  0.00    +0.020 A 
ATOM     11  C   LIG    1       -4.382   0.120  -0.613  0.00  0.00    -0.110 A 
ATOM     12  O   LIG    1       -4.639  -0.611  -1.711  0.00  0.00    -0.140 OA
BRANCH   8  14
ATOM     13  O   LIG    1       -7.550  -2.618  -2.315  0.00  0.00    -0.650 OA
ATOM     14  C   LIG    1       -6.458  -2.119  -2.553  0.00  0.00    +0.560 C 
ATOM     15  O   LIG    1       -5.892  -2.361  -3.611  0.00  0.00    -0.660 OA
ENDBRANCH   8  14
ENDBRANCH   1  11
BRANCH   6  16
ATOM     16  C   LIG    1       -0.116   0.990  -0.042  0.00  0.00    +0.080 C 
BRANCH  16  17
ATOM     17  C   LIG    1       -0.798   1.274   1.271  0.00  0.00    -0.040 A 
ATOM     18  C   LIG    1       -1.494   0.271   1.919  0.00  0.00    +0.040 A 
ATOM     19  C   LIG    1       -2.120   0.532   3.124  0.00  0.00    +0.020 A 
ATOM     20  C   LIG    1       -2.052   1.795   3.680  0.00  0.00    +0.010 A 
ATOM     21  C   LIG    1       -1.357   2.799   3.033  0.00  0.00    +0.010 A 
ATOM     22  C   LIG    1       -0.725   2.538   1.830  0.00  0.00    -0.020 A 
ATOM     23 CL   LIG    1        0.155   3.796   1.020  0.00  0.00    -0.090 Cl
ENDBRANCH  16  17
ENDBRANCH   6  16
TORSDOF 4
