REMARK  Name = ZINCqH0000036hmC.1
REMARK                            x       y       z     vdW  Elec       q    Type
REMARK                         _______ _______ _______ _____ _____    ______ ____
ROOT
ATOM      1  C   LIG    1       -1.176  -2.185   0.002  0.00  0.00    +0.230 C 
ATOM      2  C   LIG    1       -1.065  -2.687  -1.440  0.00  0.00    +0.020 C 
ATOM      3  C   LIG    1       -1.105  -4.217  -1.447  0.00  0.00    +0.160 C 
ATOM      4  N   LIG    1       -2.363  -4.678  -0.845  0.00  0.00    -0.530 NA
ATOM      5  C   LIG    1       -2.470  -4.247   0.555  0.00  0.00    +0.190 C 
ATOM      6  C   LIG    1       -2.471  -2.718   0.622  0.00  0.00    +0.040 C 
ENDROOT
BRANCH   1   7
ATOM      7  N   LIG    1       -1.197  -0.720   0.010  0.00  0.00    -0.740 N 
ATOM      8  H   LIG    1       -2.044  -0.247   0.021  0.00  0.00    +0.400 HD
BRANCH   7  13
ATOM      9  C   LIG    1        1.176   2.090   0.002  0.00  0.00    +0.170 A 
ATOM     10  C   LIG    1        2.385   1.409  -0.013  0.00  0.00    -0.150 A 
ATOM     11  C   LIG    1        2.402   0.027  -0.020  0.00  0.00    +0.090 A 
ATOM     12  C   LIG    1        1.216  -0.680  -0.013  0.00  0.00    -0.110 A 
ATOM     13  C   LIG    1        0.002  -0.004   0.002  0.00  0.00    +0.250 A 
ATOM     14  C   LIG    1       -0.017   1.384   0.010  0.00  0.00    -0.100 A 
BRANCH   9  16
ATOM     15  C   LIG    1        2.427   4.112   0.001  0.00  0.00    +0.250 C 
ATOM     16  O   LIG    1        1.161   3.449   0.009  0.00  0.00    -0.320 OA
ENDBRANCH   9  16
ENDBRANCH   7  13
ENDBRANCH   1   7
BRANCH   4  17
ATOM     17  C   LIG    1       -2.498  -6.136  -0.959  0.00  0.00    +0.270 C 
BRANCH  17  18
ATOM     18  C   LIG    1       -2.141  -6.565  -2.359  0.00  0.00    +0.110 A 
ATOM     19  N   LIG    1       -3.056  -6.535  -3.300  0.00  0.00    -0.400 NA
ATOM     20  C   LIG    1       -2.740  -6.911  -4.545  0.00  0.00    +0.080 A 
ATOM     21  C   LIG    1       -3.694  -6.885  -5.576  0.00  0.00    +0.060 A 
ATOM     22  C   LIG    1       -3.343  -7.278  -6.830  0.00  0.00    +0.040 A 
ATOM     23  C   LIG    1       -2.047  -7.708  -7.110  0.00  0.00    +0.040 A 
ATOM     24  C   LIG    1       -1.096  -7.747  -6.137  0.00  0.00    +0.060 A 
ATOM     25  C   LIG    1       -1.422  -7.348  -4.829  0.00  0.00    +0.070 A 
ATOM     26  N   LIG    1       -0.509  -7.375  -3.852  0.00  0.00    -0.420 NA
ATOM     27  C   LIG    1       -0.843  -6.996  -2.640  0.00  0.00    +0.250 A 
ENDBRANCH  17  18
ENDBRANCH   4  17
TORSDOF 5
