REMARK  Name = ZINCtV00001bB3kB.0
REMARK                            x       y       z     vdW  Elec       q    Type
REMARK                         _______ _______ _______ _____ _____    ______ ____
ROOT
ATOM      1  N   LIG    1        4.698   0.943  -0.107  0.00  0.00    -0.390 N 
ATOM      2  C   LIG    1        3.783  -0.071   0.003  0.00  0.00    +0.210 A 
ATOM      3  C   LIG    1        4.251  -1.321   0.131  0.00  0.00    -0.020 A 
ATOM      4  S   LIG    1        6.018  -1.179   0.115  0.00  0.00    -0.020 S 
ATOM      5  C   LIG    1        6.020   0.585  -0.066  0.00  0.00    +0.370 A 
ATOM      6  N   LIG    1        7.061   1.375  -0.147  0.00  0.00    -0.540 NA
ENDROOT
BRANCH   2   7
ATOM      7  C   LIG    1        2.334   0.201  -0.025  0.00  0.00    -0.160 A 
ATOM      8  C   LIG    1        1.365  -0.737  -0.078  0.00  0.00    +0.050 A 
ATOM      9  C   LIG    1        0.079  -0.236  -0.096  0.00  0.00    +0.000 A 
ATOM     10  C   LIG    1       -0.010   1.096  -0.058  0.00  0.00    -0.070 A 
ATOM     11  S   LIG    1        1.601   1.800   0.005  0.00  0.00    +0.200 S 
ENDBRANCH   2   7
BRANCH   1  13
ATOM     12  C   LIG    1        4.545   2.914  -1.357  0.00  0.00    +0.320 C 
ATOM     13  N   LIG    1        4.301   2.280  -0.250  0.00  0.00    -0.230 NA
BRANCH  12  20
ATOM     14  C   LIG    1        3.692   5.040  -0.372  0.00  0.00    +0.190 A 
ATOM     15  C   LIG    1        3.397   6.388  -0.487  0.00  0.00    -0.070 A 
ATOM     16  C   LIG    1        3.628   7.049  -1.678  0.00  0.00    +0.120 A 
ATOM     17  C   LIG    1        4.156   6.371  -2.764  0.00  0.00    -0.140 A 
ATOM     18  C   LIG    1        4.462   5.029  -2.665  0.00  0.00    +0.140 A 
ATOM     19 BR   LIG    1        4.467   7.290  -4.388  0.00  0.00    -0.040 Br
ATOM     20  C   LIG    1        4.227   4.349  -1.468  0.00  0.00    -0.100 A 
BRANCH  14  22
ATOM     21  C   LIG    1        2.824   5.131   1.839  0.00  0.00    +0.250 C 
ATOM     22  O   LIG    1        3.464   4.389   0.799  0.00  0.00    -0.270 OA
ENDBRANCH  14  22
ENDBRANCH  12  20
ENDBRANCH   1  13
BRANCH   6  23
ATOM     23  C   LIG    1        8.413   0.814  -0.091  0.00  0.00    +0.270 C 
BRANCH  23  24
ATOM     24  C   LIG    1        9.107   1.041  -1.409  0.00  0.00    -0.080 A 
ATOM     25  C   LIG    1        9.012   0.095  -2.413  0.00  0.00    +0.010 A 
ATOM     26  C   LIG    1        9.644   0.306  -3.623  0.00  0.00    +0.000 A 
ATOM     27  C   LIG    1       10.381   1.458  -3.827  0.00  0.00    +0.000 A 
ATOM     28  C   LIG    1       10.481   2.401  -2.821  0.00  0.00    +0.000 A 
ATOM     29  C   LIG    1        9.844   2.193  -1.612  0.00  0.00    +0.020 A 
ENDBRANCH  23  24
ENDBRANCH   6  23
TORSDOF 6
