REMARK  Name = ZINCrH000004o1NJ.0
REMARK                            x       y       z     vdW  Elec       q    Type
REMARK                         _______ _______ _______ _____ _____    ______ ____
ROOT
ATOM      1  N   LIG    1        3.826   1.076   1.460  0.00  0.00    -0.500 NA
ATOM      2  C   LIG    1        3.270   2.297   0.862  0.00  0.00    +0.210 C 
ENDROOT
BRANCH   1   4
ATOM      3  C   LIG    1        2.645  -0.592   0.111  0.00  0.00    +0.030 C 
ATOM      4  C   LIG    1        2.818   0.008   1.507  0.00  0.00    +0.190 C 
BRANCH   4   5
ATOM      5  C   LIG    1        3.269  -1.067   2.463  0.00  0.00    +0.520 C 
ATOM      6  N   LIG    1        2.463  -2.114   2.729  0.00  0.00    -0.670 N 
ATOM      7  H   LIG    1        1.563  -2.136   2.370  0.00  0.00    +0.410 HD
ATOM      8  O   LIG    1        4.358  -0.989   2.993  0.00  0.00    -0.490 OA
BRANCH   6   9
ATOM      9  C   LIG    1        2.924  -3.165   3.530  0.00  0.00    +0.140 A 
ATOM     10  C   LIG    1        2.526  -4.469   3.260  0.00  0.00    +0.010 A 
ATOM     11  C   LIG    1        2.983  -5.513   4.043  0.00  0.00    +0.040 A 
ATOM     12  C   LIG    1        3.827  -5.265   5.106  0.00  0.00    +0.060 A 
ATOM     13  C   LIG    1        4.228  -3.958   5.390  0.00  0.00    -0.010 A 
ATOM     14  C   LIG    1        3.772  -2.906   4.595  0.00  0.00    +0.080 A 
BRANCH  13  15
ATOM     15  C   LIG    1        5.103  -3.698   6.493  0.00  0.00    +0.250 C 
ATOM     16  N   LIG    1        5.798  -3.491   7.368  0.00  0.00    -0.410 NA
ENDBRANCH  13  15
ENDBRANCH   6   9
ENDBRANCH   4   5
ENDBRANCH   1   4
BRANCH   1  17
ATOM     17  C   LIG    1        5.027   0.635   0.738  0.00  0.00    +0.230 C 
BRANCH  17  18
ATOM     18  C   LIG    1        6.123   1.653   0.918  0.00  0.00    +0.510 C 
ATOM     19  N   LIG    1        7.325   1.458   0.341  0.00  0.00    -0.680 N 
ATOM     20  H   LIG    1        7.461   0.704  -0.254  0.00  0.00    +0.410 HD
ATOM     21  O   LIG    1        5.924   2.648   1.583  0.00  0.00    -0.480 OA
BRANCH  19  22
ATOM     22  C   LIG    1        8.378   2.344   0.600  0.00  0.00    +0.160 A 
ATOM     23  C   LIG    1        8.179   3.714   0.487  0.00  0.00    -0.020 A 
ATOM     24  C   LIG    1        9.219   4.586   0.749  0.00  0.00    +0.050 A 
ATOM     25  C   LIG    1       10.460   4.096   1.112  0.00  0.00    +0.050 A 
ATOM     26  C   LIG    1       10.663   2.732   1.220  0.00  0.00    +0.050 A 
ATOM     27 CL   LIG    1        6.624   4.331   0.023  0.00  0.00    -0.030 Cl
ATOM     28  C   LIG    1        9.626   1.855   0.965  0.00  0.00    -0.050 A 
ATOM     29 CL   LIG    1        9.883   0.143   1.101  0.00  0.00    -0.050 Cl
ENDBRANCH  19  22
ENDBRANCH  17  18
ENDBRANCH   1  17
TORSDOF 7
