REMARK  Name = ZINCpe00000bcWGN.0
REMARK                            x       y       z     vdW  Elec       q    Type
REMARK                         _______ _______ _______ _____ _____    ______ ____
ROOT
ATOM      1  C   LIG    1        2.139  -3.648  -5.423  0.00  0.00    +0.130 A 
ATOM      2  C   LIG    1        2.684  -4.902  -5.674  0.00  0.00    +0.040 A 
ATOM      3  C   LIG    1        2.942  -5.771  -4.633  0.00  0.00    +0.010 A 
ATOM      4  C   LIG    1        2.658  -5.398  -3.327  0.00  0.00    +0.160 A 
ATOM      5  C   LIG    1        2.109  -4.135  -3.067  0.00  0.00    -0.150 A 
ATOM      6  C   LIG    1        1.846  -3.264  -4.125  0.00  0.00    +0.070 A 
ENDROOT
BRANCH   1   8
ATOM      7  C   LIG    1        2.010  -1.442  -6.309  0.00  0.00    +0.540 C 
ATOM      8  N   LIG    1        1.881  -2.773  -6.485  0.00  0.00    -0.670 N 
ATOM      9  H   LIG    1        1.610  -3.124  -7.348  0.00  0.00    +0.420 HD
ATOM     10  O   LIG    1        2.441  -1.007  -5.259  0.00  0.00    -0.520 OA
BRANCH   7  12
ATOM     11  C   LIG    1        1.755   0.795  -7.214  0.00  0.00    +0.150 C 
ATOM     12  C   LIG    1        1.629  -0.518  -7.388  0.00  0.00    -0.090 C 
ENDBRANCH   7  12
ENDBRANCH   1   8
BRANCH   5  13
ATOM     13  C   LIG    1        1.804  -3.731  -1.681  0.00  0.00    +0.570 C 
ATOM     14  N   LIG    1        1.276  -2.516  -1.433  0.00  0.00    -0.720 N 
ATOM     15  H   LIG    1        1.097  -1.907  -2.167  0.00  0.00    +0.400 HD
ATOM     16  O   LIG    1        2.030  -4.495  -0.761  0.00  0.00    -0.510 OA
BRANCH  14  17
ATOM     17  C   LIG    1        0.974  -2.115  -0.057  0.00  0.00    +0.430 C 
BRANCH  17  18
ATOM     18  C   LIG    1        0.397  -0.723  -0.055  0.00  0.00    +0.260 A 
ATOM     19  N   LIG    1        1.094   0.384   0.044  0.00  0.00    -0.310 NA
ATOM     20  N   LIG    1        0.182   1.447   0.006  0.00  0.00    -0.330 N 
ATOM     21  C   LIG    1        0.321   2.798   0.066  0.00  0.00    +0.360 A 
ATOM     22  C   LIG    1       -0.788   3.578  -0.000  0.00  0.00    -0.040 A 
ATOM     23  C   LIG    1       -2.044   2.972  -0.128  0.00  0.00    +0.400 A 
ATOM     24  N   LIG    1       -2.147   1.663  -0.178  0.00  0.00    -0.450 NA
ATOM     25  C   LIG    1       -1.058   0.887  -0.119  0.00  0.00    +0.440 A 
ATOM     26  N   LIG    1       -0.893  -0.430  -0.153  0.00  0.00    -0.510 NA
ENDBRANCH  17  18
ENDBRANCH  14  17
ENDBRANCH   5  13
BRANCH   4  27
ATOM     27  O   LIG    1        2.912  -6.254  -2.305  0.00  0.00    -0.480 OA
ATOM     28  H   LIG    1        2.173  -6.839  -2.089  0.00  0.00    +0.400 HD
ENDBRANCH   4  27
TORSDOF 6
