REMARK  Name = ZINCqH0000005cDo.0
REMARK                            x       y       z     vdW  Elec       q    Type
REMARK                         _______ _______ _______ _____ _____    ______ ____
ROOT
ATOM      1  C   LIG    1        3.965  -0.904  -0.038  0.00  0.00    +0.440 A 
ATOM      2  N   LIG    1        4.491   0.289  -0.037  0.00  0.00    -0.550 NA
ATOM      3  C   LIG    1        3.724   1.392  -0.024  0.00  0.00    +0.540 A 
ATOM      4  C   LIG    1        2.256   1.232  -0.012  0.00  0.00    -0.210 A 
ATOM      5  C   LIG    1        1.755  -0.052  -0.015  0.00  0.00    +0.050 A 
ATOM      6  S   LIG    1        0.002  -0.004   0.002  0.00  0.00    +0.200 S 
ATOM      7  C   LIG    1       -0.022   1.759   0.012  0.00  0.00    -0.220 A 
ATOM      8  C   LIG    1       -1.052   2.884   0.033  0.00  0.00    +0.130 C 
ATOM      9  C   LIG    1       -0.265   4.133   0.475  0.00  0.00    +0.050 C 
ATOM     10  C   LIG    1        1.162   3.782   0.010  0.00  0.00    +0.110 C 
ATOM     11  C   LIG    1        1.209   2.254   0.003  0.00  0.00    -0.050 A 
ATOM     12  O   LIG    1        4.230   2.503  -0.023  0.00  0.00    -0.480 OA
ATOM     13  N   LIG    1        2.639  -1.112  -0.028  0.00  0.00    -0.590 N 
ATOM     14  H   LIG    1        2.297  -2.020  -0.030  0.00  0.00    +0.420 HD
ENDROOT
BRANCH   1  15
ATOM     15  C   LIG    1        4.883  -2.099  -0.053  0.00  0.00    +0.300 C 
BRANCH  15  17
ATOM     16  C   LIG    1        6.596  -0.944  -1.315  0.00  0.00    +0.200 C 
ATOM     17  N   LIG    1        6.279  -1.643  -0.062  0.00  0.00    -0.510 NA
BRANCH  17  18
ATOM     18  C   LIG    1        7.201  -2.765   0.162  0.00  0.00    +0.200 C 
BRANCH  18  19
ATOM     19  C   LIG    1        8.614  -2.225   0.393  0.00  0.00    +0.200 C 
BRANCH  19  20
ATOM     20  O   LIG    1        8.642  -1.466   1.603  0.00  0.00    -0.290 OA
BRANCH  20  21
ATOM     21  C   LIG    1        9.832  -0.913   1.958  0.00  0.00    +0.150 A 
ATOM     22  C   LIG    1       10.950  -1.102   1.160  0.00  0.00    -0.080 A 
ATOM     23  C   LIG    1       12.158  -0.535   1.520  0.00  0.00    +0.080 A 
ATOM     24  C   LIG    1       12.254   0.213   2.679  0.00  0.00    -0.130 A 
ATOM     25  C   LIG    1       11.140   0.398   3.479  0.00  0.00    +0.090 A 
ATOM     26 BR   LIG    1       13.909   0.982   3.173  0.00  0.00    -0.050 Br
ATOM     27  C   LIG    1        9.930  -0.163   3.120  0.00  0.00    -0.010 A 
ENDBRANCH  20  21
ENDBRANCH  19  20
ENDBRANCH  18  19
ENDBRANCH  17  18
ENDBRANCH  15  17
ENDBRANCH   1  15
TORSDOF 6
