REMARK  Name = ZINCkj00000vuEd6.0
REMARK                            x       y       z     vdW  Elec       q    Type
REMARK                         _______ _______ _______ _____ _____    ______ ____
ROOT
ATOM      1  O   LIG    1        0.306  -2.831  -0.016  0.00  0.00    -0.470 OA
ATOM      2  C   LIG    1        1.312  -2.143  -0.021  0.00  0.00    +0.540 A 
ATOM      3  N   LIG    1        2.535  -2.705  -0.036  0.00  0.00    -0.580 NA
ATOM      4  C   LIG    1        3.622  -1.983  -0.042  0.00  0.00    +0.450 A 
ATOM      5  N   LIG    1        3.618  -0.639  -0.036  0.00  0.00    -0.620 N 
ATOM      6  H   LIG    1        4.459  -0.155  -0.042  0.00  0.00    +0.430 HD
ATOM      7  C   LIG    1        2.426   0.059  -0.021  0.00  0.00    +0.170 A 
ATOM      8  C   LIG    1        2.387   1.446  -0.013  0.00  0.00    +0.010 A 
ATOM      9  C   LIG    1        1.171   2.095   0.002  0.00  0.00    +0.110 A 
ATOM     10  C   LIG    1       -0.017   1.375   0.010  0.00  0.00    -0.060 A 
ATOM     11  C   LIG    1        0.002  -0.004   0.002  0.00  0.00    +0.140 A 
ATOM     12 CL   LIG    1       -1.535   2.217   0.021  0.00  0.00    -0.040 Cl
ATOM     13  C   LIG    1        1.224  -0.672  -0.013  0.00  0.00    -0.200 A 
ENDROOT
BRANCH   4  14
ATOM     14  C   LIG    1        4.951  -2.694  -0.058  0.00  0.00    +0.320 C 
BRANCH  14  15
ATOM     15  N   LIG    1        4.729  -4.146  -0.064  0.00  0.00    -0.540 NA
ATOM     16  C   LIG    1        5.924  -4.835  -0.305  0.00  0.00    +0.200 C 
ATOM     17  C   LIG    1        5.673  -6.347  -0.508  0.00  0.00    +0.080 C 
ATOM     18  C   LIG    1        5.406  -6.978   0.835  0.00  0.00    +0.240 C 
ATOM     19  N   LIG    1        3.966  -7.051   1.167  0.00  0.00    -0.520 N 
ATOM     20  C   LIG    1        3.230  -5.823   0.811  0.00  0.00    +0.290 C 
ATOM     21  H   LIG    1        3.869  -7.211   2.159  0.00  0.00    +0.430 HD
ATOM     22  H   LIG    1        3.558  -7.830   0.672  0.00  0.00    +0.430 HD
ATOM     23  C   LIG    1        4.008  -4.576   1.152  0.00  0.00    +0.220 C 
ENDBRANCH  14  15
ENDBRANCH   4  14
TORSDOF 2
