REMARK  Name = ZINCpk000000n1bF.0
REMARK                            x       y       z     vdW  Elec       q    Type
REMARK                         _______ _______ _______ _____ _____    ______ ____
ROOT
ATOM      1  C   LIG    1        1.656   3.163   0.417  0.00  0.00    +0.590 C 
ATOM      2  N   LIG    1        2.953   3.519   0.509  0.00  0.00    -0.600 N 
ATOM      3  C   LIG    1        4.024   2.534   0.295  0.00  0.00    +0.290 C 
ATOM      4  C   LIG    1        5.010   3.111  -0.733  0.00  0.00    +0.200 C 
ATOM      5  N   LIG    1        5.464   4.433  -0.280  0.00  0.00    -0.490 N 
ATOM      6  C   LIG    1        4.347   5.385  -0.211  0.00  0.00    +0.200 C 
ATOM      7  C   LIG    1        3.333   4.903   0.832  0.00  0.00    +0.300 C 
ATOM      8  O   LIG    1        0.785   4.010   0.487  0.00  0.00    -0.540 OA
ENDROOT
BRANCH   1  12
ATOM      9  C   LIG    1        1.348  -0.481   0.190  0.00  0.00    -0.270 A 
ATOM     10  C   LIG    1        0.119  -0.056  -0.290  0.00  0.00    +0.270 A 
ATOM     11  N   LIG    1        0.095   1.285  -0.262  0.00  0.00    -0.400 N 
ATOM     12  C   LIG    1        1.294   1.752   0.232  0.00  0.00    -0.060 A 
ATOM     13  C   LIG    1       -1.030   2.121  -0.687  0.00  0.00    +0.350 C 
ATOM     14  C   LIG    1        2.087   0.681   0.518  0.00  0.00    +0.070 A 
BRANCH   9  16
ATOM     15  C   LIG    1        0.885  -3.000  -0.068  0.00  0.00    +0.070 C 
ATOM     16  C   LIG    1        1.798  -1.869   0.330  0.00  0.00    +0.420 C 
ATOM     17  O   LIG    1        2.905  -2.107   0.765  0.00  0.00    -0.470 OA
ENDBRANCH   9  16
ENDBRANCH   1  12
BRANCH   5  18
ATOM     18  C   LIG    1        6.477   4.914  -1.091  0.00  0.00    +0.340 A 
ATOM     19  N   LIG    1        6.247   5.120  -2.378  0.00  0.00    -0.510 NA
ATOM     20  C   LIG    1        7.182   5.583  -3.186  0.00  0.00    +0.310 A 
ATOM     21  C   LIG    1        8.455   5.864  -2.722  0.00  0.00    -0.020 A 
ATOM     22  C   LIG    1        8.753   5.662  -1.386  0.00  0.00    +0.130 A 
ATOM     23  C   LIG    1        7.745   5.176  -0.545  0.00  0.00    -0.050 A 
BRANCH  23  24
ATOM     24  C   LIG    1        8.002   4.950   0.845  0.00  0.00    +0.260 C 
ATOM     25  N   LIG    1        8.205   4.771   1.949  0.00  0.00    -0.400 NA
ENDBRANCH  23  24
ENDBRANCH   5  18
TORSDOF 4
