REMARK  Name = ZINCrD0000072Eb2.1
REMARK                            x       y       z     vdW  Elec       q    Type
REMARK                         _______ _______ _______ _____ _____    ______ ____
ROOT
ATOM      1  C   LIG    1        6.663  -2.513   0.598  0.00  0.00    +0.380 A 
ATOM      2  N   LIG    1        7.943  -2.224   0.660  0.00  0.00    -0.580 NA
ATOM      3  C   LIG    1        8.779  -3.239   0.773  0.00  0.00    +0.300 A 
ATOM      4  N   LIG    1        8.266  -4.443   0.804  0.00  0.00    -0.530 NA
ATOM      5  S   LIG    1        6.584  -4.232   0.684  0.00  0.00    +0.130 S 
ENDROOT
BRANCH   1  15
ATOM      6  C   LIG    1       -1.268  -0.530   0.519  0.00  0.00    +0.320 C 
ATOM      7  N   LIG    1        0.002  -0.004   0.002  0.00  0.00    -0.390 N 
ATOM      8  C   LIG    1       -0.018   1.480   0.010  0.00  0.00    +0.260 C 
ATOM      9  C   LIG    1        1.485   1.855  -0.002  0.00  0.00    +0.080 C 
ATOM     10  C   LIG    1        2.118   0.779   0.907  0.00  0.00    +0.010 C 
ATOM     11  C   LIG    1        3.394   0.241   0.242  0.00  0.00    +0.290 C 
ATOM     12  N   LIG    1        3.309  -1.228   0.314  0.00  0.00    -0.620 N 
ATOM     13  C   LIG    1        1.880  -1.570   0.240  0.00  0.00    +0.290 C 
ATOM     14  C   LIG    1        4.339  -2.090   0.426  0.00  0.00    +0.670 C 
ATOM     15  N   LIG    1        5.603  -1.626   0.483  0.00  0.00    -0.660 NA
ATOM     16  O   LIG    1        4.128  -3.286   0.477  0.00  0.00    -0.630 OA
ATOM     17  C   LIG    1        1.117  -0.402   0.889  0.00  0.00    +0.160 C 
ATOM     18  H   LIG    1        0.164  -0.344  -0.934  0.00  0.00    +0.430 HD
ENDBRANCH   1  15
BRANCH   3  19
ATOM     19  C   LIG    1       10.244  -3.024   0.857  0.00  0.00    +0.050 A 
ATOM     20  C   LIG    1       10.765  -1.732   0.822  0.00  0.00    +0.070 A 
ATOM     21  C   LIG    1       12.129  -1.538   0.901  0.00  0.00    +0.030 A 
ATOM     22  C   LIG    1       12.979  -2.623   1.014  0.00  0.00    +0.010 A 
ATOM     23  C   LIG    1       12.468  -3.908   1.049  0.00  0.00    +0.060 A 
ATOM     24  C   LIG    1       11.105  -4.114   0.976  0.00  0.00    -0.160 A 
BRANCH  24  25
ATOM     25  C   LIG    1       10.550  -5.514   1.020  0.00  0.00    +0.520 C 
ATOM     26  F   LIG    1        9.841  -5.771  -0.158  0.00  0.00    -0.160 F 
ATOM     27  F   LIG    1        9.691  -5.640   2.118  0.00  0.00    -0.160 F 
ATOM     28  F   LIG    1       11.601  -6.429   1.142  0.00  0.00    -0.190 F 
ENDBRANCH  24  25
ENDBRANCH   3  19
TORSDOF 3
