REMARK  Name = ZINCrD0000072Eb2.0
REMARK                            x       y       z     vdW  Elec       q    Type
REMARK                         _______ _______ _______ _____ _____    ______ ____
ROOT
ATOM      1  C   LIG    1        1.419   1.866  -0.844  0.00  0.00    +0.380 A 
ATOM      2  N   LIG    1        0.282   1.221  -0.971  0.00  0.00    -0.580 NA
ATOM      3  C   LIG    1        0.352  -0.090  -1.107  0.00  0.00    +0.300 A 
ATOM      4  N   LIG    1        1.543  -0.635  -1.104  0.00  0.00    -0.530 NA
ATOM      5  S   LIG    1        2.638   0.650  -0.911  0.00  0.00    +0.130 S 
ENDROOT
BRANCH   1  15
ATOM      6  C   LIG    1        6.066   7.318   0.737  0.00  0.00    +0.320 C 
ATOM      7  N   LIG    1        4.876   8.063   0.304  0.00  0.00    -0.380 N 
ATOM      8  C   LIG    1        4.066   8.420   1.478  0.00  0.00    +0.250 C 
ATOM      9  C   LIG    1        2.674   7.793   1.296  0.00  0.00    +0.070 C 
ATOM     10  C   LIG    1        2.593   7.448  -0.205  0.00  0.00    +0.020 C 
ATOM     11  C   LIG    1        1.946   6.064  -0.369  0.00  0.00    +0.290 C 
ATOM     12  N   LIG    1        3.020   5.066  -0.420  0.00  0.00    -0.620 N 
ATOM     13  C   LIG    1        4.316   5.740  -0.276  0.00  0.00    +0.290 C 
ATOM     14  C   LIG    1        2.844   3.739  -0.571  0.00  0.00    +0.670 C 
ATOM     15  N   LIG    1        1.600   3.233  -0.689  0.00  0.00    -0.660 NA
ATOM     16  O   LIG    1        3.807   2.997  -0.600  0.00  0.00    -0.630 OA
ATOM     17  C   LIG    1        4.076   7.227  -0.604  0.00  0.00    +0.170 C 
ATOM     18  H   LIG    1        5.161   8.904  -0.177  0.00  0.00    +0.430 HD
ENDBRANCH   1  15
BRANCH   3  19
ATOM     19  C   LIG    1       -0.872  -0.915  -1.258  0.00  0.00    +0.050 A 
ATOM     20  C   LIG    1       -2.127  -0.310  -1.258  0.00  0.00    +0.070 A 
ATOM     21  C   LIG    1       -3.262  -1.083  -1.398  0.00  0.00    +0.030 A 
ATOM     22  C   LIG    1       -3.155  -2.454  -1.539  0.00  0.00    +0.010 A 
ATOM     23  C   LIG    1       -1.911  -3.060  -1.540  0.00  0.00    +0.060 A 
ATOM     24  C   LIG    1       -0.770  -2.297  -1.406  0.00  0.00    -0.160 A 
BRANCH  24  25
ATOM     25  C   LIG    1        0.585  -2.957  -1.414  0.00  0.00    +0.520 C 
ATOM     26  F   LIG    1        1.237  -2.699  -0.203  0.00  0.00    -0.160 F 
ATOM     27  F   LIG    1        1.346  -2.448  -2.471  0.00  0.00    -0.160 F 
ATOM     28  F   LIG    1        0.430  -4.338  -1.575  0.00  0.00    -0.190 F 
ENDBRANCH  24  25
ENDBRANCH   3  19
TORSDOF 3
