REMARK  Name = ZINCpk000000opxY.0
REMARK                            x       y       z     vdW  Elec       q    Type
REMARK                         _______ _______ _______ _____ _____    ______ ____
ROOT
ATOM      1  C   LIG    1        0.052   4.542   0.203  0.00  0.00    +0.180 A 
ATOM      2  C   LIG    1       -1.076   3.739   0.293  0.00  0.00    +0.010 A 
ATOM      3  C   LIG    1       -0.940   2.373   0.453  0.00  0.00    +0.160 A 
ATOM      4  C   LIG    1        0.318   1.807   0.536  0.00  0.00    -0.670 A 
ATOM      5  C   LIG    1        1.446   2.603   0.446  0.00  0.00    +0.130 A 
ATOM      6  C   LIG    1        1.317   3.969   0.280  0.00  0.00    +0.060 A 
ATOM      7  F   LIG    1        2.419   4.747   0.193  0.00  0.00    -0.130 F 
ENDROOT
BRANCH   4   8
ATOM      8  S   LIG    1        0.486   0.066   0.748  0.00  0.00    +2.700 S 
ATOM      9  O   LIG    1        1.771  -0.277   0.249  0.00  0.00    -0.950 OA
ATOM     10  O   LIG    1       -0.717  -0.515   0.262  0.00  0.00    -0.950 OA
BRANCH   8  11
ATOM     11  N   LIG    1        0.522  -0.229   2.377  0.00  0.00    -1.110 NA
ATOM     12  H   LIG    1        1.324  -0.590   2.786  0.00  0.00    +0.420 HD
BRANCH  11  13
ATOM     13  C   LIG    1       -0.656   0.057   3.200  0.00  0.00    +0.360 C 
BRANCH  13  14
ATOM     14  C   LIG    1       -0.511  -0.622   4.537  0.00  0.00    -0.260 A 
ATOM     15  C   LIG    1       -1.090  -1.789   4.904  0.00  0.00    +0.270 A 
ATOM     16  N   LIG    1       -0.713  -2.054   6.173  0.00  0.00    -0.470 N 
ATOM     17  H   LIG    1       -0.976  -2.827   6.696  0.00  0.00    +0.440 HD
ATOM     18  N   LIG    1        0.125  -1.016   6.599  0.00  0.00    -0.290 NA
ATOM     19  C   LIG    1        0.250  -0.161   5.616  0.00  0.00    +0.090 A 
ATOM     20  C   LIG    1        1.069   1.103   5.643  0.00  0.00    +0.160 C 
ENDBRANCH  13  14
ENDBRANCH  11  13
ENDBRANCH   8  11
ENDBRANCH   4   8
BRANCH   1  21
ATOM     21  N   LIG    1       -0.082   5.924   0.034  0.00  0.00    -1.060 N 
ATOM     22  H   LIG    1        0.555   6.410  -0.512  0.00  0.00    +0.430 HD
BRANCH  21  23
ATOM     23  S   LIG    1       -1.330   6.730   0.767  0.00  0.00    +2.600 S 
ATOM     24  O   LIG    1       -2.497   6.063   0.306  0.00  0.00    -0.940 OA
ATOM     25  O   LIG    1       -1.095   8.096   0.455  0.00  0.00    -0.940 OA
BRANCH  23  26
ATOM     26  C   LIG    1       -1.083   6.430   2.539  0.00  0.00    -0.340 C 
BRANCH  26  28
ATOM     27  C   LIG    1       -1.978   6.880   4.828  0.00  0.00    +0.040 C 
ATOM     28  C   LIG    1       -2.186   7.133   3.333  0.00  0.00    +0.040 C 
ENDBRANCH  26  28
ENDBRANCH  23  26
ENDBRANCH  21  23
ENDBRANCH   1  21
TORSDOF 8
