REMARK  Name = ZINCtV00001bB3Fp.0
REMARK                            x       y       z     vdW  Elec       q    Type
REMARK                         _______ _______ _______ _____ _____    ______ ____
ROOT
ATOM      1  C   LIG    1       -3.052   4.158   1.255  0.00  0.00    +0.280 A 
ATOM      2  N   LIG    1       -4.173   4.793   1.384  0.00  0.00    -0.450 NA
ATOM      3  C   LIG    1       -4.575   5.014   2.640  0.00  0.00    +0.090 A 
ATOM      4  C   LIG    1       -3.729   4.539   3.599  0.00  0.00    -0.080 A 
ATOM      5  S   LIG    1       -2.392   3.787   2.843  0.00  0.00    +0.170 S 
ENDROOT
BRANCH   1   8
ATOM      6  C   LIG    1       -2.411   3.798  -2.429  0.00  0.00    +0.120 C 
ATOM      7  C   LIG    1       -3.056   4.160  -1.116  0.00  0.00    +0.520 C 
ATOM      8  N   LIG    1       -2.458   3.824   0.044  0.00  0.00    -0.470 N 
ATOM      9  O   LIG    1       -4.113   4.754  -1.103  0.00  0.00    -0.470 OA
BRANCH   8  10
ATOM     10  C   LIG    1       -1.236   3.138   0.029  0.00  0.00    +0.090 A 
ATOM     11  C   LIG    1       -1.218   1.749   0.017  0.00  0.00    -0.060 A 
ATOM     12  C   LIG    1       -0.013   1.076   0.008  0.00  0.00    +0.010 A 
ATOM     13  C   LIG    1        1.176   1.783   0.000  0.00  0.00    +0.040 A 
ATOM     14  C   LIG    1        1.161   3.166   0.008  0.00  0.00    +0.010 A 
ATOM     15  C   LIG    1       -2.513   0.978   0.019  0.00  0.00    +0.100 C 
ATOM     16  C   LIG    1       -0.041   3.845   0.022  0.00  0.00    -0.060 A 
ATOM     17  C   LIG    1       -0.056   5.352   0.029  0.00  0.00    +0.100 C 
ENDBRANCH   8  10
ENDBRANCH   1   8
BRANCH   3  18
ATOM     18  C   LIG    1       -5.821   5.714   2.960  0.00  0.00    +0.170 C 
ATOM     19  C   LIG    1       -6.621   6.164   1.963  0.00  0.00    -0.060 C 
BRANCH  19  20
ATOM     20  C   LIG    1       -7.824   6.840   2.272  0.00  0.00    +0.420 C 
ATOM     21  O   LIG    1       -8.141   7.018   3.435  0.00  0.00    -0.440 OA
BRANCH  20  22
ATOM     22  C   LIG    1       -8.697   7.330   1.184  0.00  0.00    -0.150 A 
ATOM     23  C   LIG    1       -8.337   7.127  -0.149  0.00  0.00    +0.110 A 
ATOM     24  C   LIG    1       -9.155   7.586  -1.160  0.00  0.00    +0.030 A 
ATOM     25  C   LIG    1      -10.333   8.248  -0.855  0.00  0.00    +0.000 A 
ATOM     26  C   LIG    1      -10.697   8.453   0.466  0.00  0.00    +0.030 A 
ATOM     27 CL   LIG    1      -11.357   8.823  -2.133  0.00  0.00    -0.050 Cl
ATOM     28  C   LIG    1       -9.889   7.994   1.486  0.00  0.00    +0.020 A 
ATOM     29 CL   LIG    1      -10.350   8.245   3.141  0.00  0.00    -0.020 Cl
ENDBRANCH  20  22
ENDBRANCH  19  20
ENDBRANCH   3  18
TORSDOF 5
