REMARK  Name = ZINCpe00000xXmz9.0
REMARK                            x       y       z     vdW  Elec       q    Type
REMARK                         _______ _______ _______ _____ _____    ______ ____
ROOT
ATOM      1  O   LIG    1       -5.689   3.629  -2.698  0.00  0.00    -0.290 OA
ENDROOT
BRANCH   1   4
ATOM      2  C   LIG    1       -3.052   2.064  -0.741  0.00  0.00    +0.140 A 
ATOM      3  C   LIG    1       -3.773   2.483  -1.840  0.00  0.00    -0.040 A 
ATOM      4  C   LIG    1       -4.952   3.199  -1.643  0.00  0.00    +0.170 A 
ATOM      5  C   LIG    1       -5.354   3.462  -0.336  0.00  0.00    -0.120 A 
ATOM      6  C   LIG    1       -4.577   3.008   0.710  0.00  0.00    +0.300 A 
ATOM      7  N   LIG    1       -3.469   2.328   0.483  0.00  0.00    -0.490 NA
BRANCH   2   8
ATOM      8  C   LIG    1       -1.775   1.289  -0.941  0.00  0.00    +0.350 C 
BRANCH   8  11
ATOM      9  C   LIG    1        1.790   2.682  -1.031  0.00  0.00    +0.100 C 
ATOM     10  C   LIG    1        0.618   1.735  -1.062  0.00  0.00    +0.510 C 
ATOM     11  N   LIG    1       -0.635   2.208  -0.904  0.00  0.00    -0.730 N 
ATOM     12  H   LIG    1       -0.781   3.157  -0.767  0.00  0.00    +0.400 HD
ATOM     13  O   LIG    1        0.800   0.549  -1.234  0.00  0.00    -0.540 OA
ENDBRANCH   8  11
ENDBRANCH   2   8
ENDBRANCH   1   4
BRANCH   1  14
ATOM     14  C   LIG    1       -6.817   4.456  -2.407  0.00  0.00    +0.160 C 
ATOM     15  C   LIG    1       -8.071   3.586  -2.160  0.00  0.00    +0.020 C 
ATOM     16  C   LIG    1       -9.197   4.398  -2.848  0.00  0.00    +0.170 C 
ATOM     17  N   LIG    1       -8.530   4.948  -4.056  0.00  0.00    -0.510 NA
ATOM     18  C   LIG    1       -7.168   5.330  -3.625  0.00  0.00    +0.200 C 
BRANCH  17  19
ATOM     19  C   LIG    1       -9.263   6.109  -4.578  0.00  0.00    +0.190 C 
BRANCH  19  20
ATOM     20  C   LIG    1      -10.487   5.630  -5.361  0.00  0.00    +0.020 C 
ATOM     21  C   LIG    1      -11.306   6.840  -5.817  0.00  0.00    +0.040 C 
BRANCH  20  22
ATOM     22  C   LIG    1      -10.030   4.833  -6.584  0.00  0.00    -0.330 C 
BRANCH  22  23
ATOM     23  S   LIG    1      -11.478   4.141  -7.430  0.00  0.00    +2.410 S 
ATOM     24  O   LIG    1      -12.255   5.212  -7.948  0.00  0.00    -0.940 OA
ATOM     25  O   LIG    1      -12.093   3.191  -6.570  0.00  0.00    -0.940 OA
ATOM     26  C   LIG    1      -10.715   3.256  -8.817  0.00  0.00    -0.270 C 
ENDBRANCH  22  23
ENDBRANCH  20  22
ENDBRANCH  19  20
ENDBRANCH  17  19
ENDBRANCH   1  14
TORSDOF 8
