REMARK  Name = ZINCbw0000000Hpn.0
REMARK                            x       y       z     vdW  Elec       q    Type
REMARK                         _______ _______ _______ _____ _____    ______ ____
ROOT
ATOM      1  C   LIG    1       -1.284  -0.709   0.108  0.00  0.00    -0.110 A 
ATOM      2  C   LIG    1       -2.483   0.013   0.121  0.00  0.00    +0.060 A 
ATOM      3  C   LIG    1       -3.684  -0.656   0.215  0.00  0.00    +0.000 A 
ATOM      4  C   LIG    1       -3.707  -2.037   0.307  0.00  0.00    +0.040 A 
ATOM      5  C   LIG    1       -2.525  -2.758   0.300  0.00  0.00    +0.000 A 
ATOM      6  C   LIG    1       -1.315  -2.105   0.201  0.00  0.00    +0.050 A 
ENDROOT
BRANCH   1   8
ATOM      7  C   LIG    1        0.099   1.118  -0.750  0.00  0.00    -0.240 C 
ATOM      8  C   LIG    1        0.002  -0.004   0.002  0.00  0.00    +0.200 C 
ATOM      9 BR   LIG    1       -1.351   1.655  -1.839  0.00  0.00    -0.030 Br
BRANCH   7  11
ATOM     10  O   LIG    1        1.372   2.890  -1.399  0.00  0.00    -0.440 OA
ATOM     11  C   LIG    1        1.285   1.883  -0.725  0.00  0.00    +0.490 C 
ENDBRANCH   7  11
ENDBRANCH   1   8
TORSDOF 2
