REMARK  Name = ZINCtV000002H7q2.0
REMARK                            x       y       z     vdW  Elec       q    Type
REMARK                         _______ _______ _______ _____ _____    ______ ____
ROOT
ATOM      1  C   LIG    1        0.492  -4.161  -0.003  0.00  0.00    +0.190 A 
ATOM      2  N   LIG    1        0.109  -2.904   0.023  0.00  0.00    -0.270 NA
ATOM      3  N   LIG    1        1.238  -2.081   0.012  0.00  0.00    -0.300 N 
ATOM      4  C   LIG    1        2.349  -2.838  -0.012  0.00  0.00    +0.300 A 
ATOM      5  C   LIG    1        1.959  -4.161  -0.022  0.00  0.00    -0.280 A 
ENDROOT
BRANCH   1  10
ATOM      6  C   LIG    1       -2.935  -8.788  -0.014  0.00  0.00    +0.090 C 
ATOM      7  C   LIG    1       -2.038  -7.577  -0.011  0.00  0.00    -0.070 A 
ATOM      8  C   LIG    1       -0.848  -7.599  -0.715  0.00  0.00    +0.000 A 
ATOM      9  C   LIG    1       -0.025  -6.492  -0.720  0.00  0.00    +0.090 A 
ATOM     10  C   LIG    1       -0.390  -5.352  -0.005  0.00  0.00    -0.040 A 
ATOM     11  C   LIG    1       -1.591  -5.335   0.703  0.00  0.00    +0.040 A 
ATOM     12  C   LIG    1       -2.408  -6.447   0.697  0.00  0.00    -0.100 A 
ATOM     13  C   LIG    1       -3.707  -6.430   1.461  0.00  0.00    +0.080 C 
ENDBRANCH   1  10
BRANCH   3  14
ATOM     14  C   LIG    1        1.216  -0.680   0.030  0.00  0.00    +0.140 A 
ATOM     15  C   LIG    1        0.004  -0.004   0.054  0.00  0.00    +0.030 A 
ATOM     16  C   LIG    1       -0.015   1.377   0.072  0.00  0.00    +0.050 A 
ATOM     17  C   LIG    1        1.173   2.086   0.066  0.00  0.00    +0.010 A 
ATOM     18  C   LIG    1        2.382   1.415   0.042  0.00  0.00    +0.050 A 
ATOM     19  C   LIG    1        2.407   0.034   0.024  0.00  0.00    -0.010 A 
ENDBRANCH   3  14
BRANCH   5  20
ATOM     20  C   LIG    1        2.840  -5.341  -0.049  0.00  0.00    +0.600 C 
ATOM     21  N   LIG    1        4.178  -5.182  -0.065  0.00  0.00    -0.670 N 
ATOM     22  H   LIG    1        4.560  -4.293  -0.140  0.00  0.00    +0.410 HD
ATOM     23  O   LIG    1        2.360  -6.458  -0.056  0.00  0.00    -0.500 OA
BRANCH  21  24
ATOM     24  C   LIG    1        5.017  -6.298   0.026  0.00  0.00    +0.180 A 
ATOM     25  C   LIG    1        4.562  -7.462   0.631  0.00  0.00    +0.030 A 
ATOM     26  C   LIG    1        5.392  -8.563   0.720  0.00  0.00    +0.050 A 
ATOM     27  C   LIG    1        6.675  -8.506   0.207  0.00  0.00    +0.000 A 
ATOM     28  C   LIG    1        7.132  -7.349  -0.396  0.00  0.00    +0.070 A 
ATOM     29  C   LIG    1        6.305  -6.246  -0.493  0.00  0.00    -0.130 A 
ATOM     30 BR   LIG    1        6.927  -4.667  -1.326  0.00  0.00    -0.050 Br
ENDBRANCH  21  24
ENDBRANCH   5  20
TORSDOF 4
