REMARK  Name = ZINCrg00000fSdCw.0
REMARK                            x       y       z     vdW  Elec       q    Type
REMARK                         _______ _______ _______ _____ _____    ______ ____
ROOT
ATOM      1  C   LIG    1        3.936   6.141  -1.068  0.00  0.00    +0.040 C 
ATOM      2  C   LIG    1        2.458   6.491  -1.258  0.00  0.00    +0.070 C 
ATOM      3  C   LIG    1        1.647   5.917  -0.093  0.00  0.00    +0.290 C 
ATOM      4  N   LIG    1        1.918   4.476   0.008  0.00  0.00    -0.570 N 
ATOM      5  C   LIG    1        3.312   4.025   0.109  0.00  0.00    +0.320 C 
ATOM      6  C   LIG    1        4.105   4.620  -1.065  0.00  0.00    +0.050 C 
ENDROOT
BRANCH   4   7
ATOM      7  C   LIG    1        0.883   3.566   0.012  0.00  0.00    +0.520 C 
ATOM      8  N   LIG    1        1.067   2.361  -0.422  0.00  0.00    -0.880 NA
ATOM      9  S   LIG    1       -0.398   1.574  -0.250  0.00  0.00    +2.580 S 
ATOM     10  C   LIG    1       -1.362   2.893   0.435  0.00  0.00    -0.620 A 
ATOM     11  C   LIG    1       -2.658   3.024   0.844  0.00  0.00    +0.160 A 
ATOM     12  C   LIG    1       -3.097   4.238   1.354  0.00  0.00    +0.060 A 
ATOM     13  C   LIG    1       -2.215   5.300   1.441  0.00  0.00    +0.060 A 
ATOM     14  C   LIG    1       -0.907   5.170   1.029  0.00  0.00    +0.090 A 
ATOM     15  O   LIG    1       -0.897   1.309  -1.554  0.00  0.00    -0.940 OA
ATOM     16  O   LIG    1       -0.240   0.588   0.760  0.00  0.00    -0.940 OA
ATOM     17  C   LIG    1       -0.446   3.950   0.511  0.00  0.00    -0.120 A 
ENDBRANCH   4   7
BRANCH   1  18
ATOM     18  C   LIG    1        4.742   6.733  -2.195  0.00  0.00    +0.460 C 
ATOM     19  O   LIG    1        4.191   7.369  -3.062  0.00  0.00    -0.480 OA
BRANCH  18  20
ATOM     20  O   LIG    1        6.071   6.553  -2.237  0.00  0.00    -0.330 OA
BRANCH  20  24
ATOM     21  C   LIG    1       10.481   7.038  -3.284  0.00  0.00    +0.090 C 
ATOM     22  C   LIG    1        9.119   7.490  -3.812  0.00  0.00    +0.180 C 
ATOM     23  C   LIG    1        8.076   6.360  -3.652  0.00  0.00    +0.070 C 
ATOM     24  C   LIG    1        6.783   7.152  -3.352  0.00  0.00    +0.160 C 
ATOM     25  C   LIG    1        7.256   8.543  -2.989  0.00  0.00    +0.470 C 
ATOM     26  O   LIG    1        6.535   9.475  -2.724  0.00  0.00    -0.430 OA
ATOM     27  O   LIG    1        8.596   8.585  -3.004  0.00  0.00    -0.330 OA
ENDBRANCH  20  24
ENDBRANCH  18  20
ENDBRANCH   1  18
TORSDOF 4
