REMARK  Name = ZINCrD000000C46y.0
REMARK                            x       y       z     vdW  Elec       q    Type
REMARK                         _______ _______ _______ _____ _____    ______ ____
ROOT
ATOM      1  C   LIG    1        3.600   2.232   0.243  0.00  0.00    +0.140 A 
ATOM      2  C   LIG    1        3.687   3.459  -0.414  0.00  0.00    +0.060 A 
ATOM      3  C   LIG    1        4.820   4.234  -0.293  0.00  0.00    +0.040 A 
ATOM      4  C   LIG    1        5.885   3.790   0.477  0.00  0.00    +0.040 A 
ATOM      5  C   LIG    1        5.808   2.552   1.138  0.00  0.00    +0.070 A 
ATOM      6  N   LIG    1        6.979   2.384   1.805  0.00  0.00    -0.490 NA
ATOM      7  C   LIG    1        7.751   3.412   1.601  0.00  0.00    +0.490 A 
ATOM      8  N   LIG    1        7.128   4.311   0.789  0.00  0.00    -0.450 N 
ATOM      9  C   LIG    1        4.653   1.776   1.014  0.00  0.00    +0.060 A 
ENDROOT
BRANCH   8  10
ATOM     10  C   LIG    1        7.649   5.536   0.352  0.00  0.00    +0.120 A 
ATOM     11  C   LIG    1        7.624   5.861  -0.998  0.00  0.00    +0.010 A 
ATOM     12  C   LIG    1        8.134   7.071  -1.425  0.00  0.00    +0.030 A 
ATOM     13  C   LIG    1        8.679   7.955  -0.511  0.00  0.00    +0.020 A 
ATOM     14  C   LIG    1        8.711   7.631   0.833  0.00  0.00    +0.030 A 
ATOM     15  C   LIG    1        8.198   6.425   1.267  0.00  0.00    +0.010 A 
ENDBRANCH   8  10
BRANCH   1  18
ATOM     16  O   LIG    1        1.156   3.264   0.053  0.00  0.00    -0.490 OA
ATOM     17  C   LIG    1        1.236   2.053   0.051  0.00  0.00    +0.510 C 
ATOM     18  N   LIG    1        2.443   1.457   0.117  0.00  0.00    -0.640 N 
ATOM     19  H   LIG    1        2.509   0.490   0.077  0.00  0.00    +0.420 HD
BRANCH  17  20
ATOM     20  C   LIG    1       -0.004   1.224  -0.025  0.00  0.00    +0.500 C 
ATOM     21  N   LIG    1       -1.199   1.815  -0.220  0.00  0.00    -0.570 N 
ATOM     22  C   LIG    1       -1.236   3.237  -0.473  0.00  0.00    +0.280 C 
ATOM     23  C   LIG    1       -1.335   4.006   0.861  0.00  0.00    +0.030 C 
ATOM     24  C   LIG    1       -2.670   3.830   1.454  0.00  0.00    +0.000 C 
ATOM     25  C   LIG    1       -3.009   2.388   1.820  0.00  0.00    +0.010 C 
ATOM     26  C   LIG    1       -3.557   1.679   0.607  0.00  0.00    +0.020 C 
ATOM     27  C   LIG    1       -2.417   0.983  -0.159  0.00  0.00    +0.270 C 
ATOM     28  O   LIG    1        0.066   0.017   0.083  0.00  0.00    -0.520 OA
ENDBRANCH  17  20
ENDBRANCH   1  18
TORSDOF 3
