REMARK  Name = ZINCpe00000RcxDf.0
REMARK                            x       y       z     vdW  Elec       q    Type
REMARK                         _______ _______ _______ _____ _____    ______ ____
ROOT
ATOM      1  C   LIG    1       -0.562   1.816  -1.453  0.00  0.00    +0.230 C 
ATOM      2  C   LIG    1        0.001   1.106  -0.221  0.00  0.00    +0.010 C 
ATOM      3  C   LIG    1       -0.888   1.399   0.990  0.00  0.00    +0.020 C 
ATOM      4  C   LIG    1       -0.893   2.907   1.262  0.00  0.00    +0.290 C 
ATOM      5  N   LIG    1       -1.296   3.606   0.034  0.00  0.00    -0.570 N 
ATOM      6  C   LIG    1       -0.564   3.329  -1.210  0.00  0.00    +0.300 C 
ENDROOT
BRANCH   5   7
ATOM      7  C   LIG    1       -2.347   4.513   0.049  0.00  0.00    +0.350 A 
ATOM      8  N   LIG    1       -2.798   5.030  -1.074  0.00  0.00    -0.500 NA
ATOM      9  C   LIG    1       -3.810   5.897  -1.067  0.00  0.00    +0.190 A 
ATOM     10  C   LIG    1       -4.402   6.288   0.082  0.00  0.00    +0.170 A 
ATOM     11  N   LIG    1       -3.986   5.800   1.285  0.00  0.00    -0.590 N 
ATOM     12  H   LIG    1       -4.417   6.084   2.106  0.00  0.00    +0.420 HD
ATOM     13  C   LIG    1       -2.966   4.913   1.318  0.00  0.00    +0.490 A 
ATOM     14  O   LIG    1       -2.570   4.457   2.377  0.00  0.00    -0.520 OA
ENDBRANCH   5   7
BRANCH   1  15
ATOM     15  N   LIG    1        0.271   1.509  -2.618  0.00  0.00    -1.120 NA
ATOM     16  H   LIG    1        1.068   2.033  -2.796  0.00  0.00    +0.420 HD
BRANCH  15  17
ATOM     17  S   LIG    1       -0.148   0.268  -3.632  0.00  0.00    +2.780 S 
ATOM     18  O   LIG    1       -0.422  -0.853  -2.802  0.00  0.00    -0.970 OA
ATOM     19  O   LIG    1        0.826   0.249  -4.667  0.00  0.00    -0.970 OA
BRANCH  17  21
ATOM     20  C   LIG    1       -1.584   1.424  -5.610  0.00  0.00    +0.300 C 
ATOM     21  N   LIG    1       -1.583   0.682  -4.347  0.00  0.00    -1.000 NA
BRANCH  21  22
ATOM     22  C   LIG    1       -2.851   0.306  -3.717  0.00  0.00    +0.250 C 
ATOM     23  C   LIG    1       -3.649  -0.587  -4.670  0.00  0.00    +0.020 C 
ATOM     24  C   LIG    1       -4.973  -0.979  -4.012  0.00  0.00    +0.020 C 
ATOM     25  C   LIG    1       -5.780   0.282  -3.698  0.00  0.00    +0.000 C 
ATOM     26  C   LIG    1       -4.983   1.175  -2.746  0.00  0.00    +0.010 C 
ATOM     27  C   LIG    1       -3.658   1.567  -3.404  0.00  0.00    +0.010 C 
ENDBRANCH  21  22
ENDBRANCH  17  21
ENDBRANCH  15  17
ENDBRANCH   1  15
TORSDOF 5
