REMARK  Name = ZINCpk00000BLrUk.0
REMARK                            x       y       z     vdW  Elec       q    Type
REMARK                         _______ _______ _______ _____ _____    ______ ____
ROOT
ATOM      1  C   LIG    1        1.537  -1.998  -0.026  0.00  0.00    -0.160 A 
ATOM      2  C   LIG    1        2.920  -2.053  -0.052  0.00  0.00    +0.380 A 
ATOM      3  N   LIG    1        3.384  -0.813  -0.054  0.00  0.00    -0.490 NA
ATOM      4  C   LIG    1        2.370   0.052  -0.031  0.00  0.00    +0.480 A 
ATOM      5  N   LIG    1        2.350   1.389  -0.024  0.00  0.00    -0.530 NA
ATOM      6  C   LIG    1        1.206   2.051   0.002  0.00  0.00    +0.470 A 
ATOM      7  C   LIG    1       -0.016   1.349   0.021  0.00  0.00    -0.070 A 
ATOM      8  C   LIG    1        0.002  -0.004   0.013  0.00  0.00    +0.350 A 
ATOM      9  N   LIG    1        1.201  -0.653  -0.013  0.00  0.00    -0.400 N 
ENDROOT
BRANCH   6  10
ATOM     10  N   LIG    1        1.208   3.431   0.009  0.00  0.00    -0.580 N 
ATOM     11  C   LIG    1       -0.048   4.191  -0.091  0.00  0.00    +0.270 C 
ATOM     12  C   LIG    1        0.102   5.238  -1.195  0.00  0.00    +0.230 C 
ATOM     13  O   LIG    1        1.290   6.000  -0.965  0.00  0.00    -0.360 OA
ATOM     14  C   LIG    1        2.495   5.233  -1.008  0.00  0.00    +0.210 C 
ATOM     15  C   LIG    1        2.467   4.186   0.111  0.00  0.00    +0.300 C 
BRANCH  14  16
ATOM     16  C   LIG    1        3.680   6.144  -0.816  0.00  0.00    +0.130 A 
ATOM     17  C   LIG    1        4.590   6.307  -1.843  0.00  0.00    -0.010 A 
ATOM     18  C   LIG    1        5.677   7.148  -1.655  0.00  0.00    +0.070 A 
ATOM     19  C   LIG    1        5.808   7.796  -0.437  0.00  0.00    -0.020 A 
ATOM     20  C   LIG    1        4.857   7.584   0.544  0.00  0.00    +0.260 A 
ATOM     21  N   LIG    1        3.833   6.781   0.329  0.00  0.00    -0.460 NA
ENDBRANCH  14  16
ENDBRANCH   6  10
BRANCH   1  22
ATOM     22  C   LIG    1        0.644  -3.096  -0.015  0.00  0.00    +0.550 C 
ATOM     23  O   LIG    1        1.078  -4.233  -0.029  0.00  0.00    -0.500 OA
BRANCH  22  25
ATOM     24  C   LIG    1       -1.530  -4.036   0.021  0.00  0.00    +0.260 C 
ATOM     25  O   LIG    1       -0.688  -2.882   0.011  0.00  0.00    -0.370 OA
ENDBRANCH  22  25
ENDBRANCH   1  22
TORSDOF 4
