REMARK  Name = ZINCrD000001VLr9.0
REMARK                            x       y       z     vdW  Elec       q    Type
REMARK                         _______ _______ _______ _____ _____    ______ ____
ROOT
ATOM      1  N   LIG    1       -1.596   3.726  -2.600  0.00  0.00    -0.600 N 
ATOM      2  C   LIG    1       -0.906   4.769  -3.102  0.00  0.00    +0.610 C 
ATOM      3  O   LIG    1        0.210   5.017  -2.686  0.00  0.00    -0.510 OA
ENDROOT
BRANCH   2   4
ATOM      4  C   LIG    1       -1.501   5.607  -4.152  0.00  0.00    -0.050 A 
ATOM      5  C   LIG    1       -0.862   6.609  -4.809  0.00  0.00    -0.070 A 
ATOM      6  C   LIG    1       -1.833   7.158  -5.755  0.00  0.00    -0.140 A 
ATOM      7  C   LIG    1       -1.797   8.184  -6.702  0.00  0.00    +0.070 A 
ATOM      8  C   LIG    1       -2.909   8.455  -7.449  0.00  0.00    +0.000 A 
ATOM      9  C   LIG    1       -4.071   7.718  -7.273  0.00  0.00    +0.060 A 
ATOM     10  C   LIG    1       -4.128   6.702  -6.344  0.00  0.00    -0.080 A 
ATOM     11  C   LIG    1       -5.398   5.912  -6.165  0.00  0.00    +0.100 C 
ATOM     12  C   LIG    1       -3.010   6.408  -5.572  0.00  0.00    +0.070 A 
ATOM     13  C   LIG    1        0.560   7.063  -4.605  0.00  0.00    +0.140 C 
ATOM     14  O   LIG    1       -2.764   5.493  -4.614  0.00  0.00    -0.170 OA
ENDBRANCH   2   4
BRANCH   1  15
ATOM     15  C   LIG    1       -1.050   2.959  -1.477  0.00  0.00    +0.250 C 
ATOM     16  C   LIG    1       -0.868   1.499  -1.898  0.00  0.00    +0.020 C 
ATOM     17  C   LIG    1       -0.265   0.708  -0.733  0.00  0.00    +0.280 C 
ATOM     18  N   LIG    1       -1.110   0.892   0.455  0.00  0.00    -0.610 N 
ATOM     19  C   LIG    1       -1.426   2.259   0.891  0.00  0.00    +0.280 C 
ATOM     20  C   LIG    1       -1.588  -0.172   1.129  0.00  0.00    +0.550 C 
ATOM     21  O   LIG    1       -1.398  -1.296   0.705  0.00  0.00    -0.540 OA
ATOM     22  C   LIG    1       -2.016   3.033  -0.292  0.00  0.00    +0.010 C 
BRANCH  20  23
ATOM     23  C   LIG    1       -2.340   0.025   2.378  0.00  0.00    -0.090 C 
ATOM     24  C   LIG    1       -2.731  -1.026   3.092  0.00  0.00    +0.140 C 
ENDBRANCH  20  23
ENDBRANCH   1  15
BRANCH   1  25
ATOM     25  C   LIG    1       -2.892   3.359  -3.177  0.00  0.00    +0.440 C 
BRANCH  25  27
ATOM     26  C   LIG    1       -4.792   4.852  -2.098  0.00  0.00    +0.040 C 
ATOM     27  C   LIG    1       -3.949   4.189  -2.577  0.00  0.00    -0.200 C 
ENDBRANCH  25  27
ENDBRANCH   1  25
TORSDOF 5
