REMARK  Name = ZINCrD0000074IpO.0
REMARK                            x       y       z     vdW  Elec       q    Type
REMARK                         _______ _______ _______ _____ _____    ______ ____
ROOT
ATOM      1  C   LIG    1        1.405   3.557  -0.053  0.00  0.00    +0.470 C 
ATOM      2  O   LIG    1        0.353   4.151  -0.079  0.00  0.00    -0.500 OA
ENDROOT
BRANCH   1   3
ATOM      3  C   LIG    1        1.420   2.051  -0.001  0.00  0.00    +0.030 C 
ATOM      4  C   LIG    1       -0.019   1.526   0.010  0.00  0.00    +0.060 C 
ATOM      5  C   LIG    1        0.002  -0.004   0.002  0.00  0.00    +0.230 C 
ATOM      6  N   LIG    1        0.706  -0.479  -1.196  0.00  0.00    -0.470 N 
ATOM      7  C   LIG    1        2.103  -0.026  -1.205  0.00  0.00    +0.210 C 
ATOM      8  C   LIG    1        2.145   1.503  -1.232  0.00  0.00    +0.060 C 
BRANCH   6   9
ATOM      9  C   LIG    1        0.631  -1.858  -1.303  0.00  0.00    +0.360 A 
ATOM     10  C   LIG    1        1.230  -2.520  -2.376  0.00  0.00    -0.090 A 
ATOM     11  C   LIG    1        1.130  -3.897  -2.435  0.00  0.00    +0.330 A 
ATOM     12  N   LIG    1        0.465  -4.538  -1.484  0.00  0.00    -0.540 NA
ATOM     13  C   LIG    1       -0.093  -3.883  -0.486  0.00  0.00    +0.520 A 
ATOM     14  N   LIG    1       -0.019  -2.572  -0.388  0.00  0.00    -0.560 NA
ENDBRANCH   6   9
ENDBRANCH   1   3
BRANCH   1  15
ATOM     15  O   LIG    1        2.562   4.239  -0.070  0.00  0.00    -0.350 OA
BRANCH  15  16
ATOM     16  C   LIG    1        2.472   5.688  -0.121  0.00  0.00    +0.230 C 
BRANCH  16  17
ATOM     17  C   LIG    1        3.880   6.285  -0.135  0.00  0.00    +0.060 C 
BRANCH  17  18
ATOM     18  C   LIG    1        3.786   7.812  -0.188  0.00  0.00    +0.200 C 
BRANCH  18  19
ATOM     19  O   LIG    1        5.101   8.370  -0.201  0.00  0.00    -0.310 OA
BRANCH  19  24
ATOM     20  C   LIG    1        5.493  13.986  -0.394  0.00  0.00    +0.090 C 
ATOM     21  C   LIG    1        5.388  12.483  -0.342  0.00  0.00    -0.120 A 
ATOM     22  C   LIG    1        4.145  11.878  -0.328  0.00  0.00    +0.050 A 
ATOM     23  C   LIG    1        4.046  10.501  -0.286  0.00  0.00    -0.080 A 
ATOM     24  C   LIG    1        5.196   9.725  -0.247  0.00  0.00    +0.130 A 
ATOM     25  C   LIG    1        6.442  10.334  -0.262  0.00  0.00    -0.020 A 
ATOM     26  C   LIG    1        6.535  11.712  -0.309  0.00  0.00    -0.050 A 
ATOM     27  C   LIG    1        7.889  12.374  -0.325  0.00  0.00    +0.090 C 
ENDBRANCH  19  24
ENDBRANCH  18  19
ENDBRANCH  17  18
ENDBRANCH  16  17
ENDBRANCH  15  16
ENDBRANCH   1  15
TORSDOF 8
