REMARK  Name = ZINCpk00001AZinK.0
REMARK                            x       y       z     vdW  Elec       q    Type
REMARK                         _______ _______ _______ _____ _____    ______ ____
ROOT
ATOM      1  C   LIG    1       -2.551   3.868   0.038  0.00  0.00    +0.090 C 
ATOM      2  C   LIG    1       -1.234   3.136   0.018  0.00  0.00    -0.100 A 
ATOM      3  C   LIG    1       -0.043   3.847   0.015  0.00  0.00    +0.170 A 
ATOM      4  C   LIG    1        1.169   3.169  -0.005  0.00  0.00    +0.040 A 
ATOM      5  C   LIG    1        1.190   1.788  -0.021  0.00  0.00    +0.030 A 
ATOM      6  C   LIG    1        0.005   1.076  -0.018  0.00  0.00    +0.010 A 
ATOM      7  C   LIG    1       -1.210   1.748  -0.004  0.00  0.00    +0.180 A 
ENDROOT
BRANCH   7   8
ATOM      8  N   LIG    1       -2.410   1.027  -0.008  0.00  0.00    -0.590 N 
ATOM      9  C   LIG    1       -3.135   0.574   1.189  0.00  0.00    +0.260 C 
ATOM     10  C   LIG    1       -4.366  -0.158   0.619  0.00  0.00    +0.270 C 
ATOM     11  N   LIG    1       -4.204  -0.039  -0.837  0.00  0.00    -0.740 N 
ATOM     12  H   LIG    1       -4.813  -0.396  -1.502  0.00  0.00    +0.430 HD
ATOM     13  C   LIG    1       -3.083   0.645  -1.101  0.00  0.00    +0.700 C 
ATOM     14  O   LIG    1       -2.708   0.894  -2.231  0.00  0.00    -0.570 OA
ENDBRANCH   7   8
BRANCH   3  15
ATOM     15  N   LIG    1       -0.063   5.246   0.030  0.00  0.00    -0.680 N 
ATOM     16  H   LIG    1       -0.765   5.727  -0.436  0.00  0.00    +0.410 HD
ATOM     17  C   LIG    1        0.893   5.926   0.694  0.00  0.00    +0.710 C 
ATOM     18  N   LIG    1        0.824   7.269   0.786  0.00  0.00    -0.730 N 
ATOM     19  H   LIG    1        0.086   7.746   0.375  0.00  0.00    +0.400 HD
ATOM     20  O   LIG    1        1.817   5.328   1.210  0.00  0.00    -0.560 OA
BRANCH  18  21
ATOM     21  C   LIG    1        1.863   8.008   1.507  0.00  0.00    +0.280 C 
ATOM     22  C   LIG    1        2.986   8.460   0.547  0.00  0.00    +0.120 C 
ATOM     23  C   LIG    1        3.398   9.819   1.068  0.00  0.00    -0.040 A 
ATOM     24  C   LIG    1        4.377  10.743   1.011  0.00  0.00    +0.170 A 
ATOM     25  N   LIG    1        4.023  11.768   1.800  0.00  0.00    -0.480 NA
ATOM     26  C   LIG    1        2.864  11.515   2.341  0.00  0.00    +0.420 A 
ATOM     27  N   LIG    1        2.437  10.306   1.908  0.00  0.00    -0.480 N 
ATOM     28  C   LIG    1        1.320   9.357   2.026  0.00  0.00    +0.290 C 
ENDBRANCH  18  21
ENDBRANCH   3  15
TORSDOF 3
