REMARK  Name = ZINCvU0000000D6R.0
REMARK                            x       y       z     vdW  Elec       q    Type
REMARK                         _______ _______ _______ _____ _____    ______ ____
ROOT
ATOM      1  C   LIG    1        5.729  -1.423  -0.058  0.00  0.00    +0.290 A 
ATOM      2  N   LIG    1        4.960  -2.493  -0.057  0.00  0.00    -0.280 NA
ATOM      3  N   LIG    1        3.633  -2.045  -0.043  0.00  0.00    -0.340 N 
ATOM      4  C   LIG    1        2.421  -2.680  -0.035  0.00  0.00    +0.370 A 
ATOM      5  N   LIG    1        1.282  -2.034  -0.021  0.00  0.00    -0.480 NA
ATOM      6  C   LIG    1        1.225  -0.681  -0.013  0.00  0.00    +0.140 A 
ATOM      7  C   LIG    1        2.426   0.063  -0.021  0.00  0.00    -0.090 A 
ATOM      8  C   LIG    1        2.384   1.455  -0.012  0.00  0.00    +0.090 A 
ATOM      9  C   LIG    1        1.166   2.099   0.002  0.00  0.00    +0.020 A 
ATOM     10  C   LIG    1       -0.017   1.372   0.010  0.00  0.00    +0.070 A 
ATOM     11  C   LIG    1        0.002  -0.004   0.002  0.00  0.00    +0.060 A 
ATOM     12  C   LIG    1        3.694  -0.677  -0.036  0.00  0.00    +0.340 A 
ATOM     13  N   LIG    1        4.962  -0.328  -0.046  0.00  0.00    -0.500 NA
ENDROOT
BRANCH   1  17
ATOM     14  C   LIG    1        9.982  -1.448  -0.095  0.00  0.00    -0.030 A 
ATOM     15  C   LIG    1        9.286  -2.643  -0.096  0.00  0.00    +0.100 A 
ATOM     16  C   LIG    1        7.905  -2.641  -0.083  0.00  0.00    +0.080 A 
ATOM     17  C   LIG    1        7.213  -1.432  -0.071  0.00  0.00    +0.030 A 
ATOM     18  C   LIG    1        7.920  -0.231  -0.076  0.00  0.00    +0.090 A 
ATOM     19  C   LIG    1        9.300  -0.245  -0.083  0.00  0.00    +0.100 A 
BRANCH  14  21
ATOM     20  O   LIG    1       12.065  -2.515  -0.119  0.00  0.00    -0.150 OA
ATOM     21  N   LIG    1       11.462  -1.457  -0.108  0.00  0.00    +0.020 N 
ATOM     22  O   LIG    1       12.077  -0.406  -0.108  0.00  0.00    -0.150 OA
ENDBRANCH  14  21
ENDBRANCH   1  17
BRANCH   4  23
ATOM     23  S   LIG    1        2.392  -4.442  -0.044  0.00  0.00    +0.050 S 
BRANCH  23  24
ATOM     24  C   LIG    1        0.604  -4.727  -0.029  0.00  0.00    +0.150 C 
BRANCH  24  25
ATOM     25  C   LIG    1        0.332  -6.209  -0.035  0.00  0.00    -0.090 A 
ATOM     26  C   LIG    1        0.190  -6.881  -1.234  0.00  0.00    +0.060 A 
ATOM     27  C   LIG    1       -0.055  -8.241  -1.240  0.00  0.00    +0.030 A 
ATOM     28  C   LIG    1       -0.170  -8.928  -0.045  0.00  0.00    -0.020 A 
ATOM     29  C   LIG    1       -0.033  -8.254   1.156  0.00  0.00    +0.030 A 
ATOM     30 CL   LIG    1       -0.485 -10.635  -0.051  0.00  0.00    -0.060 Cl
ATOM     31  C   LIG    1        0.218  -6.895   1.160  0.00  0.00    +0.060 A 
ENDBRANCH  24  25
ENDBRANCH  23  24
ENDBRANCH   4  23
TORSDOF 5
