REMARK  Name = ZINCah000000402S.0
REMARK                            x       y       z     vdW  Elec       q    Type
REMARK                         _______ _______ _______ _____ _____    ______ ____
ROOT
ATOM      1  C   LIG    1        0.002  -0.004   0.002  0.00  0.00    +0.080 A 
ATOM      2  C   LIG    1        1.242  -0.647  -0.013  0.00  0.00    -0.030 A 
ATOM      3  C   LIG    1        2.399   0.122  -0.020  0.00  0.00    +0.420 A 
ATOM      4  N   LIG    1        2.332   1.444  -0.013  0.00  0.00    -0.520 NA
ATOM      5  C   LIG    1        1.179   2.086   0.002  0.00  0.00    +0.360 A 
ATOM      6  C   LIG    1       -0.017   1.398   0.010  0.00  0.00    -0.120 A 
ATOM      7 CL   LIG    1       -1.526   2.257   0.022  0.00  0.00    -0.040 Cl
ENDROOT
BRANCH   3   8
ATOM      8  N   LIG    1        3.641  -0.503  -0.035  0.00  0.00    -0.840 N 
ATOM      9  H   LIG    1        4.452   0.029  -0.040  0.00  0.00    +0.410 HD
ATOM     10  H   LIG    1        3.696  -1.472  -0.041  0.00  0.00    +0.410 HD
ENDBRANCH   3   8
BRANCH   1  12
ATOM     11  N   LIG    1       -2.183  -1.353   0.017  0.00  0.00    -0.370 NA
ATOM     12  C   LIG    1       -1.217  -0.756   0.010  0.00  0.00    +0.240 C 
ENDBRANCH   1  12
TORSDOF 2
