REMARK  Name = ZINCrg00000SiVv3.0
REMARK                            x       y       z     vdW  Elec       q    Type
REMARK                         _______ _______ _______ _____ _____    ______ ____
ROOT
ATOM      1  N   LIG    1        0.211   1.839   2.460  0.00  0.00    -0.970 NA
ENDROOT
BRANCH   1   2
ATOM      2  C   LIG    1       -0.844   1.571   1.480  0.00  0.00    +0.290 C 
ATOM      3  C   LIG    1       -1.481   2.898   1.026  0.00  0.00    +0.070 C 
ATOM      4  C   LIG    1       -2.333   2.577  -0.229  0.00  0.00    -0.310 C 
ATOM      5  S   LIG    1       -1.244   1.442  -1.170  0.00  0.00    +2.390 S 
ATOM      6  O   LIG    1       -2.014   0.358  -1.671  0.00  0.00    -0.930 OA
ATOM      7  O   LIG    1       -0.425   2.197  -2.051  0.00  0.00    -0.930 OA
ATOM      8  C   LIG    1       -0.241   0.868   0.248  0.00  0.00    -0.330 C 
ENDBRANCH   1   2
BRANCH   1   9
ATOM      9  S   LIG    1        0.161   1.117   3.949  0.00  0.00    +2.700 S 
ATOM     10  O   LIG    1       -1.200   0.784   4.188  0.00  0.00    -0.940 OA
ATOM     11  O   LIG    1        0.923   1.940   4.821  0.00  0.00    -0.920 OA
BRANCH   9  16
ATOM     12  C   LIG    1        2.885  -1.803   4.426  0.00  0.00    +0.080 A 
ATOM     13  C   LIG    1        2.397  -2.812   3.609  0.00  0.00    +0.030 A 
ATOM     14  C   LIG    1        1.228  -2.620   2.898  0.00  0.00    -0.050 A 
ATOM     15  C   LIG    1        0.542  -1.419   3.002  0.00  0.00    +0.190 A 
ATOM     16  C   LIG    1        1.031  -0.410   3.819  0.00  0.00    -0.680 A 
ATOM     17  C   LIG    1        2.202  -0.599   4.525  0.00  0.00    +0.140 A 
BRANCH  12  19
ATOM     18  C   LIG    1        4.689  -3.253   4.972  0.00  0.00    +0.250 C 
ATOM     19  O   LIG    1        4.035  -1.992   5.126  0.00  0.00    -0.310 OA
ENDBRANCH  12  19
BRANCH  15  20
ATOM     20  O   LIG    1       -0.608  -1.230   2.302  0.00  0.00    -0.310 OA
ATOM     21  C   LIG    1       -1.053  -2.312   1.481  0.00  0.00    +0.260 C 
ENDBRANCH  15  20
ENDBRANCH   9  16
ENDBRANCH   1   9
BRANCH   1  22
ATOM     22  C   LIG    1        1.312   2.745   2.123  0.00  0.00    +0.280 C 
BRANCH  22  23
ATOM     23  C   LIG    1        0.916   4.181   2.474  0.00  0.00    +0.140 C 
ATOM     24  C   LIG    1        2.028   5.155   2.029  0.00  0.00    +0.020 C 
ATOM     25  C   LIG    1        2.058   6.177   3.198  0.00  0.00    +0.000 C 
ATOM     26  C   LIG    1        1.721   5.259   4.400  0.00  0.00    +0.190 C 
ATOM     27  O   LIG    1        0.768   4.311   3.893  0.00  0.00    -0.360 OA
ENDBRANCH  22  23
ENDBRANCH   1  22
TORSDOF 7
