REMARK  Name = ZINCpe000000YkhC.0
REMARK                            x       y       z     vdW  Elec       q    Type
REMARK                         _______ _______ _______ _____ _____    ______ ____
ROOT
ATOM      1  C   LIG    1        2.480  -4.163   0.050  0.00  0.00    +0.150 A 
ATOM      2  C   LIG    1        1.282  -4.865   0.056  0.00  0.00    +0.010 A 
ATOM      3  C   LIG    1        1.291  -6.244   0.136  0.00  0.00    +0.040 A 
ATOM      4  C   LIG    1        2.492  -6.925   0.220  0.00  0.00    -0.110 A 
ATOM      5  C   LIG    1        3.687  -6.228   0.219  0.00  0.00    +0.060 A 
ATOM      6  C   LIG    1        3.684  -4.850   0.134  0.00  0.00    -0.020 A 
ENDROOT
BRANCH   1   8
ATOM      7  C   LIG    1        1.517  -2.140  -0.749  0.00  0.00    +0.560 C 
ATOM      8  N   LIG    1        2.474  -2.768  -0.036  0.00  0.00    -0.660 N 
ATOM      9  H   LIG    1        3.158  -2.251   0.418  0.00  0.00    +0.410 HD
ATOM     10  O   LIG    1        0.718  -2.788  -1.395  0.00  0.00    -0.500 OA
BRANCH   7  15
ATOM     11  C   LIG    1        1.261   3.558  -0.699  0.00  0.00    +0.320 C 
ATOM     12  N   LIG    1        1.319   2.094  -0.718  0.00  0.00    -0.500 N 
ATOM     13  C   LIG    1        2.279   1.456  -0.002  0.00  0.00    +0.310 A 
ATOM     14  C   LIG    1        2.362   0.106   0.003  0.00  0.00    -0.070 A 
ATOM     15  C   LIG    1        1.440  -0.658  -0.745  0.00  0.00    -0.040 A 
ATOM     16  C   LIG    1        0.463  -0.003  -1.472  0.00  0.00    +0.010 A 
ATOM     17  C   LIG    1        0.419   1.405  -1.445  0.00  0.00    +0.510 A 
ATOM     18  O   LIG    1       -0.432   2.001  -2.084  0.00  0.00    -0.530 OA
ENDBRANCH   7  15
ENDBRANCH   1   8
BRANCH   4  19
ATOM     19  C   LIG    1        2.499  -8.429   0.314  0.00  0.00    +0.120 C 
BRANCH  19  20
ATOM     20  C   LIG    1        2.450  -8.848   1.784  0.00  0.00    +0.010 C 
ATOM     21  C   LIG    1        2.441 -10.386   1.910  0.00  0.00    +0.100 C 
ATOM     22  C   LIG    1        3.709 -10.686   2.680  0.00  0.00    +0.530 C 
ATOM     23  N   LIG    1        4.341  -9.538   2.953  0.00  0.00    -0.680 N 
ATOM     24  H   LIG    1        5.178  -9.503   3.442  0.00  0.00    +0.420 HD
ATOM     25  O   LIG    1        4.091 -11.791   2.999  0.00  0.00    -0.480 OA
ATOM     26  C   LIG    1        3.722  -8.442   2.496  0.00  0.00    +0.530 C 
ATOM     27  O   LIG    1        4.118  -7.304   2.632  0.00  0.00    -0.460 OA
ENDBRANCH  19  20
ENDBRANCH   4  19
TORSDOF 4
