REMARK  Name = ZINCnE000001DFA3.0
REMARK                            x       y       z     vdW  Elec       q    Type
REMARK                         _______ _______ _______ _____ _____    ______ ____
ROOT
ATOM      1  C   LIG    1       -0.014   1.209   0.009  0.00  0.00    +0.550 C 
ATOM      2  N   LIG    1       -1.191   1.867   0.018  0.00  0.00    -0.550 N 
ATOM      3  C   LIG    1       -1.331   3.258   0.032  0.00  0.00    +0.140 A 
ATOM      4  C   LIG    1       -0.345   4.246   0.040  0.00  0.00    -0.020 A 
ATOM      5  C   LIG    1       -0.698   5.579   0.055  0.00  0.00    +0.050 A 
ATOM      6  C   LIG    1       -2.031   5.947   0.063  0.00  0.00    -0.010 A 
ATOM      7  C   LIG    1       -3.013   4.973   0.044  0.00  0.00    +0.040 A 
ATOM      8  C   LIG    1       -2.664   3.636   0.035  0.00  0.00    -0.140 A 
ATOM      9  C   LIG    1       -3.519   2.389   0.032  0.00  0.00    +0.100 C 
ATOM     10  C   LIG    1       -2.510   1.229   0.021  0.00  0.00    +0.230 C 
ATOM     11  C   LIG    1       -2.679   0.366   1.272  0.00  0.00    +0.040 C 
ATOM     12  O   LIG    1        0.002  -0.004   0.002  0.00  0.00    -0.500 OA
ENDROOT
BRANCH   1  13
ATOM     13  C   LIG    1        1.280   1.980   0.001  0.00  0.00    +0.100 C 
BRANCH  13  14
ATOM     14  S   LIG    1        2.675   0.820  -0.019  0.00  0.00    +0.030 S 
BRANCH  14  19
ATOM     15  N   LIG    1        7.648   3.463  -0.053  0.00  0.00    -0.630 NA
ATOM     16  C   LIG    1        6.397   3.070  -0.043  0.00  0.00    +0.340 A 
ATOM     17  N   LIG    1        5.276   3.848  -0.027  0.00  0.00    -0.510 NA
ATOM     18  N   LIG    1        4.072   3.182  -0.019  0.00  0.00    -0.250 NA
ATOM     19  C   LIG    1        4.077   1.887  -0.027  0.00  0.00    -0.080 A 
ATOM     20  S   LIG    1        5.783   1.405  -0.038  0.00  0.00    -0.100 S 
BRANCH  15  22
ATOM     21  C   LIG    1        8.793   5.228   1.195  0.00  0.00    +0.000 C 
ATOM     22  C   LIG    1        7.965   4.894  -0.048  0.00  0.00    +0.150 C 
ATOM     23  C   LIG    1        8.767   5.242  -1.304  0.00  0.00    +0.000 C 
ENDBRANCH  15  22
ENDBRANCH  14  19
ENDBRANCH  13  14
ENDBRANCH   1  13
TORSDOF 4
