REMARK  Name = ZINCvU0000000GVs.0
REMARK                            x       y       z     vdW  Elec       q    Type
REMARK                         _______ _______ _______ _____ _____    ______ ____
ROOT
ATOM      1  N   LIG    1       -1.100   2.788  -0.203  0.00  0.00    -0.480 N 
ATOM      2  C   LIG    1        0.186   2.288  -0.233  0.00  0.00    +0.060 A 
ATOM      3  C   LIG    1        0.726   1.013  -0.339  0.00  0.00    +0.010 A 
ATOM      4  C   LIG    1        2.095   0.849  -0.346  0.00  0.00    +0.030 A 
ATOM      5  C   LIG    1        2.935   1.949  -0.247  0.00  0.00    +0.000 A 
ATOM      6  C   LIG    1        2.422   3.211  -0.142  0.00  0.00    +0.070 A 
ATOM      7  C   LIG    1        1.038   3.401  -0.134  0.00  0.00    +0.050 A 
ATOM      8  N   LIG    1        0.244   4.499  -0.044  0.00  0.00    -0.480 NA
ATOM      9  C   LIG    1       -1.006   4.140  -0.082  0.00  0.00    +0.290 A 
ENDROOT
BRANCH   9  10
ATOM     10  C   LIG    1       -2.178   5.084  -0.007  0.00  0.00    +0.080 C 
ATOM     11  C   LIG    1       -2.052   6.207  -1.062  0.00  0.00    +0.090 C 
ATOM     12  C   LIG    1       -2.594   7.435  -0.364  0.00  0.00    +0.530 C 
ATOM     13  N   LIG    1       -2.648   7.226   0.963  0.00  0.00    -0.610 N 
ATOM     14  O   LIG    1       -2.931   8.458  -0.921  0.00  0.00    -0.520 OA
ATOM     15  C   LIG    1       -2.158   5.887   1.312  0.00  0.00    +0.300 C 
BRANCH  13  16
ATOM     16  C   LIG    1       -3.133   8.209   1.935  0.00  0.00    +0.350 C 
BRANCH  16  17
ATOM     17  C   LIG    1       -1.982   9.062   2.402  0.00  0.00    -0.110 A 
ATOM     18  C   LIG    1       -1.245   8.683   3.509  0.00  0.00    +0.020 A 
ATOM     19  C   LIG    1       -0.187   9.464   3.935  0.00  0.00    +0.000 A 
ATOM     20  C   LIG    1        0.128  10.629   3.260  0.00  0.00    +0.010 A 
ATOM     21  C   LIG    1       -0.612  11.011   2.157  0.00  0.00    +0.000 A 
ATOM     22  C   LIG    1       -1.668  10.228   1.729  0.00  0.00    +0.030 A 
ENDBRANCH  16  17
ENDBRANCH  13  16
ENDBRANCH   9  10
BRANCH   1  23
ATOM     23  C   LIG    1       -2.337   2.008  -0.286  0.00  0.00    +0.350 C 
BRANCH  23  29
ATOM     24  C   LIG    1       -3.893   3.990  -4.609  0.00  0.00    +0.090 C 
ATOM     25  C   LIG    1       -3.475   2.790  -3.800  0.00  0.00    -0.090 A 
ATOM     26  C   LIG    1       -3.452   1.537  -4.383  0.00  0.00    +0.020 A 
ATOM     27  C   LIG    1       -3.068   0.436  -3.640  0.00  0.00    +0.020 A 
ATOM     28  C   LIG    1       -2.703   0.589  -2.315  0.00  0.00    -0.070 A 
ATOM     29  C   LIG    1       -2.731   1.842  -1.731  0.00  0.00    -0.120 A 
ATOM     30  C   LIG    1       -2.280  -0.610  -1.507  0.00  0.00    +0.090 C 
ATOM     31  C   LIG    1       -3.114   2.943  -2.474  0.00  0.00    +0.020 A 
ENDBRANCH  23  29
ENDBRANCH   1  23
TORSDOF 5
