REMARK  Name = ZINCqH0000004KjE.0
REMARK                            x       y       z     vdW  Elec       q    Type
REMARK                         _______ _______ _______ _____ _____    ______ ____
ROOT
ATOM      1  N   LIG    1       -0.541   7.386   3.036  0.00  0.00    -0.740 N 
ATOM      2  H   LIG    1       -1.077   6.781   3.572  0.00  0.00    +0.400 HD
ATOM      3  C   LIG    1       -0.298   8.637   3.473  0.00  0.00    +0.740 C 
ATOM      4  N   LIG    1       -0.799   9.048   4.655  0.00  0.00    -0.650 N 
ATOM      5  C   LIG    1       -1.631   8.455   5.715  0.00  0.00    +0.270 C 
ATOM      6  C   LIG    1       -0.966   9.426   6.695  0.00  0.00    -0.080 C 
ATOM      7  C   LIG    1       -1.922  10.027   7.721  0.00  0.00    +0.020 C 
ATOM      8  C   LIG    1       -2.147   9.010   8.846  0.00  0.00    +0.210 C 
ATOM      9  O   LIG    1       -0.885   8.620   9.390  0.00  0.00    -0.380 OA
ATOM     10  C   LIG    1       -0.025   7.951   8.466  0.00  0.00    +0.210 C 
ATOM     11  C   LIG    1        0.327   8.905   7.319  0.00  0.00    +0.030 C 
ATOM     12  C   LIG    1       -0.760  10.287   5.449  0.00  0.00    +0.310 C 
ATOM     13  O   LIG    1        0.374   9.396   2.802  0.00  0.00    -0.580 OA
ENDROOT
BRANCH  12  14
ATOM     14  C   LIG    1       -1.910  11.218   5.166  0.00  0.00    -0.090 A 
ATOM     15  C   LIG    1       -3.064  10.733   4.581  0.00  0.00    +0.010 A 
ATOM     16  C   LIG    1       -4.121  11.587   4.325  0.00  0.00    +0.000 A 
ATOM     17  C   LIG    1       -4.019  12.928   4.645  0.00  0.00    +0.000 A 
ATOM     18  C   LIG    1       -2.863  13.414   5.226  0.00  0.00    +0.010 A 
ATOM     19  C   LIG    1       -1.808  12.559   5.486  0.00  0.00    +0.020 A 
ENDBRANCH  12  14
BRANCH   1  20
ATOM     20  C   LIG    1        0.003   6.940   1.751  0.00  0.00    +0.410 C 
BRANCH  20  24
ATOM     21  C   LIG    1       -0.749   3.086   1.275  0.00  0.00    -0.210 A 
ATOM     22  C   LIG    1       -1.698   3.862   0.743  0.00  0.00    +0.210 A 
ATOM     23  N   LIG    1       -1.489   5.156   0.885  0.00  0.00    -0.450 NA
ATOM     24  C   LIG    1       -0.411   5.514   1.498  0.00  0.00    +0.010 A 
ATOM     25  S   LIG    1        0.477   4.136   1.981  0.00  0.00    +0.150 S 
BRANCH  21  27
ATOM     26  C   LIG    1       -0.013   1.086   0.008  0.00  0.00    +0.040 C 
ATOM     27  C   LIG    1       -0.729   1.579   1.267  0.00  0.00    +0.120 C 
ENDBRANCH  21  27
ENDBRANCH  20  24
ENDBRANCH   1  20
TORSDOF 4
