REMARK  Name = ZINCtV000002IdJ1.1
REMARK                            x       y       z     vdW  Elec       q    Type
REMARK                         _______ _______ _______ _____ _____    ______ ____
ROOT
ATOM      1  N   LIG    1       -3.454   5.384   2.901  0.00  0.00    -0.680 N 
ATOM      2  H   LIG    1       -4.130   4.706   3.061  0.00  0.00    +0.410 HD
ATOM      3  C   LIG    1       -2.682   5.318   1.799  0.00  0.00    +0.510 C 
ATOM      4  O   LIG    1       -1.902   6.213   1.551  0.00  0.00    -0.500 OA
ENDROOT
BRANCH   1   8
ATOM      5  C   LIG    1       -2.938   8.497   5.628  0.00  0.00    -0.160 A 
ATOM      6  C   LIG    1       -4.202   7.960   5.418  0.00  0.00    +0.100 A 
ATOM      7  C   LIG    1       -4.373   6.929   4.515  0.00  0.00    -0.030 A 
ATOM      8  C   LIG    1       -3.281   6.430   3.817  0.00  0.00    +0.180 A 
ATOM      9  C   LIG    1       -2.017   6.963   4.031  0.00  0.00    +0.010 A 
ATOM     10  C   LIG    1       -1.846   7.997   4.929  0.00  0.00    +0.100 A 
BRANCH   5  11
ATOM     11  S   LIG    1       -2.720   9.813   6.779  0.00  0.00    -0.010 S 
BRANCH  11  16
ATOM     12  C   LIG    1       -1.128   6.937  11.842  0.00  0.00    +0.090 C 
ATOM     13  C   LIG    1       -1.526   7.655  10.578  0.00  0.00    -0.090 A 
ATOM     14  C   LIG    1       -1.901   6.930   9.462  0.00  0.00    +0.020 A 
ATOM     15  C   LIG    1       -2.266   7.585   8.302  0.00  0.00    +0.000 A 
ATOM     16  C   LIG    1       -2.256   8.974   8.257  0.00  0.00    -0.100 A 
ATOM     17  C   LIG    1       -1.874   9.699   9.380  0.00  0.00    +0.030 A 
ATOM     18  C   LIG    1       -1.514   9.038  10.537  0.00  0.00    -0.070 A 
ATOM     19  C   LIG    1       -1.104   9.823  11.756  0.00  0.00    +0.090 C 
ENDBRANCH  11  16
ENDBRANCH   5  11
ENDBRANCH   1   8
BRANCH   3  20
ATOM     20  C   LIG    1       -2.788   4.133   0.873  0.00  0.00    +0.220 C 
BRANCH  20  21
ATOM     21  N   LIG    1       -1.850   4.300  -0.245  0.00  0.00    -0.670 NA
ATOM     22  H   LIG    1       -0.907   4.431   0.091  0.00  0.00    +0.360 HD
BRANCH  21  23
ATOM     23  C   LIG    1       -1.926   3.161  -1.169  0.00  0.00    +0.190 C 
ATOM     24  C   LIG    1       -3.058   3.392  -2.171  0.00  0.00    +0.050 C 
BRANCH  23  25
ATOM     25  C   LIG    1       -0.620   3.027  -1.909  0.00  0.00    -0.080 A 
ATOM     26  C   LIG    1       -0.087   1.774  -2.150  0.00  0.00    +0.020 A 
ATOM     27  C   LIG    1        1.108   1.650  -2.834  0.00  0.00    +0.020 A 
ATOM     28  C   LIG    1        1.770   2.779  -3.278  0.00  0.00    +0.020 A 
ATOM     29  C   LIG    1        1.238   4.033  -3.038  0.00  0.00    -0.030 A 
ATOM     30 CL   LIG    1        2.070   5.451  -3.595  0.00  0.00    -0.070 Cl
ATOM     31  C   LIG    1        0.042   4.157  -2.353  0.00  0.00    +0.050 A 
ENDBRANCH  23  25
ENDBRANCH  21  23
ENDBRANCH  20  21
ENDBRANCH   3  20
TORSDOF 7
