REMARK  Name = ZINCrg000000tcnZ.0
REMARK                            x       y       z     vdW  Elec       q    Type
REMARK                         _______ _______ _______ _____ _____    ______ ____
ROOT
ATOM      1  O   LIG    1        3.300  -1.646   1.155  0.00  0.00    -0.520 OA
ATOM      2  C   LIG    1        3.296  -0.434   1.162  0.00  0.00    +0.500 C 
ATOM      3  N   LIG    1        2.127   0.236   1.177  0.00  0.00    -0.610 N 
ATOM      4  C   LIG    1        0.849  -0.489   1.185  0.00  0.00    +0.280 C 
ATOM      5  C   LIG    1        0.002  -0.004   0.002  0.00  0.00    +0.300 C 
ATOM      6  N   LIG    1       -0.018   1.465   0.010  0.00  0.00    -1.000 NA
ATOM      7  C   LIG    1        1.260   2.191   0.002  0.00  0.00    +0.300 C 
ATOM      8  C   LIG    1        2.107   1.706   1.185  0.00  0.00    +0.270 C 
ENDROOT
BRANCH   6   9
ATOM      9  S   LIG    1       -1.455   2.289   0.021  0.00  0.00    +2.690 S 
ATOM     10  O   LIG    1       -2.427   1.407  -0.523  0.00  0.00    -0.950 OA
ATOM     11  O   LIG    1       -1.184   3.575  -0.517  0.00  0.00    -0.950 OA
BRANCH   9  12
ATOM     12  C   LIG    1       -1.899   2.539   1.708  0.00  0.00    -0.700 A 
ATOM     13  C   LIG    1       -2.674   1.601   2.365  0.00  0.00    +0.160 A 
ATOM     14  C   LIG    1       -3.019   1.794   3.689  0.00  0.00    -0.020 A 
ATOM     15  C   LIG    1       -2.598   2.932   4.355  0.00  0.00    +0.160 A 
ATOM     16  C   LIG    1       -1.826   3.873   3.695  0.00  0.00    -0.020 A 
ATOM     17  F   LIG    1       -2.938   3.124   5.648  0.00  0.00    -0.130 F 
ATOM     18  C   LIG    1       -1.478   3.676   2.372  0.00  0.00    +0.160 A 
ENDBRANCH   9  12
ENDBRANCH   6   9
BRANCH   2  19
ATOM     19  C   LIG    1        4.599   0.324   1.153  0.00  0.00    +0.310 C 
BRANCH  19  20
ATOM     20  N   LIG    1        5.715  -0.624   1.137  0.00  0.00    -0.590 N 
ATOM     21  C   LIG    1        6.260  -1.090  -0.148  0.00  0.00    +0.270 C 
ATOM     22  C   LIG    1        5.848  -2.549  -0.355  0.00  0.00    +0.010 C 
ATOM     23  C   LIG    1        6.841  -3.490   0.304  0.00  0.00    +0.010 C 
ATOM     24  C   LIG    1        6.853  -3.405   1.819  0.00  0.00    +0.040 C 
ATOM     25  C   LIG    1        7.382  -2.045   2.282  0.00  0.00    +0.050 C 
ATOM     26  C   LIG    1        6.235  -1.055   2.287  0.00  0.00    +0.520 C 
ATOM     27  O   LIG    1        5.785  -0.657   3.341  0.00  0.00    -0.550 OA
ENDBRANCH  19  20
ENDBRANCH   2  19
TORSDOF 4
