REMARK  Name = ZINCpe000000VFBJ.0
REMARK                            x       y       z     vdW  Elec       q    Type
REMARK                         _______ _______ _______ _____ _____    ______ ____
ROOT
ATOM      1  N   LIG    1       -4.027  -1.308   0.054  0.00  0.00    -0.550 NA
ATOM      2  C   LIG    1       -3.889  -0.511  -1.173  0.00  0.00    +0.220 C 
ATOM      3  C   LIG    1       -2.529   0.190  -1.173  0.00  0.00    +0.210 C 
ATOM      4  N   LIG    1       -2.420   1.042   0.019  0.00  0.00    -0.510 N 
ATOM      5  C   LIG    1       -2.558   0.246   1.247  0.00  0.00    +0.220 C 
ATOM      6  C   LIG    1       -3.918  -0.456   1.246  0.00  0.00    +0.180 C 
ENDROOT
BRANCH   4   7
ATOM      7  C   LIG    1       -1.225   1.752   0.017  0.00  0.00    +0.160 A 
ATOM      8  C   LIG    1       -0.013   1.076   0.008  0.00  0.00    -0.020 A 
ATOM      9  C   LIG    1        1.175   1.781   0.000  0.00  0.00    +0.090 A 
ATOM     10  C   LIG    1        1.169   3.165   0.008  0.00  0.00    +0.000 A 
ATOM     11  C   LIG    1       -0.027   3.857   0.024  0.00  0.00    +0.150 A 
ATOM     12  F   LIG    1       -0.027   5.208   0.032  0.00  0.00    -0.120 F 
ATOM     13  C   LIG    1       -1.238   3.156   0.031  0.00  0.00    -0.040 A 
BRANCH  13  14
ATOM     14  C   LIG    1       -2.481   3.865   0.048  0.00  0.00    +0.260 C 
ATOM     15  N   LIG    1       -3.468   4.428   0.061  0.00  0.00    -0.400 NA
ENDBRANCH  13  14
ENDBRANCH   4   7
BRANCH   1  16
ATOM     16  C   LIG    1       -5.290  -2.058   0.056  0.00  0.00    +0.510 C 
BRANCH  16  19
ATOM     17  C   LIG    1       -5.434  -3.971   3.028  0.00  0.00    +0.150 A 
ATOM     18  N   LIG    1       -5.031  -3.769   1.792  0.00  0.00    -0.220 NA
ATOM     19  N   LIG    1       -5.507  -2.645   1.380  0.00  0.00    -0.300 N 
ATOM     20  C   LIG    1       -6.233  -2.099   2.373  0.00  0.00    +0.430 A 
ATOM     21  N   LIG    1       -6.193  -2.921   3.391  0.00  0.00    -0.460 NA
BRANCH  17  22
ATOM     22  C   LIG    1       -5.110  -5.142   3.868  0.00  0.00    +0.570 C 
ATOM     23  O   LIG    1       -4.410  -6.031   3.427  0.00  0.00    -0.480 OA
BRANCH  22  25
ATOM     24  C   LIG    1       -5.232  -6.402   5.892  0.00  0.00    +0.290 C 
ATOM     25  O   LIG    1       -5.591  -5.223   5.124  0.00  0.00    -0.340 OA
ENDBRANCH  22  25
ENDBRANCH  17  22
ENDBRANCH  16  19
ENDBRANCH   1  16
TORSDOF 6
