REMARK  Name = ZINCpk000005Xms5.0
REMARK                            x       y       z     vdW  Elec       q    Type
REMARK                         _______ _______ _______ _____ _____    ______ ____
ROOT
ATOM      1  C   LIG    1       -0.976   3.052   4.045  0.00  0.00    +0.280 C 
ENDROOT
BRANCH   1   2
ATOM      2  C   LIG    1       -0.569   1.589   3.858  0.00  0.00    +0.220 C 
ATOM      3  C   LIG    1        0.920   1.334   4.119  0.00  0.00    +0.040 C 
ATOM      4  C   LIG    1        0.788   0.392   2.914  0.00  0.00    +0.280 C 
ATOM      5  N   LIG    1       -0.335   1.222   2.453  0.00  0.00    -0.640 N 
ATOM      6  C   LIG    1       -0.898   1.519   1.266  0.00  0.00    +0.540 C 
ATOM      7  O   LIG    1       -1.907   2.192   1.224  0.00  0.00    -0.530 OA
BRANCH   6   8
ATOM      8  C   LIG    1       -0.276   1.015  -0.011  0.00  0.00    +0.080 C 
BRANCH   8   9
ATOM      9  C   LIG    1       -1.105   1.491  -1.205  0.00  0.00    +0.170 C 
BRANCH   9  10
ATOM     10  C   LIG    1       -0.483   0.987  -2.482  0.00  0.00    +0.210 A 
ATOM     11  N   LIG    1        0.752   1.186  -2.856  0.00  0.00    -0.490 NA
ATOM     12  C   LIG    1        0.956   0.592  -4.042  0.00  0.00    +0.140 A 
ATOM     13  C   LIG    1       -0.198   0.010  -4.420  0.00  0.00    +0.120 A 
ATOM     14  N   LIG    1       -1.111   0.261  -3.431  0.00  0.00    -0.570 N 
ATOM     15  H   LIG    1       -2.037  -0.030  -3.415  0.00  0.00    +0.420 HD
ENDBRANCH   9  10
ENDBRANCH   8   9
ENDBRANCH   6   8
ENDBRANCH   1   2
BRANCH   1  18
ATOM     16  O   LIG    1       -1.941   5.374   5.021  0.00  0.00    -0.510 OA
ATOM     17  C   LIG    1       -1.762   4.495   5.844  0.00  0.00    +0.590 C 
ATOM     18  N   LIG    1       -1.283   3.296   5.457  0.00  0.00    -0.730 N 
ATOM     19  H   LIG    1       -1.140   2.596   6.112  0.00  0.00    +0.400 HD
BRANCH  17  20
ATOM     20  C   LIG    1       -2.069   4.739   7.256  0.00  0.00    -0.000 A 
ATOM     21  C   LIG    1       -2.556   5.915   7.784  0.00  0.00    +0.090 A 
ATOM     22  C   LIG    1       -2.713   5.729   9.162  0.00  0.00    -0.040 A 
ATOM     23  C   LIG    1       -2.305   4.432   9.456  0.00  0.00    +0.020 A 
ATOM     24  C   LIG    1       -2.467   4.272  10.852  0.00  0.00    -0.050 A 
ATOM     25  C   LIG    1       -2.947   5.432  11.332  0.00  0.00    +0.230 A 
ATOM     26  O   LIG    1       -3.096   6.307  10.322  0.00  0.00    -0.170 OA
ATOM     27  N   LIG    1       -1.913   3.833   8.287  0.00  0.00    -0.530 N 
ATOM     28  H   LIG    1       -1.582   2.926   8.198  0.00  0.00    +0.420 HD
ENDBRANCH  17  20
ENDBRANCH   1  18
TORSDOF 6
