REMARK  Name = ZINCrD000000Bvfm.0
REMARK                            x       y       z     vdW  Elec       q    Type
REMARK                         _______ _______ _______ _____ _____    ______ ____
ROOT
ATOM      1  C   LIG    1        0.102  -5.641   2.845  0.00  0.00    -0.110 A 
ATOM      2  C   LIG    1        0.090  -5.700   1.449  0.00  0.00    +0.090 A 
ATOM      3  C   LIG    1        0.068  -4.537   0.712  0.00  0.00    +0.060 A 
ATOM      4  C   LIG    1        0.058  -3.301   1.358  0.00  0.00    -0.010 A 
ATOM      5  C   LIG    1        0.076  -3.241   2.751  0.00  0.00    +0.070 A 
ATOM      6  C   LIG    1        0.093  -4.404   3.491  0.00  0.00    +0.050 A 
ENDROOT
BRANCH   4   7
ATOM      7  C   LIG    1        0.034  -2.049   0.563  0.00  0.00    +0.220 A 
ATOM      8  N   LIG    1        0.020  -1.957  -0.741  0.00  0.00    -0.340 NA
ATOM      9  O   LIG    1       -0.003  -0.792  -1.078  0.00  0.00    +0.130 OA
ATOM     10  C   LIG    1        0.002  -0.004   0.002  0.00  0.00    +0.090 A 
ATOM     11  N   LIG    1        0.023  -0.787   1.051  0.00  0.00    -0.410 NA
BRANCH  10  12
ATOM     12  C   LIG    1       -0.018   1.503   0.010  0.00  0.00    +0.590 C 
ATOM     13  F   LIG    1       -0.673   1.954   1.161  0.00  0.00    -0.140 F 
ATOM     14  F   LIG    1       -0.695   1.966  -1.123  0.00  0.00    -0.150 F 
ATOM     15  F   LIG    1        1.294   1.987   0.000  0.00  0.00    -0.140 F 
ENDBRANCH  10  12
ENDBRANCH   4   7
BRANCH   1  17
ATOM     16  O   LIG    1        0.133  -7.966   3.074  0.00  0.00    -0.530 OA
ATOM     17  C   LIG    1        0.125  -6.889   3.637  0.00  0.00    +0.560 C 
ATOM     18  N   LIG    1        0.138  -6.832   4.983  0.00  0.00    -0.720 N 
ATOM     19  H   LIG    1        0.131  -5.973   5.433  0.00  0.00    +0.400 HD
BRANCH  18  20
ATOM     20  C   LIG    1        0.160  -8.069   5.769  0.00  0.00    +0.390 C 
BRANCH  20  21
ATOM     21  C   LIG    1        0.170  -7.731   7.237  0.00  0.00    +0.020 A 
ATOM     22  C   LIG    1       -0.909  -7.656   8.033  0.00  0.00    +0.170 A 
ATOM     23  N   LIG    1       -0.464  -7.323   9.309  0.00  0.00    -0.420 N 
ATOM     24  C   LIG    1       -0.985  -7.091  10.561  0.00  0.00    +0.210 A 
ATOM     25  C   LIG    1       -0.159  -6.779  11.544  0.00  0.00    +0.020 A 
ATOM     26  S   LIG    1        1.460  -6.774  10.823  0.00  0.00    +0.160 S 
ATOM     27  C   LIG    1        0.888  -7.205   9.205  0.00  0.00    +0.160 A 
ATOM     28  N   LIG    1        1.257  -7.449   7.970  0.00  0.00    -0.440 NA
ENDBRANCH  20  21
ENDBRANCH  18  20
ENDBRANCH   1  17
TORSDOF 5
