REMARK  Name = ZINCrg00000BzE0M.0
REMARK                            x       y       z     vdW  Elec       q    Type
REMARK                         _______ _______ _______ _____ _____    ______ ____
ROOT
ATOM      1  C   LIG    1        1.108  -1.765  -3.215  0.00  0.00    -0.100 A 
ATOM      2  C   LIG    1        2.398  -1.280  -3.430  0.00  0.00    +0.110 A 
ATOM      3  C   LIG    1        3.111  -1.649  -4.547  0.00  0.00    +0.120 A 
ATOM      4  C   LIG    1        2.552  -2.524  -5.494  0.00  0.00    -0.090 A 
ATOM      5  C   LIG    1        3.121  -3.048  -6.745  0.00  0.00    +0.540 C 
ATOM      6  N   LIG    1        2.368  -3.880  -7.478  0.00  0.00    -0.890 N 
ATOM      7  S   LIG    1        0.927  -4.046  -6.647  0.00  0.00    +2.660 S 
ATOM      8  O   LIG    1        0.858  -5.384  -6.174  0.00  0.00    -0.910 OA
ATOM      9  O   LIG    1       -0.087  -3.421  -7.423  0.00  0.00    -0.910 OA
ATOM     10  O   LIG    1        4.240  -2.736  -7.104  0.00  0.00    -0.460 OA
ATOM     11  C   LIG    1        1.256  -2.999  -5.257  0.00  0.00    -0.620 A 
ATOM     12  C   LIG    1        0.543  -2.641  -4.148  0.00  0.00    +0.200 A 
ENDROOT
BRANCH   1  14
ATOM     13  O   LIG    1       -0.197  -2.206  -1.326  0.00  0.00    -0.520 OA
ATOM     14  C   LIG    1        0.348  -1.363  -2.010  0.00  0.00    +0.560 C 
ATOM     15  N   LIG    1        0.261  -0.061  -1.672  0.00  0.00    -0.600 N 
ATOM     16  C   LIG    1        0.980   0.968  -2.439  0.00  0.00    +0.280 C 
ATOM     17  C   LIG    1       -0.012   2.070  -2.826  0.00  0.00    +0.180 C 
ATOM     18  N   LIG    1       -0.693   2.557  -1.619  0.00  0.00    -0.690 NA
ATOM     19  H   LIG    1       -1.265   3.362  -1.827  0.00  0.00    +0.360 HD
ATOM     20  C   LIG    1       -1.489   1.494  -0.991  0.00  0.00    +0.120 C 
ATOM     21  C   LIG    1       -0.557   0.369  -0.528  0.00  0.00    +0.300 C 
BRANCH  20  22
ATOM     22  C   LIG    1       -2.240   2.063   0.215  0.00  0.00    +0.040 C 
BRANCH  22  23
ATOM     23  C   LIG    1       -3.260   3.099  -0.263  0.00  0.00    +0.370 C 
ATOM     24  F   LIG    1       -2.588   4.189  -0.829  0.00  0.00    -0.200 F 
ATOM     25  F   LIG    1       -4.024   3.537   0.825  0.00  0.00    -0.200 F 
ENDBRANCH  22  23
ENDBRANCH  20  22
ENDBRANCH   1  14
BRANCH   6  26
ATOM     26  C   LIG    1        2.733  -4.515  -8.747  0.00  0.00    +0.220 C 
ATOM     27  C   LIG    1        4.183  -4.375  -9.215  0.00  0.00    +0.070 C 
ATOM     28  C   LIG    1        3.072  -3.598  -9.924  0.00  0.00    +0.030 C 
ENDBRANCH   6  26
TORSDOF 4
