REMARK  Name = ZINCkj000005jM4g.0
REMARK                            x       y       z     vdW  Elec       q    Type
REMARK                         _______ _______ _______ _____ _____    ______ ____
ROOT
ATOM      1  N   LIG    1       -1.749   2.487  -3.167  0.00  0.00    -0.380 N 
ATOM      2  C   LIG    1       -0.391   2.920  -2.813  0.00  0.00    +0.280 C 
ATOM      3  C   LIG    1       -0.157   2.694  -1.317  0.00  0.00    +0.220 C 
ATOM      4  N   LIG    1       -0.332   1.269  -1.006  0.00  0.00    -0.530 NA
ATOM      5  C   LIG    1       -1.680   0.815  -1.378  0.00  0.00    +0.190 C 
ATOM      6  C   LIG    1       -2.721   1.597  -0.576  0.00  0.00    +0.010 C 
ATOM      7  C   LIG    1       -1.901   1.056  -2.873  0.00  0.00    +0.270 C 
ATOM      8  H   LIG    1       -2.421   3.014  -2.628  0.00  0.00    +0.430 HD
ENDROOT
BRANCH   1   9
ATOM      9  C   LIG    1       -1.979   2.720  -4.599  0.00  0.00    +0.280 C 
BRANCH   9  11
ATOM     10  C   LIG    1       -3.675   2.640  -6.432  0.00  0.00    +0.050 C 
ATOM     11  C   LIG    1       -3.438   2.406  -4.939  0.00  0.00    +0.160 C 
BRANCH  11  12
ATOM     12  O   LIG    1       -4.298   3.259  -4.180  0.00  0.00    -0.580 OA
ATOM     13  H   LIG    1       -5.240   3.115  -4.345  0.00  0.00    +0.410 HD
ENDBRANCH  11  12
ENDBRANCH   9  11
ENDBRANCH   1   9
BRANCH   4  14
ATOM     14  C   LIG    1       -0.060   1.002   0.412  0.00  0.00    +0.270 C 
BRANCH  14  15
ATOM     15  C   LIG    1       -0.341  -0.447   0.714  0.00  0.00    -0.210 A 
ATOM     16  C   LIG    1       -1.464  -0.807   1.438  0.00  0.00    +0.120 A 
ATOM     17  C   LIG    1       -1.684  -2.154   1.693  0.00  0.00    -0.050 A 
ATOM     18  C   LIG    1       -0.782  -3.089   1.220  0.00  0.00    +0.190 A 
ATOM     19  N   LIG    1        0.281  -2.715   0.532  0.00  0.00    -0.520 NA
ATOM     20 BR   LIG    1       -1.075  -4.925   1.564  0.00  0.00    +0.010 Br
ATOM     21  C   LIG    1        0.522  -1.441   0.264  0.00  0.00    +0.440 A 
BRANCH  21  22
ATOM     22  N   LIG    1        1.650  -1.093  -0.469  0.00  0.00    -0.840 N 
ATOM     23  H   LIG    1        2.215  -1.785  -0.848  0.00  0.00    +0.410 HD
ATOM     24  H   LIG    1        1.873  -0.158  -0.602  0.00  0.00    +0.410 HD
ENDBRANCH  21  22
ENDBRANCH  14  15
ENDBRANCH   4  14
TORSDOF 6
