REMARK  Name = ZINCkj000005jM4g.1
REMARK                            x       y       z     vdW  Elec       q    Type
REMARK                         _______ _______ _______ _____ _____    ______ ____
ROOT
ATOM      1  N   LIG    1        2.144   0.018   1.189  0.00  0.00    -0.380 N 
ATOM      2  C   LIG    1        0.773  -0.507   1.224  0.00  0.00    +0.270 C 
ATOM      3  C   LIG    1        0.002  -0.004   0.002  0.00  0.00    +0.210 C 
ATOM      4  N   LIG    1       -0.018   1.466   0.010  0.00  0.00    -0.530 NA
ATOM      5  C   LIG    1        1.349   2.006   0.000  0.00  0.00    +0.130 C 
ATOM      6  C   LIG    1        1.294   3.534   0.045  0.00  0.00    +0.080 C 
ATOM      7  C   LIG    1        2.109   1.486   1.222  0.00  0.00    +0.280 C 
ATOM      8  H   LIG    1        2.600  -0.288   0.342  0.00  0.00    +0.420 HD
ENDROOT
BRANCH   1   9
ATOM      9  C   LIG    1        2.890  -0.480   2.353  0.00  0.00    +0.220 C 
BRANCH   9  11
ATOM     10  C   LIG    1        3.701  -2.532   3.523  0.00  0.00    +0.050 C 
ATOM     11  C   LIG    1        3.036  -1.999   2.253  0.00  0.00    +0.200 C 
BRANCH  11  12
ATOM     12  O   LIG    1        3.842  -2.327   1.119  0.00  0.00    -0.560 OA
ATOM     13  H   LIG    1        4.735  -1.956   1.151  0.00  0.00    +0.390 HD
ENDBRANCH  11  12
ENDBRANCH   9  11
ENDBRANCH   1   9
BRANCH   4  14
ATOM     14  C   LIG    1       -0.799   1.988  -1.119  0.00  0.00    +0.260 C 
BRANCH  14  15
ATOM     15  C   LIG    1       -2.247   1.609  -0.946  0.00  0.00    -0.210 A 
ATOM     16  C   LIG    1       -2.777   0.532  -1.635  0.00  0.00    +0.120 A 
ATOM     17  C   LIG    1       -4.116   0.218  -1.446  0.00  0.00    -0.050 A 
ATOM     18  C   LIG    1       -4.875   0.984  -0.582  0.00  0.00    +0.190 A 
ATOM     19  N   LIG    1       -4.342   2.006   0.063  0.00  0.00    -0.520 NA
ATOM     20 BR   LIG    1       -6.700   0.563  -0.319  0.00  0.00    +0.010 Br
ATOM     21  C   LIG    1       -3.068   2.333  -0.087  0.00  0.00    +0.440 A 
BRANCH  21  22
ATOM     22  N   LIG    1       -2.546   3.413   0.616  0.00  0.00    -0.840 N 
ATOM     23  H   LIG    1       -3.114   3.921   1.216  0.00  0.00    +0.410 HD
ATOM     24  H   LIG    1       -1.614   3.659   0.506  0.00  0.00    +0.410 HD
ENDBRANCH  21  22
ENDBRANCH  14  15
ENDBRANCH   4  14
TORSDOF 6
