REMARK  Name = ZINCkj00000y7Img.0
REMARK                            x       y       z     vdW  Elec       q    Type
REMARK                         _______ _______ _______ _____ _____    ______ ____
ROOT
ATOM      1  N   LIG    1        2.058   3.573   1.382  0.00  0.00    -0.710 N 
ATOM      2  H   LIG    1        1.841   2.980   2.119  0.00  0.00    +0.410 HD
ATOM      3  C   LIG    1        2.531   4.810   1.630  0.00  0.00    +0.510 C 
ATOM      4  O   LIG    1        2.803   5.551   0.710  0.00  0.00    -0.510 OA
ENDROOT
BRANCH   3   5
ATOM      5  C   LIG    1        2.724   5.272   3.052  0.00  0.00    +0.020 C 
ATOM      6  C   LIG    1        1.373   5.279   3.801  0.00  0.00    +0.320 C 
ATOM      7  N   LIG    1        0.883   6.675   3.676  0.00  0.00    -0.510 N 
ATOM      8  C   LIG    1        2.103   7.507   3.841  0.00  0.00    +0.320 C 
ATOM      9  H   LIG    1        0.213   6.880   4.403  0.00  0.00    +0.450 HD
ATOM     10  H   LIG    1        0.473   6.825   2.767  0.00  0.00    +0.440 HD
ATOM     11  C   LIG    1        3.203   6.739   3.078  0.00  0.00    +0.020 C 
BRANCH  11  12
ATOM     12  C   LIG    1        4.538   6.848   3.818  0.00  0.00    +0.470 C 
ATOM     13  F   LIG    1        4.380   6.395   5.133  0.00  0.00    -0.180 F 
ATOM     14  F   LIG    1        4.955   8.183   3.832  0.00  0.00    -0.160 F 
ATOM     15  F   LIG    1        5.497   6.065   3.167  0.00  0.00    -0.160 F 
ENDBRANCH  11  12
ENDBRANCH   3   5
BRANCH   1  16
ATOM     16  C   LIG    1        1.871   3.123   0.001  0.00  0.00    +0.380 C 
BRANCH  16  23
ATOM     17  C   LIG    1       -1.234   2.184   0.020  0.00  0.00    +0.160 C 
ATOM     18  C   LIG    1       -0.016   1.298   0.009  0.00  0.00    +0.030 A 
ATOM     19  N   LIG    1        0.002  -0.004   0.002  0.00  0.00    -0.350 NA
ATOM     20  O   LIG    1        1.132  -0.434  -0.011  0.00  0.00    +0.110 OA
ATOM     21  C   LIG    1        2.036   0.556  -0.014  0.00  0.00    +0.010 A 
ATOM     22  C   LIG    1        3.536   0.408  -0.029  0.00  0.00    +0.190 C 
ATOM     23  C   LIG    1        1.335   1.715  -0.002  0.00  0.00    -0.250 A 
ENDBRANCH  16  23
ENDBRANCH   1  16
TORSDOF 4
