REMARK  Name = ZINCrg000000ss1D.0
REMARK                            x       y       z     vdW  Elec       q    Type
REMARK                         _______ _______ _______ _____ _____    ______ ____
ROOT
ATOM      1  N   LIG    1        3.620   1.721  -0.022  0.00  0.00    -0.660 N 
ATOM      2  H   LIG    1        3.604   2.690   0.021  0.00  0.00    +0.420 HD
ATOM      3  C   LIG    1        2.469   1.035  -0.169  0.00  0.00    +0.580 C 
ATOM      4  O   LIG    1        2.496  -0.172  -0.318  0.00  0.00    -0.520 OA
ENDROOT
BRANCH   3   5
ATOM      5  C   LIG    1        1.180   1.746  -0.149  0.00  0.00    -0.230 A 
ATOM      6  C   LIG    1        0.001   1.058  -0.298  0.00  0.00    +0.390 A 
ATOM      7  N   LIG    1       -1.201   1.693  -0.287  0.00  0.00    -0.510 N 
ATOM      8  C   LIG    1       -2.378   0.825  -0.397  0.00  0.00    +0.340 C 
ATOM      9  C   LIG    1       -3.465   1.498  -1.239  0.00  0.00    -0.380 C 
ATOM     10  S   LIG    1       -3.859   3.083  -0.433  0.00  0.00    +2.550 S 
ATOM     11  N   LIG    1       -2.369   3.765  -0.213  0.00  0.00    -0.960 NA
ATOM     12  O   LIG    1       -4.345   2.871   0.885  0.00  0.00    -0.950 OA
ATOM     13  O   LIG    1       -4.528   3.954  -1.335  0.00  0.00    -0.930 OA
ATOM     14  C   LIG    1       -1.267   3.053  -0.161  0.00  0.00    +0.520 A 
ATOM     15  C   LIG    1       -0.069   3.810   0.021  0.00  0.00    +0.030 A 
ATOM     16  C   LIG    1        1.134   3.199   0.030  0.00  0.00    +0.140 A 
ENDBRANCH   3   5
BRANCH   1  20
ATOM     17  C   LIG    1        7.243  -0.235   0.211  0.00  0.00    +0.340 A 
ATOM     18  C   LIG    1        6.120  -0.861   0.739  0.00  0.00    -0.010 A 
ATOM     19  C   LIG    1        4.897  -0.217   0.676  0.00  0.00    +0.110 A 
ATOM     20  C   LIG    1        4.837   1.036   0.070  0.00  0.00    +0.090 A 
ATOM     21  C   LIG    1        6.000   1.599  -0.436  0.00  0.00    +0.290 A 
ATOM     22  N   LIG    1        7.150   0.959  -0.352  0.00  0.00    -0.480 NA
BRANCH  17  28
ATOM     23  C   LIG    1        9.867   0.933  -0.880  0.00  0.00    +0.190 C 
ATOM     24  C   LIG    1        9.667  -0.394  -0.193  0.00  0.00    +0.240 A 
ATOM     25  N   LIG    1       10.600  -1.273   0.051  0.00  0.00    -0.490 NA
ATOM     26  C   LIG    1       10.061  -2.332   0.674  0.00  0.00    +0.170 A 
ATOM     27  C   LIG    1        8.743  -2.102   0.830  0.00  0.00    +0.120 A 
ATOM     28  N   LIG    1        8.486  -0.874   0.276  0.00  0.00    -0.410 N 
ENDBRANCH  17  28
ENDBRANCH   1  20
TORSDOF 3
