REMARK  Name = ZINCqH0000007Qty.0
REMARK                            x       y       z     vdW  Elec       q    Type
REMARK                         _______ _______ _______ _____ _____    ______ ____
ROOT
ATOM      1  C   LIG    1        3.744  -0.966   0.178  0.00  0.00    +0.020 C 
ATOM      2  C   LIG    1        4.361  -1.091  -1.216  0.00  0.00    +0.080 C 
ENDROOT
BRANCH   1   5
ATOM      3  N   LIG    1        2.403   1.104  -0.015  0.00  0.00    -0.650 N 
ATOM      4  H   LIG    1        3.233   1.599  -0.101  0.00  0.00    +0.420 HD
ATOM      5  C   LIG    1        2.426  -0.240   0.080  0.00  0.00    +0.540 C 
ATOM      6  O   LIG    1        1.387  -0.866   0.087  0.00  0.00    -0.510 OA
BRANCH   3  12
ATOM      7  C   LIG    1        1.068   3.043  -0.579  0.00  0.00    +0.100 A 
ATOM      8  C   LIG    1       -0.143   3.714  -0.550  0.00  0.00    -0.060 A 
ATOM      9  C   LIG    1       -1.239   3.136   0.065  0.00  0.00    +0.040 A 
ATOM     10  C   LIG    1       -1.131   1.886   0.646  0.00  0.00    +0.000 A 
ATOM     11  C   LIG    1        0.076   1.213   0.626  0.00  0.00    +0.060 A 
ATOM     12  C   LIG    1        1.179   1.786   0.012  0.00  0.00    +0.120 A 
BRANCH   7  14
ATOM     13  C   LIG    1        1.959   4.901  -1.767  0.00  0.00    +0.250 C 
ATOM     14  O   LIG    1        2.147   3.611  -1.183  0.00  0.00    -0.320 OA
ENDBRANCH   7  14
ENDBRANCH   3  12
ENDBRANCH   1   5
BRANCH   1  15
ATOM     15  S   LIG    1        3.474  -2.617   0.869  0.00  0.00    +0.080 S 
BRANCH  15  16
ATOM     16  C   LIG    1        5.142  -3.166   1.010  0.00  0.00    +0.140 A 
ATOM     17  N   LIG    1        6.217  -2.492   0.673  0.00  0.00    -0.290 NA
ATOM     18  N   LIG    1        7.266  -3.194   0.914  0.00  0.00    -0.280 NA
ATOM     19  C   LIG    1        6.926  -4.352   1.406  0.00  0.00    +0.390 A 
ATOM     20  N   LIG    1        5.561  -4.375   1.486  0.00  0.00    -0.460 N 
BRANCH  20  21
ATOM     21  C   LIG    1        4.723  -5.471   1.978  0.00  0.00    +0.320 C 
BRANCH  21  22
ATOM     22  C   LIG    1        4.260  -6.329   0.799  0.00  0.00    +0.130 C 
BRANCH  22  23
ATOM     23  C   LIG    1        3.397  -7.456   1.306  0.00  0.00    -0.190 A 
ATOM     24  C   LIG    1        2.073  -7.404   1.454  0.00  0.00    +0.020 A 
ATOM     25  C   LIG    1        1.494  -8.565   1.937  0.00  0.00    +0.000 A 
ATOM     26  C   LIG    1        2.348  -9.560   2.180  0.00  0.00    -0.040 A 
ATOM     27  S   LIG    1        3.982  -9.044   1.784  0.00  0.00    +0.100 S 
ENDBRANCH  22  23
ENDBRANCH  21  22
ENDBRANCH  20  21
ENDBRANCH  15  16
ENDBRANCH   1  15
TORSDOF 8
