REMARK  Name = ZINCpk00000e9oGc.0
REMARK                            x       y       z     vdW  Elec       q    Type
REMARK                         _______ _______ _______ _____ _____    ______ ____
ROOT
ATOM      1  C   LIG    1        1.274  -0.420  -0.012  0.00  0.00    -0.030 A 
ATOM      2  C   LIG    1        2.042   0.694  -0.014  0.00  0.00    +0.150 A 
ATOM      3  N   LIG    1        1.187   1.742   0.000  0.00  0.00    -0.290 N 
ATOM      4  N   LIG    1       -0.015   1.282   0.009  0.00  0.00    -0.080 NA
ATOM      5  N   LIG    1        0.002  -0.004   0.002  0.00  0.00    -0.220 NA
ENDROOT
BRANCH   1   6
ATOM      6  C   LIG    1        1.755  -1.848  -0.024  0.00  0.00    +0.190 C 
BRANCH   6   7
ATOM      7  C   LIG    1        1.145  -2.601   1.160  0.00  0.00    +0.140 C 
ATOM      8  C   LIG    1        1.730  -4.015   1.221  0.00  0.00    +0.040 C 
ATOM      9  C   LIG    1        1.071  -4.782   2.371  0.00  0.00    +0.020 C 
ATOM     10  C   LIG    1       -0.447  -4.790   2.162  0.00  0.00    +0.000 C 
ATOM     11  C   LIG    1       -0.947  -3.346   2.064  0.00  0.00    +0.200 C 
ATOM     12  O   LIG    1       -0.272  -2.680   0.995  0.00  0.00    -0.330 OA
BRANCH   7  13
ATOM     13  C   LIG    1        1.463  -1.870   2.439  0.00  0.00    +0.450 C 
ATOM     14  O   LIG    1        2.422  -2.194   3.098  0.00  0.00    -0.500 OA
BRANCH  13  15
ATOM     15  O   LIG    1        0.680  -0.858   2.845  0.00  0.00    -0.330 OA
BRANCH  15  17
ATOM     16  C   LIG    1        0.045   0.919   4.385  0.00  0.00    +0.060 C 
ATOM     17  C   LIG    1        1.046  -0.199   4.086  0.00  0.00    +0.200 C 
ENDBRANCH  15  17
ENDBRANCH  13  15
ENDBRANCH   7  13
ENDBRANCH   6   7
ENDBRANCH   1   6
BRANCH   3  18
ATOM     18  C   LIG    1        1.564   3.158   0.004  0.00  0.00    +0.420 C 
BRANCH  18  19
ATOM     19  C   LIG    1        0.894   3.859  -1.150  0.00  0.00    +0.040 A 
ATOM     20  C   LIG    1        0.106   4.973  -0.920  0.00  0.00    +0.250 A 
ATOM     21  N   LIG    1       -0.477   5.591  -1.932  0.00  0.00    -0.440 NA
ATOM     22  C   LIG    1       -0.316   5.138  -3.163  0.00  0.00    +0.090 A 
ATOM     23  C   LIG    1        0.467   4.021  -3.393  0.00  0.00    +0.230 A 
ATOM     24  C   LIG    1       -0.986   5.840  -4.317  0.00  0.00    +0.140 C 
ATOM     25  N   LIG    1        1.055   3.407  -2.381  0.00  0.00    -0.420 NA
ENDBRANCH  18  19
ENDBRANCH   3  18
TORSDOF 7
