REMARK  Name = ZINCrH000004sNPf.0
REMARK                            x       y       z     vdW  Elec       q    Type
REMARK                         _______ _______ _______ _____ _____    ______ ____
ROOT
ATOM      1  C   LIG    1       -0.907   2.066   4.968  0.00  0.00    -0.110 A 
ATOM      2  C   LIG    1       -1.563   3.128   4.373  0.00  0.00    +0.030 A 
ATOM      3  C   LIG    1       -1.972   3.038   3.056  0.00  0.00    +0.020 A 
ATOM      4  C   LIG    1       -1.726   1.885   2.333  0.00  0.00    -0.110 A 
ATOM      5  C   LIG    1       -1.075   0.821   2.929  0.00  0.00    +0.030 A 
ATOM      6  C   LIG    1       -0.661   0.913   4.245  0.00  0.00    +0.030 A 
ENDROOT
BRANCH   1   7
ATOM      7  C   LIG    1       -0.461   2.164   6.404  0.00  0.00    +0.320 C 
BRANCH   7   9
ATOM      8  C   LIG    1       -1.351   1.673   8.617  0.00  0.00    +0.600 C 
ATOM      9  N   LIG    1       -1.528   1.678   7.281  0.00  0.00    -0.720 N 
ATOM     10  H   LIG    1       -2.362   1.361   6.901  0.00  0.00    +0.400 HD
ATOM     11  O   LIG    1       -0.306   2.071   9.094  0.00  0.00    -0.520 OA
BRANCH   8  18
ATOM     12  C   LIG    1       -1.850  -1.417   9.678  0.00  0.00    +0.170 C 
ATOM     13  C   LIG    1       -2.664  -0.185   9.983  0.00  0.00    +0.060 A 
ATOM     14  N   LIG    1       -3.725  -0.107  10.731  0.00  0.00    -0.350 NA
ATOM     15  O   LIG    1       -4.165   1.016  10.784  0.00  0.00    +0.100 OA
ATOM     16  C   LIG    1       -3.454   1.893  10.072  0.00  0.00    +0.020 A 
ATOM     17  C   LIG    1       -3.726   3.367   9.923  0.00  0.00    +0.200 C 
ATOM     18  C   LIG    1       -2.425   1.183   9.501  0.00  0.00    -0.260 A 
ENDBRANCH   8  18
ENDBRANCH   7   9
ENDBRANCH   1   7
BRANCH   4  19
ATOM     19  C   LIG    1       -2.173   1.787   0.897  0.00  0.00    +0.260 C 
BRANCH  19  20
ATOM     20  N   LIG    1       -1.102   2.274   0.017  0.00  0.00    -0.460 N 
ATOM     21  C   LIG    1       -0.608   3.595   0.464  0.00  0.00    +0.200 C 
ATOM     22  C   LIG    1        0.876   3.565   0.031  0.00  0.00    +0.090 C 
ATOM     23  C   LIG    1        1.188   2.082   0.002  0.00  0.00    -0.140 A 
ATOM     24  C   LIG    1        2.387   1.400  -0.022  0.00  0.00    +0.040 A 
ATOM     25  C   LIG    1        2.397   0.017  -0.033  0.00  0.00    -0.020 A 
ATOM     26  C   LIG    1        1.204  -0.682  -0.019  0.00  0.00    +0.030 A 
ATOM     27  C   LIG    1        0.002  -0.004   0.002  0.00  0.00    -0.020 A 
ATOM     28  C   LIG    1       -0.017   1.389   0.010  0.00  0.00    +0.100 A 
ENDBRANCH  19  20
ENDBRANCH   4  19
TORSDOF 5
