REMARK  Name = ZINCpe000000T30U.0
REMARK                            x       y       z     vdW  Elec       q    Type
REMARK                         _______ _______ _______ _____ _____    ______ ____
ROOT
ATOM      1  C   LIG    1       -0.729  -0.717   0.942  0.00  0.00    +0.510 C 
ATOM      2  N   LIG    1        0.291  -0.005   0.423  0.00  0.00    -0.610 N 
ATOM      3  C   LIG    1        0.243   1.464   0.402  0.00  0.00    +0.280 C 
ATOM      4  C   LIG    1        1.512   2.007   1.067  0.00  0.00    +0.010 C 
ATOM      5  C   LIG    1        2.741   1.408   0.379  0.00  0.00    +0.160 C 
ATOM      6  C   LIG    1        2.726  -0.114   0.540  0.00  0.00    +0.040 C 
ATOM      7  C   LIG    1        1.471  -0.682  -0.131  0.00  0.00    +0.280 C 
ATOM      8  O   LIG    1       -1.651  -0.148   1.487  0.00  0.00    -0.520 OA
ENDROOT
BRANCH   1   9
ATOM      9  C   LIG    1       -0.724  -2.221   0.844  0.00  0.00    +0.290 C 
BRANCH   9  10
ATOM     10  N   LIG    1       -2.084  -2.698   0.581  0.00  0.00    -0.970 NA
ATOM     11  C   LIG    1       -3.253  -2.486   1.438  0.00  0.00    +0.240 C 
ATOM     12  C   LIG    1       -4.549  -3.073   0.869  0.00  0.00    +0.090 C 
ATOM     13  C   LIG    1       -4.126  -4.268  -0.033  0.00  0.00    -0.310 C 
ATOM     14  S   LIG    1       -2.581  -3.574  -0.754  0.00  0.00    +2.560 S 
ATOM     15  O   LIG    1       -1.593  -4.580  -0.934  0.00  0.00    -0.950 OA
ATOM     16  O   LIG    1       -2.861  -2.607  -1.757  0.00  0.00    -0.950 OA
ENDBRANCH   9  10
BRANCH   9  18
ATOM     17  C   LIG    1       -0.170  -4.341   2.045  0.00  0.00    +0.040 C 
ATOM     18  C   LIG    1       -0.221  -2.816   2.160  0.00  0.00    -0.010 C 
ATOM     19  C   LIG    1        1.181  -2.281   2.458  0.00  0.00    +0.030 C 
ENDBRANCH   9  18
ENDBRANCH   1   9
BRANCH   5  20
ATOM     20  O   LIG    1        3.926   1.938   0.976  0.00  0.00    -0.370 OA
BRANCH  20  21
ATOM     21  C   LIG    1        4.403   3.135   0.358  0.00  0.00    +0.140 C 
ATOM     22  C   LIG    1        5.131   4.025   1.390  0.00  0.00    +0.010 C 
ATOM     23  C   LIG    1        6.573   4.129   0.845  0.00  0.00    +0.200 C 
ATOM     24  O   LIG    1        6.450   3.880  -0.572  0.00  0.00    -0.370 OA
ATOM     25  C   LIG    1        5.491   2.807  -0.689  0.00  0.00    +0.180 C 
ENDBRANCH  20  21
ENDBRANCH   5  20
TORSDOF 5
