REMARK  Name = ZINCrD000000gTen.0
REMARK                            x       y       z     vdW  Elec       q    Type
REMARK                         _______ _______ _______ _____ _____    ______ ____
ROOT
ATOM      1  N   LIG    1        3.705  -2.045  -0.045  0.00  0.00    -0.720 N 
ATOM      2  H   LIG    1        2.871  -2.540  -0.040  0.00  0.00    +0.400 HD
ATOM      3  C   LIG    1        3.689  -0.697  -0.037  0.00  0.00    +0.550 C 
ATOM      4  O   LIG    1        4.735  -0.076  -0.044  0.00  0.00    -0.510 OA
ENDROOT
BRANCH   3   5
ATOM      5  C   LIG    1        2.404   0.024  -0.021  0.00  0.00    -0.130 A 
ATOM      6  C   LIG    1        1.200  -0.684  -0.013  0.00  0.00    +0.070 A 
ATOM      7  C   LIG    1        0.002  -0.004   0.002  0.00  0.00    -0.010 A 
ATOM      8  C   LIG    1       -0.017   1.382   0.010  0.00  0.00    +0.060 A 
ATOM      9  C   LIG    1        1.163   2.097   0.002  0.00  0.00    -0.020 A 
ATOM     10  C   LIG    1        2.382   1.429  -0.013  0.00  0.00    -0.060 A 
BRANCH  10  11
ATOM     11  S   LIG    1        3.891   2.338  -0.022  0.00  0.00    +0.090 S 
BRANCH  11  12
ATOM     12  C   LIG    1        3.328   4.063  -0.007  0.00  0.00    +0.030 C 
BRANCH  12  13
ATOM     13  C   LIG    1        4.522   4.981  -0.013  0.00  0.00    +0.540 C 
ATOM     14  O   LIG    1        5.643   4.519  -0.026  0.00  0.00    -0.520 OA
ATOM     15  N   LIG    1        4.345   6.317  -0.005  0.00  0.00    -0.850 N 
ATOM     16  H   LIG    1        5.114   6.909  -0.009  0.00  0.00    +0.410 HD
ATOM     17  H   LIG    1        3.449   6.688   0.006  0.00  0.00    +0.400 HD
ENDBRANCH  12  13
ENDBRANCH  11  12
ENDBRANCH  10  11
ENDBRANCH   3   5
BRANCH   1  18
ATOM     18  C   LIG    1        4.983  -2.762  -0.062  0.00  0.00    +0.290 C 
BRANCH  18  19
ATOM     19  C   LIG    1        4.721  -4.269  -0.068  0.00  0.00    +0.200 C 
BRANCH  19  20
ATOM     20  O   LIG    1        4.067  -4.635  -1.285  0.00  0.00    -0.310 OA
BRANCH  20  24
ATOM     21  C   LIG    1        3.138  -8.622  -1.788  0.00  0.00    -0.100 A 
ATOM     22  C   LIG    1        2.816  -7.709  -2.774  0.00  0.00    +0.050 A 
ATOM     23  C   LIG    1        3.126  -6.373  -2.608  0.00  0.00    -0.020 A 
ATOM     24  C   LIG    1        3.761  -5.948  -1.450  0.00  0.00    +0.120 A 
ATOM     25  C   LIG    1        4.089  -6.868  -0.465  0.00  0.00    -0.080 A 
ATOM     26  C   LIG    1        3.772  -8.202  -0.634  0.00  0.00    +0.050 A 
BRANCH  21  28
ATOM     27  C   LIG    1        3.507 -10.614  -3.219  0.00  0.00    +0.040 C 
ATOM     28  C   LIG    1        2.799 -10.079  -1.972  0.00  0.00    -0.030 C 
ATOM     29  C   LIG    1        1.286 -10.233  -2.139  0.00  0.00    +0.040 C 
ATOM     30  C   LIG    1        3.260 -10.869  -0.746  0.00  0.00    +0.030 C 
ENDBRANCH  21  28
ENDBRANCH  20  24
ENDBRANCH  19  20
ENDBRANCH  18  19
ENDBRANCH   1  18
TORSDOF 9
