REMARK  Name = ZINCvU0000000JEB.0
REMARK                            x       y       z     vdW  Elec       q    Type
REMARK                         _______ _______ _______ _____ _____    ______ ____
ROOT
ATOM      1  O   LIG    1        2.388   6.124   0.947  0.00  0.00    -0.500 OA
ATOM      2  C   LIG    1        3.115   5.273   0.471  0.00  0.00    +0.590 C 
ATOM      3  N   LIG    1        4.145   5.631  -0.321  0.00  0.00    -0.600 N 
ATOM      4  C   LIG    1        4.975   4.612  -0.976  0.00  0.00    +0.260 C 
ATOM      5  C   LIG    1        6.442   4.872  -0.637  0.00  0.00    +0.020 C 
ATOM      6  C   LIG    1        6.802   6.312  -1.011  0.00  0.00    +0.010 C 
ATOM      7  C   LIG    1        5.938   7.282  -0.201  0.00  0.00    +0.020 C 
ATOM      8  C   LIG    1        4.462   7.049  -0.540  0.00  0.00    +0.240 C 
ENDROOT
BRANCH   2   9
ATOM      9  C   LIG    1        2.869   3.852   0.759  0.00  0.00    -0.200 A 
ATOM     10  C   LIG    1        2.602   3.358   1.972  0.00  0.00    +0.120 A 
ATOM     11  C   LIG    1        2.397   1.970   2.029  0.00  0.00    -0.030 A 
ATOM     12  C   LIG    1        2.101   1.161   3.152  0.00  0.00    -0.010 A 
ATOM     13  C   LIG    1        1.936  -0.181   3.012  0.00  0.00    +0.120 A 
ATOM     14  C   LIG    1        2.054  -0.784   1.766  0.00  0.00    +0.060 A 
ATOM     15  C   LIG    1        2.341  -0.026   0.656  0.00  0.00    +0.120 A 
ATOM     16  C   LIG    1        2.516   1.357   0.775  0.00  0.00    -0.160 A 
ATOM     17  S   LIG    1        2.885   2.573  -0.442  0.00  0.00    +0.180 S 
BRANCH  12  18
ATOM     18  N   LIG    1        1.964   1.783   4.489  0.00  0.00    +0.030 N 
ATOM     19  O   LIG    1        2.111   2.985   4.620  0.00  0.00    -0.150 OA
ATOM     20  O   LIG    1        1.704   1.092   5.458  0.00  0.00    -0.150 OA
ENDBRANCH  12  18
ENDBRANCH   2   9
BRANCH   8  21
ATOM     21  C   LIG    1        3.583   7.917   0.363  0.00  0.00    +0.170 C 
BRANCH  21  22
ATOM     22  C   LIG    1        4.000   9.359   0.234  0.00  0.00    +0.070 A 
ATOM     23  C   LIG    1        3.507  10.158  -0.716  0.00  0.00    -0.060 A 
ATOM     24  S   LIG    1        4.237  11.752  -0.531  0.00  0.00    +0.100 S 
ATOM     25  C   LIG    1        5.161  11.163   0.849  0.00  0.00    +0.140 A 
ATOM     26  N   LIG    1        4.868   9.910   1.053  0.00  0.00    -0.430 NA
BRANCH  25  27
ATOM     27  C   LIG    1        6.112  11.964   1.650  0.00  0.00    +0.050 A 
ATOM     28  C   LIG    1        6.427  13.270   1.457  0.00  0.00    +0.190 A 
ATOM     29  O   LIG    1        7.325  13.601   2.403  0.00  0.00    -0.200 OA
ATOM     30  C   LIG    1        7.554  12.518   3.158  0.00  0.00    +0.440 A 
ATOM     31  N   LIG    1        6.828  11.531   2.720  0.00  0.00    -0.450 NA
ENDBRANCH  25  27
ENDBRANCH  21  22
ENDBRANCH   8  21
TORSDOF 5
