REMARK  Name = ZINCrD000000AALd.0
REMARK                            x       y       z     vdW  Elec       q    Type
REMARK                         _______ _______ _______ _____ _____    ______ ____
ROOT
ATOM      1  C   LIG    1        2.288   1.743   1.858  0.00  0.00    +0.530 C 
ATOM      2  N   LIG    1        1.244   1.859   2.702  0.00  0.00    -0.620 N 
ATOM      3  C   LIG    1        1.207   2.701   3.912  0.00  0.00    +0.250 C 
ATOM      4  C   LIG    1        0.136   2.045   4.819  0.00  0.00    +0.040 C 
ATOM      5  C   LIG    1       -0.917   1.579   3.775  0.00  0.00    +0.030 C 
ATOM      6  C   LIG    1       -0.046   1.166   2.570  0.00  0.00    +0.220 C 
ATOM      7  O   LIG    1        2.178   1.087   0.844  0.00  0.00    -0.530 OA
ENDROOT
BRANCH   1   8
ATOM      8  C   LIG    1        3.593   2.427   2.175  0.00  0.00    +0.050 C 
BRANCH   8   9
ATOM      9  C   LIG    1        4.604   2.137   1.064  0.00  0.00    +0.290 C 
BRANCH   9  12
ATOM     10  O   LIG    1        6.806   2.031  -0.487  0.00  0.00    -0.520 OA
ATOM     11  C   LIG    1        6.917   2.686   0.527  0.00  0.00    +0.510 C 
ATOM     12  N   LIG    1        5.873   2.802   1.372  0.00  0.00    -0.740 N 
ATOM     13  H   LIG    1        5.961   3.326   2.183  0.00  0.00    +0.400 HD
BRANCH  11  14
ATOM     14  C   LIG    1        8.222   3.370   0.844  0.00  0.00    +0.100 C 
BRANCH  14  15
ATOM     15  C   LIG    1        9.217   3.084  -0.250  0.00  0.00    -0.070 A 
ATOM     16  C   LIG    1       10.046   1.982  -0.160  0.00  0.00    +0.010 A 
ATOM     17  C   LIG    1       10.957   1.717  -1.166  0.00  0.00    +0.000 A 
ATOM     18  C   LIG    1       11.044   2.560  -2.258  0.00  0.00    +0.000 A 
ATOM     19  C   LIG    1       10.219   3.666  -2.346  0.00  0.00    +0.000 A 
ATOM     20  C   LIG    1        9.306   3.928  -1.342  0.00  0.00    +0.010 A 
ENDBRANCH  14  15
ENDBRANCH  11  14
ENDBRANCH   9  12
ENDBRANCH   8   9
ENDBRANCH   1   8
BRANCH   6  21
ATOM     21  C   LIG    1       -0.729   1.583   1.266  0.00  0.00    +0.020 C 
BRANCH  21  22
ATOM     22  C   LIG    1       -2.001   0.756   1.070  0.00  0.00    +0.060 C 
BRANCH  22  23
ATOM     23  C   LIG    1       -2.735   1.245  -0.152  0.00  0.00    -0.080 A 
ATOM     24  C   LIG    1       -3.685   2.243  -0.035  0.00  0.00    +0.000 A 
ATOM     25  C   LIG    1       -4.354   2.695  -1.157  0.00  0.00    +0.000 A 
ATOM     26  C   LIG    1       -4.081   2.142  -2.394  0.00  0.00    -0.010 A 
ATOM     27  C   LIG    1       -3.134   1.141  -2.511  0.00  0.00    +0.000 A 
ATOM     28  C   LIG    1       -2.461   0.693  -1.390  0.00  0.00    +0.000 A 
ENDBRANCH  22  23
ENDBRANCH  21  22
ENDBRANCH   6  21
TORSDOF 8
