REMARK  Name = ZINCpe000000XpJR.0
REMARK                            x       y       z     vdW  Elec       q    Type
REMARK                         _______ _______ _______ _____ _____    ______ ____
ROOT
ATOM      1  N   LIG    1       -1.240  -1.416  -3.273  0.00  0.00    -0.560 N 
ATOM      2  C   LIG    1       -0.527  -1.578  -4.394  0.00  0.00    +0.710 C 
ATOM      3  N   LIG    1       -1.206  -2.248  -5.342  0.00  0.00    -0.710 N 
ATOM      4  H   LIG    1       -0.888  -2.479  -6.229  0.00  0.00    +0.440 HD
ATOM      5  C   LIG    1       -2.528  -2.563  -4.772  0.00  0.00    +0.170 C 
ATOM      6  C   LIG    1       -2.737  -4.077  -4.701  0.00  0.00    +0.100 C 
ATOM      7  O   LIG    1        0.607  -1.167  -4.538  0.00  0.00    -0.530 OA
ATOM      8  C   LIG    1       -2.463  -1.972  -3.377  0.00  0.00    +0.540 C 
ATOM      9  O   LIG    1       -3.332  -1.993  -2.532  0.00  0.00    -0.440 OA
ENDROOT
BRANCH   5  10
ATOM     10  C   LIG    1       -3.622  -1.915  -5.580  0.00  0.00    -0.140 A 
ATOM     11  C   LIG    1       -3.306  -1.172  -6.701  0.00  0.00    +0.060 A 
ATOM     12  C   LIG    1       -4.311  -0.583  -7.447  0.00  0.00    +0.010 A 
ATOM     13  C   LIG    1       -5.631  -0.726  -7.064  0.00  0.00    +0.060 A 
ATOM     14  C   LIG    1       -5.949  -1.464  -5.940  0.00  0.00    -0.010 A 
ATOM     15  C   LIG    1       -4.945  -2.060  -5.197  0.00  0.00    +0.130 A 
ATOM     16  F   LIG    1       -5.255  -2.781  -4.097  0.00  0.00    -0.120 F 
ENDBRANCH   5  10
BRANCH   1  17
ATOM     17  C   LIG    1       -0.749  -0.725  -2.078  0.00  0.00    +0.360 C 
BRANCH  17  24
ATOM     18  C   LIG    1       -1.904   4.938   0.109  0.00  0.00    +0.080 C 
ATOM     19  C   LIG    1       -1.734   3.418   0.070  0.00  0.00    +0.130 C 
ATOM     20  C   LIG    1       -1.056   3.013  -1.243  0.00  0.00    +0.260 C 
ATOM     21  N   LIG    1       -0.734   1.578  -1.176  0.00  0.00    -0.610 N 
ATOM     22  C   LIG    1       -0.013   1.086   0.008  0.00  0.00    +0.250 C 
ATOM     23  C   LIG    1       -0.741   1.585   1.261  0.00  0.00    +0.220 C 
ATOM     24  C   LIG    1       -1.090   0.740  -2.170  0.00  0.00    +0.510 C 
ATOM     25  O   LIG    1       -1.684   1.165  -3.138  0.00  0.00    -0.520 OA
ATOM     26  O   LIG    1       -0.919   3.001   1.169  0.00  0.00    -0.370 OA
ENDBRANCH  17  24
ENDBRANCH   1  17
TORSDOF 3
