REMARK  Name = ZINCkj00000XVQXP.1
REMARK                            x       y       z     vdW  Elec       q    Type
REMARK                         _______ _______ _______ _____ _____    ______ ____
ROOT
ATOM      1  C   LIG    1        3.472   1.699  -0.022  0.00  0.00    +0.380 A 
ATOM      2  N   LIG    1        3.460   3.020  -0.016  0.00  0.00    -0.600 NA
ATOM      3  C   LIG    1        2.301   3.676  -0.001  0.00  0.00    +0.640 A 
ATOM      4  N   LIG    1        1.157   3.001   0.002  0.00  0.00    -0.640 NA
ATOM      5  C   LIG    1        1.175   1.672  -0.000  0.00  0.00    +0.630 A 
ATOM      6  N   LIG    1        2.337   1.023  -0.015  0.00  0.00    -0.610 NA
ENDROOT
BRANCH   1   8
ATOM      7  C   LIG    1        5.938   1.967  -0.045  0.00  0.00    +0.110 C 
ATOM      8  C   LIG    1        4.786   0.960  -0.039  0.00  0.00    +0.370 C 
ATOM      9  F   LIG    1        4.858   0.163  -1.187  0.00  0.00    -0.180 F 
ATOM     10  F   LIG    1        4.880   0.150   1.098  0.00  0.00    -0.180 F 
ENDBRANCH   1   8
BRANCH   3  11
ATOM     11  N   LIG    1        2.289   5.056   0.006  0.00  0.00    -0.800 N 
ATOM     12  H   LIG    1        1.445   5.533   0.017  0.00  0.00    +0.420 HD
ATOM     13  H   LIG    1        3.124   5.548   0.000  0.00  0.00    +0.420 HD
ENDBRANCH   3  11
BRANCH   5  14
ATOM     14  N   LIG    1       -0.011   0.966   0.007  0.00  0.00    -0.690 N 
ATOM     15  H   LIG    1        0.002  -0.004   0.002  0.00  0.00    +0.420 HD
BRANCH  14  16
ATOM     16  C   LIG    1       -1.290   1.681   0.017  0.00  0.00    +0.300 C 
BRANCH  16  17
ATOM     17  C   LIG    1       -2.439   0.671   0.017  0.00  0.00    -0.030 C 
ATOM     18  C   LIG    1       -3.789   1.421  -0.100  0.00  0.00    +0.040 C 
ATOM     19  C   LIG    1       -4.865   0.508  -0.464  0.00  0.00    +0.050 C 
ATOM     20  C   LIG    1       -5.094  -0.601   0.576  0.00  0.00    +0.250 C 
ATOM     21  N   LIG    1       -4.151  -1.660   0.309  0.00  0.00    -0.500 N 
ATOM     22  C   LIG    1       -2.943  -1.550   1.156  0.00  0.00    +0.250 C 
ATOM     23  H   LIG    1       -3.876  -1.618  -0.661  0.00  0.00    +0.430 HD
ATOM     24  H   LIG    1       -4.596  -2.548   0.485  0.00  0.00    +0.430 HD
ATOM     25  C   LIG    1       -2.426  -0.108   1.305  0.00  0.00    +0.050 C 
ENDBRANCH  16  17
ENDBRANCH  14  16
ENDBRANCH   5  14
TORSDOF 5
