REMARK  Name = ZINCrg000000sWsc.0
REMARK                            x       y       z     vdW  Elec       q    Type
REMARK                         _______ _______ _______ _____ _____    ______ ____
ROOT
ATOM      1  N   LIG    1        3.338  -3.810   1.008  0.00  0.00    -0.520 NA
ATOM      2  C   LIG    1        3.837  -3.029  -0.132  0.00  0.00    +0.210 C 
ATOM      3  C   LIG    1        3.304  -1.597  -0.038  0.00  0.00    +0.250 C 
ATOM      4  N   LIG    1        1.835  -1.624  -0.025  0.00  0.00    -0.450 N 
ATOM      5  C   LIG    1        1.336  -2.405   1.115  0.00  0.00    +0.220 C 
ATOM      6  C   LIG    1        1.869  -3.837   1.021  0.00  0.00    +0.210 C 
ENDROOT
BRANCH   4   7
ATOM      7  C   LIG    1        1.315  -0.342  -0.012  0.00  0.00    +0.430 A 
ATOM      8  N   LIG    1        2.002   0.780  -0.013  0.00  0.00    -0.350 NA
ATOM      9  N   LIG    1        1.212   1.792   0.000  0.00  0.00    -0.020 NA
ATOM     10  N   LIG    1       -0.017   1.402   0.010  0.00  0.00    -0.080 NA
ATOM     11  N   LIG    1        0.002  -0.004   0.002  0.00  0.00    -0.340 N 
BRANCH  11  12
ATOM     12  C   LIG    1       -1.100  -0.871   0.008  0.00  0.00    +0.120 A 
ATOM     13  C   LIG    1       -1.048  -2.068  -0.693  0.00  0.00    +0.030 A 
ATOM     14  C   LIG    1       -2.133  -2.922  -0.681  0.00  0.00    +0.040 A 
ATOM     15  C   LIG    1       -3.275  -2.581   0.019  0.00  0.00    +0.030 A 
ATOM     16  C   LIG    1       -3.333  -1.387   0.714  0.00  0.00    +0.040 A 
ATOM     17  C   LIG    1       -2.248  -0.531   0.710  0.00  0.00    +0.040 A 
ENDBRANCH  11  12
ENDBRANCH   4   7
BRANCH   1  18
ATOM     18  C   LIG    1        3.890  -5.171   0.995  0.00  0.00    +0.190 C 
BRANCH  18  19
ATOM     19  C   LIG    1        3.176  -6.012   2.022  0.00  0.00    -0.090 A 
ATOM     20  C   LIG    1        2.855  -5.474   3.254  0.00  0.00    +0.040 A 
ATOM     21  C   LIG    1        2.197  -6.244   4.194  0.00  0.00    +0.010 A 
ATOM     22  C   LIG    1        1.869  -7.555   3.907  0.00  0.00    +0.010 A 
ATOM     23  C   LIG    1        2.194  -8.095   2.676  0.00  0.00    +0.010 A 
ATOM     24  C   LIG    1        2.848  -7.324   1.734  0.00  0.00    +0.010 A 
ENDBRANCH  18  19
BRANCH  18  28
ATOM     25  N   LIG    1        6.080  -6.260   1.365  0.00  0.00    -0.850 N 
ATOM     26  H   LIG    1        7.026  -6.227   1.575  0.00  0.00    +0.410 HD
ATOM     27  H   LIG    1        5.651  -7.112   1.188  0.00  0.00    +0.400 HD
ATOM     28  C   LIG    1        5.360  -5.121   1.320  0.00  0.00    +0.530 C 
ATOM     29  O   LIG    1        5.896  -4.056   1.541  0.00  0.00    -0.520 OA
ENDBRANCH  18  28
ENDBRANCH   1  18
TORSDOF 5
