REMARK  Name = ZINCvU0000000JWQ.0
REMARK                            x       y       z     vdW  Elec       q    Type
REMARK                         _______ _______ _______ _____ _____    ______ ____
ROOT
ATOM      1  C   LIG    1       -3.751  -4.811   0.010  0.00  0.00    +0.160 A 
ATOM      2  N   LIG    1       -4.463  -5.092   1.065  0.00  0.00    -0.260 NA
ATOM      3  N   LIG    1       -5.624  -5.516   0.713  0.00  0.00    -0.290 NA
ATOM      4  C   LIG    1       -5.714  -5.537  -0.596  0.00  0.00    +0.150 A 
ATOM      5  N   LIG    1       -4.521  -5.088  -1.086  0.00  0.00    -0.450 N 
ENDROOT
BRANCH   5   6
ATOM      6  C   LIG    1       -4.144  -4.935  -2.493  0.00  0.00    +0.240 C 
ATOM      7  C   LIG    1       -5.098  -3.951  -3.173  0.00  0.00    +0.020 C 
ATOM      8  C   LIG    1       -4.705  -3.791  -4.642  0.00  0.00    +0.030 C 
ATOM      9  C   LIG    1       -4.787  -5.148  -5.343  0.00  0.00    +0.010 C 
ATOM     10  C   LIG    1       -3.832  -6.132  -4.664  0.00  0.00    +0.040 C 
ATOM     11  C   LIG    1       -4.226  -6.292  -3.194  0.00  0.00    +0.010 C 
ENDBRANCH   5   6
BRANCH   1  12
ATOM     12  C   LIG    1       -2.339  -4.285  -0.000  0.00  0.00    +0.400 C 
BRANCH  12  13
ATOM     13  N   LIG    1       -2.364  -2.820   0.009  0.00  0.00    -0.740 N 
ATOM     14  H   LIG    1       -3.212  -2.350   0.019  0.00  0.00    +0.400 HD
BRANCH  13  19
ATOM     15  C   LIG    1        0.002  -0.004   0.002  0.00  0.00    +0.170 A 
ATOM     16  C   LIG    1        1.213  -0.682  -0.019  0.00  0.00    -0.130 A 
ATOM     17  C   LIG    1        1.233  -2.064  -0.022  0.00  0.00    +0.100 A 
ATOM     18  C   LIG    1        0.049  -2.775  -0.014  0.00  0.00    -0.110 A 
ATOM     19  C   LIG    1       -1.166  -2.102   0.001  0.00  0.00    +0.250 A 
ATOM     20  C   LIG    1       -1.189  -0.714   0.010  0.00  0.00    -0.100 A 
BRANCH  15  22
ATOM     21  C   LIG    1        1.248   2.021   0.001  0.00  0.00    +0.250 C 
ATOM     22  O   LIG    1       -0.016   1.355   0.009  0.00  0.00    -0.320 OA
ENDBRANCH  15  22
ENDBRANCH  13  19
ENDBRANCH  12  13
ENDBRANCH   1  12
BRANCH   4  23
ATOM     23  S   LIG    1       -7.109  -6.048  -1.543  0.00  0.00    +0.080 S 
BRANCH  23  24
ATOM     24  C   LIG    1       -8.251  -6.486  -0.209  0.00  0.00    +0.080 C 
BRANCH  24  25
ATOM     25  C   LIG    1       -9.552  -6.965  -0.798  0.00  0.00    +0.450 C 
ATOM     26  O   LIG    1       -9.694  -7.007  -2.003  0.00  0.00    -0.440 OA
BRANCH  25  27
ATOM     27  C   LIG    1      -10.607  -7.366   0.051  0.00  0.00    -0.320 A 
ATOM     28  C   LIG    1      -11.836  -7.814  -0.362  0.00  0.00    +0.140 A 
ATOM     29  C   LIG    1      -12.671  -8.141   0.676  0.00  0.00    -0.020 A 
ATOM     30  C   LIG    1      -12.155  -7.960   1.900  0.00  0.00    -0.180 A 
ATOM     31  C   LIG    1      -12.888  -8.244   3.186  0.00  0.00    +0.140 C 
ATOM     32  S   LIG    1      -10.559  -7.365   1.809  0.00  0.00    +0.240 S 
ENDBRANCH  25  27
ENDBRANCH  24  25
ENDBRANCH  23  24
ENDBRANCH   4  23
TORSDOF 9
