REMARK  Name = ZINCnE000001N1Oq.0
REMARK                            x       y       z     vdW  Elec       q    Type
REMARK                         _______ _______ _______ _____ _____    ______ ____
ROOT
ATOM      1  C   LIG    1       -0.076   5.774   0.032  0.00  0.00    +0.300 C 
ENDROOT
BRANCH   1   2
ATOM      2  C   LIG    1       -0.056   4.267   0.025  0.00  0.00    -0.100 A 
ATOM      3  C   LIG    1        1.151   3.592   0.010  0.00  0.00    +0.020 A 
ATOM      4  C   LIG    1        1.169   2.210   0.003  0.00  0.00    +0.000 A 
ATOM      5  C   LIG    1       -0.018   1.503   0.010  0.00  0.00    -0.080 A 
ATOM      6  C   LIG    1       -1.225   2.178   0.020  0.00  0.00    +0.000 A 
ATOM      7  C   LIG    1       -1.244   3.560   0.032  0.00  0.00    +0.040 A 
BRANCH   5   8
ATOM      8  C   LIG    1        0.002  -0.004   0.002  0.00  0.00    +0.040 C 
ATOM      9  C   LIG    1       -0.724  -0.517  -1.243  0.00  0.00    +0.030 C 
ATOM     10  C   LIG    1       -0.703  -2.047  -1.252  0.00  0.00    +0.000 C 
ATOM     11  C   LIG    1       -1.406  -2.573   0.002  0.00  0.00    +0.000 C 
ATOM     12  C   LIG    1       -0.679  -2.060   1.247  0.00  0.00    +0.000 C 
ATOM     13  C   LIG    1       -0.700  -0.530   1.255  0.00  0.00    +0.010 C 
ENDBRANCH   5   8
ENDBRANCH   1   2
BRANCH   1  15
ATOM     14  C   LIG    1       -0.117   7.595  -1.587  0.00  0.00    +0.570 C 
ATOM     15  N   LIG    1       -0.096   6.269  -1.347  0.00  0.00    -0.710 N 
ATOM     16  H   LIG    1       -0.095   5.642  -2.087  0.00  0.00    +0.410 HD
ATOM     17  O   LIG    1       -0.118   8.379  -0.661  0.00  0.00    -0.570 OA
BRANCH  14  21
ATOM     18  C   LIG    1       -0.954  10.160  -4.400  0.00  0.00    +0.050 C 
ATOM     19  C   LIG    1       -0.157   9.620  -3.211  0.00  0.00    -0.010 C 
ATOM     20  C   LIG    1        1.113   8.823  -3.515  0.00  0.00    +0.050 C 
ATOM     21  C   LIG    1       -0.137   8.104  -3.005  0.00  0.00    -0.230 C 
BRANCH  21  22
ATOM     22  C   LIG    1       -0.903   7.257  -3.988  0.00  0.00    +0.530 C 
ATOM     23  O   LIG    1       -0.618   7.290  -5.173  0.00  0.00    -0.680 OA
ATOM     24  O   LIG    1       -1.809   6.540  -3.599  0.00  0.00    -0.680 OA
ENDBRANCH  21  22
ENDBRANCH  14  21
ENDBRANCH   1  15
TORSDOF 5
