REMARK  Name = ZINCqH0000051hGe.0
REMARK                            x       y       z     vdW  Elec       q    Type
REMARK                         _______ _______ _______ _____ _____    ______ ____
ROOT
ATOM      1  O   LIG    1        6.549   3.454   0.656  0.00  0.00    -0.590 OA
ATOM      2  C   LIG    1        5.895   3.279  -0.354  0.00  0.00    +0.730 C 
ATOM      3  N   LIG    1        4.569   3.057  -0.269  0.00  0.00    -0.630 N 
ATOM      4  C   LIG    1        3.727   2.989   0.950  0.00  0.00    +0.260 C 
ATOM      5  C   LIG    1        2.440   3.756   0.568  0.00  0.00    +0.010 C 
ATOM      6  C   LIG    1        2.360   3.646  -0.969  0.00  0.00    +0.010 C 
ATOM      7  C   LIG    1        3.350   1.514   1.163  0.00  0.00    +0.020 C 
ATOM      8  C   LIG    1        2.490   1.048  -0.016  0.00  0.00    +0.040 C 
ATOM      9  C   LIG    1        3.219   1.337  -1.331  0.00  0.00    +0.020 C 
ATOM     10  C   LIG    1        3.605   2.823  -1.371  0.00  0.00    +0.220 C 
ATOM     11  N   LIG    1        6.498   3.307  -1.559  0.00  0.00    -0.750 N 
ATOM     12  H   LIG    1        5.976   3.167  -2.365  0.00  0.00    +0.390 HD
ENDROOT
BRANCH   8  13
ATOM     13  C   LIG    1        1.175   1.783   0.000  0.00  0.00    -0.080 A 
ATOM     14  C   LIG    1        0.634   2.205   1.201  0.00  0.00    +0.030 A 
ATOM     15  C   LIG    1       -0.575   2.875   1.216  0.00  0.00    -0.030 A 
ATOM     16  C   LIG    1       -1.238   3.132   0.031  0.00  0.00    +0.010 A 
ATOM     17  C   LIG    1       -0.697   2.710  -1.169  0.00  0.00    -0.030 A 
ATOM     18  C   LIG    1        0.509   2.036  -1.185  0.00  0.00    +0.030 A 
ENDBRANCH   8  13
BRANCH  11  19
ATOM     19  C   LIG    1        7.940   3.548  -1.652  0.00  0.00    +0.280 C 
BRANCH  19  20
ATOM     20  C   LIG    1        8.366   3.530  -3.121  0.00  0.00    +0.010 C 
BRANCH  20  21
ATOM     21  C   LIG    1        9.872   3.782  -3.218  0.00  0.00    +0.030 C 
BRANCH  21  22
ATOM     22  C   LIG    1       10.299   3.763  -4.687  0.00  0.00    +0.300 C 
BRANCH  22  23
ATOM     23  N   LIG    1       11.741   4.005  -4.780  0.00  0.00    -0.460 N 
ATOM     24  C   LIG    1       12.726   3.054  -4.764  0.00  0.00    +0.110 A 
ATOM     25  C   LIG    1       13.899   3.707  -4.872  0.00  0.00    +0.140 A 
ATOM     26  N   LIG    1       13.637   5.020  -4.952  0.00  0.00    -0.500 NA
ATOM     27  C   LIG    1       12.346   5.205  -4.903  0.00  0.00    +0.380 A 
ENDBRANCH  22  23
ENDBRANCH  21  22
ENDBRANCH  20  21
ENDBRANCH  19  20
ENDBRANCH  11  19
TORSDOF 6
