REMARK  Name = ZINCrg000015AK4l.0
REMARK                            x       y       z     vdW  Elec       q    Type
REMARK                         _______ _______ _______ _____ _____    ______ ____
ROOT
ATOM      1  N   LIG    1        1.154   3.499  -0.002  0.00  0.00    -0.640 N 
ATOM      2  H   LIG    1        0.310   3.976  -0.028  0.00  0.00    +0.430 HD
ENDROOT
BRANCH   1  11
ATOM      3  C   LIG    1        1.803   5.484   2.356  0.00  0.00    -0.260 A 
ATOM      4  C   LIG    1        2.640   6.387   3.013  0.00  0.00    +0.290 A 
ATOM      5  N   LIG    1        3.770   6.508   2.339  0.00  0.00    -0.530 NA
ATOM      6  C   LIG    1        3.784   5.761   1.244  0.00  0.00    +0.280 A 
ATOM      7  N   LIG    1        4.701   5.557   0.236  0.00  0.00    -0.530 N 
ATOM      8  H   LIG    1        5.552   6.021   0.251  0.00  0.00    +0.430 HD
ATOM      9  C   LIG    1        4.414   4.712  -0.768  0.00  0.00    +0.620 A 
ATOM     10  N   LIG    1        3.282   4.060  -0.838  0.00  0.00    -0.550 NA
ATOM     11  C   LIG    1        2.334   4.196   0.096  0.00  0.00    +0.500 A 
ATOM     12  C   LIG    1        2.559   5.064   1.171  0.00  0.00    -0.190 A 
BRANCH   3  16
ATOM     13  N   LIG    1       -0.134   5.618   3.827  0.00  0.00    -0.850 N 
ATOM     14  H   LIG    1       -1.048   5.384   4.052  0.00  0.00    +0.400 HD
ATOM     15  H   LIG    1        0.350   6.261   4.370  0.00  0.00    +0.400 HD
ATOM     16  C   LIG    1        0.465   5.051   2.761  0.00  0.00    +0.600 C 
ATOM     17  O   LIG    1       -0.108   4.178   2.134  0.00  0.00    -0.560 OA
ENDBRANCH   3  16
ENDBRANCH   1  11
BRANCH   1  18
ATOM     18  C   LIG    1        1.170   2.103  -0.063  0.00  0.00    +0.210 A 
ATOM     19  C   LIG    1       -0.024   1.393  -0.068  0.00  0.00    -0.030 A 
ATOM     20  C   LIG    1       -0.004   0.013  -0.130  0.00  0.00    +0.070 A 
ATOM     21  C   LIG    1        1.202  -0.661  -0.187  0.00  0.00    -0.150 A 
ATOM     22  C   LIG    1        2.392   0.043  -0.182  0.00  0.00    +0.050 A 
ATOM     23  C   LIG    1        2.380   1.423  -0.121  0.00  0.00    -0.040 A 
BRANCH  21  24
ATOM     24  C   LIG    1        1.219  -2.167  -0.254  0.00  0.00    +0.280 C 
ATOM     25  C   LIG    1        1.443  -2.610  -1.701  0.00  0.00    +0.100 C 
ATOM     26  C   LIG    1        1.785  -4.079  -1.722  0.00  0.00    +0.520 C 
ATOM     27  N   LIG    1        2.500  -4.617  -0.718  0.00  0.00    -0.680 N 
ATOM     28  H   LIG    1        2.771  -5.547  -0.769  0.00  0.00    +0.430 HD
ATOM     29  C   LIG    1        2.845  -3.886   0.355  0.00  0.00    +0.710 C 
ATOM     30  O   LIG    1        3.668  -4.326   1.133  0.00  0.00    -0.560 OA
ATOM     31  O   LIG    1        1.415  -4.774  -2.644  0.00  0.00    -0.500 OA
ATOM     32  N   LIG    1        2.302  -2.680   0.588  0.00  0.00    -0.720 N 
ATOM     33  H   LIG    1        2.631  -2.141   1.325  0.00  0.00    +0.430 HD
ENDBRANCH  21  24
ENDBRANCH   1  18
TORSDOF 4
