REMARK  Name = ZINCrg000000opZM.0
REMARK                            x       y       z     vdW  Elec       q    Type
REMARK                         _______ _______ _______ _____ _____    ______ ____
ROOT
ATOM      1  C   LIG    1       -1.098   1.417  -1.092  0.00  0.00    -0.150 A 
ATOM      2  C   LIG    1       -1.034   2.758  -1.475  0.00  0.00    +0.110 A 
ATOM      3  C   LIG    1        0.158   3.288  -1.922  0.00  0.00    +0.000 A 
ATOM      4  C   LIG    1        1.290   2.495  -1.987  0.00  0.00    +0.160 A 
ATOM      5  C   LIG    1        1.235   1.167  -1.603  0.00  0.00    -0.690 A 
ATOM      6  C   LIG    1        0.049   0.625  -1.154  0.00  0.00    +0.200 A 
ENDROOT
BRANCH   1   9
ATOM      7  N   LIG    1       -3.480   1.609  -0.558  0.00  0.00    -0.710 N 
ATOM      8  H   LIG    1       -3.439   2.540  -0.828  0.00  0.00    +0.410 HD
ATOM      9  C   LIG    1       -2.374   0.841  -0.617  0.00  0.00    +0.560 C 
ATOM     10  O   LIG    1       -2.426  -0.325  -0.279  0.00  0.00    -0.510 OA
BRANCH   7  11
ATOM     11  C   LIG    1       -4.745   1.038  -0.088  0.00  0.00    +0.290 C 
BRANCH  11  12
ATOM     12  C   LIG    1       -4.797   1.104   1.440  0.00  0.00    -0.010 C 
ATOM     13  C   LIG    1       -4.545   2.542   1.898  0.00  0.00    +0.030 C 
BRANCH  12  15
ATOM     14  C   LIG    1       -4.046  -1.268   1.676  0.00  0.00    +0.020 C 
ATOM     15  C   LIG    1       -3.722   0.186   2.026  0.00  0.00    +0.020 C 
ENDBRANCH  12  15
ENDBRANCH  11  12
BRANCH  11  16
ATOM     16  C   LIG    1       -5.895   1.823  -0.663  0.00  0.00    +0.460 C 
ATOM     17  O   LIG    1       -5.720   2.952  -1.057  0.00  0.00    -0.500 OA
BRANCH  16  18
ATOM     18  O   LIG    1       -7.115   1.268  -0.739  0.00  0.00    -0.350 OA
ATOM     19  C   LIG    1       -8.149   2.037  -1.407  0.00  0.00    +0.280 C 
ENDBRANCH  16  18
ENDBRANCH  11  16
ENDBRANCH   7  11
ENDBRANCH   1   9
BRANCH   5  20
ATOM     20  S   LIG    1        2.682   0.166  -1.689  0.00  0.00    +2.690 S 
ATOM     21  O   LIG    1        2.491  -0.896  -0.765  0.00  0.00    -0.940 OA
ATOM     22  O   LIG    1        3.789   1.055  -1.634  0.00  0.00    -0.950 OA
BRANCH  20  23
ATOM     23  N   LIG    1        2.712  -0.524  -3.194  0.00  0.00    -1.000 NA
ATOM     24  C   LIG    1        2.076  -1.828  -3.443  0.00  0.00    +0.270 C 
ATOM     25  C   LIG    1        1.162  -1.689  -4.671  0.00  0.00    +0.220 C 
ATOM     26  O   LIG    1        1.913  -1.133  -5.753  0.00  0.00    -0.370 OA
ATOM     27  C   LIG    1        2.408   0.185  -5.506  0.00  0.00    +0.220 C 
ATOM     28  C   LIG    1        3.381   0.145  -4.322  0.00  0.00    +0.270 C 
ENDBRANCH  20  23
ENDBRANCH   5  20
TORSDOF 8
