REMARK  Name = ZINCb80000002lEd.0
REMARK                            x       y       z     vdW  Elec       q    Type
REMARK                         _______ _______ _______ _____ _____    ______ ____
ROOT
ATOM      1  C   LIG    1        0.002  -0.004   0.002  0.00  0.00    +0.430 A 
ATOM      2  N   LIG    1        1.150  -0.624  -0.018  0.00  0.00    -0.560 NA
ATOM      3  C   LIG    1        1.218  -1.964  -0.021  0.00  0.00    +0.450 A 
ATOM      4  C   LIG    1        0.050  -2.708  -0.014  0.00  0.00    -0.370 A 
ATOM      5  C   LIG    1       -1.175  -2.026   0.002  0.00  0.00    +0.540 A 
ATOM      6  O   LIG    1       -2.229  -2.641   0.009  0.00  0.00    -0.550 OA
ATOM      7  C   LIG    1        0.094  -4.214  -0.023  0.00  0.00    +0.130 C 
ATOM      8  N   LIG    1       -1.166  -0.677   0.010  0.00  0.00    -0.640 N 
ATOM      9  H   LIG    1       -2.004  -0.188   0.021  0.00  0.00    +0.420 HD
ENDROOT
BRANCH   3  10
ATOM     10  N   LIG    1        2.444  -2.598  -0.037  0.00  0.00    -0.830 N 
ATOM     11  H   LIG    1        3.261  -2.074  -0.042  0.00  0.00    +0.410 HD
ATOM     12  H   LIG    1        2.490  -3.567  -0.043  0.00  0.00    +0.420 HD
ENDBRANCH   3  10
BRANCH   1  14
ATOM     13  C   LIG    1        1.417   2.032  -0.001  0.00  0.00    +0.070 C 
ATOM     14  C   LIG    1       -0.018   1.503   0.010  0.00  0.00    +0.120 C 
ENDBRANCH   1  14
TORSDOF 2
