REMARK  Name = ZINCrg00000SjSwW.1
REMARK                            x       y       z     vdW  Elec       q    Type
REMARK                         _______ _______ _______ _____ _____    ______ ____
ROOT
ATOM      1  N   LIG    1        2.451  -0.127  -3.461  0.00  0.00    -0.720 N 
ATOM      2  H   LIG    1        3.116   0.445  -3.874  0.00  0.00    +0.400 HD
ATOM      3  C   LIG    1        1.836  -1.080  -4.190  0.00  0.00    +0.570 C 
ATOM      4  O   LIG    1        1.002  -1.798  -3.672  0.00  0.00    -0.530 OA
ENDROOT
BRANCH   3   5
ATOM      5  C   LIG    1        2.175  -1.252  -5.616  0.00  0.00    -0.220 A 
ATOM      6  C   LIG    1        1.540  -2.240  -6.383  0.00  0.00    +0.180 A 
ATOM      7  C   LIG    1        1.885  -2.364  -7.703  0.00  0.00    -0.050 A 
ATOM      8  C   LIG    1        2.848  -1.511  -8.240  0.00  0.00    +0.410 A 
ATOM      9  N   LIG    1        3.432  -0.585  -7.492  0.00  0.00    -0.530 NA
ATOM     10  C   LIG    1        3.126  -0.429  -6.221  0.00  0.00    +0.360 A 
BRANCH   8  11
ATOM     11  N   LIG    1        3.199  -1.634  -9.574  0.00  0.00    -1.030 N 
ATOM     12  H   LIG    1        2.776  -2.309 -10.127  0.00  0.00    +0.440 HD
BRANCH  11  13
ATOM     13  S   LIG    1        4.342  -0.627 -10.225  0.00  0.00    +2.610 S 
ATOM     14  O   LIG    1        3.907   0.676  -9.863  0.00  0.00    -0.920 OA
ATOM     15  O   LIG    1        4.420  -1.021 -11.588  0.00  0.00    -0.950 OA
ATOM     16  C   LIG    1        5.872  -1.054  -9.350  0.00  0.00    -0.260 C 
ENDBRANCH  11  13
ENDBRANCH   8  11
ENDBRANCH   3   5
BRANCH   1  17
ATOM     17  C   LIG    1        2.115   0.043  -2.046  0.00  0.00    +0.290 C 
BRANCH  17  23
ATOM     18  C   LIG    1        2.511   1.445  -0.014  0.00  0.00    +0.260 C 
ATOM     19  O   LIG    1        3.330   2.470   0.552  0.00  0.00    -0.370 OA
ATOM     20  C   LIG    1        4.720   2.141   0.610  0.00  0.00    +0.220 C 
ATOM     21  C   LIG    1        5.247   1.907  -0.808  0.00  0.00    -0.010 C 
ATOM     22  C   LIG    1        4.430   0.792  -1.470  0.00  0.00    +0.020 C 
ATOM     23  C   LIG    1        2.949   1.183  -1.457  0.00  0.00    -0.030 C 
BRANCH  18  29
ATOM     24  C   LIG    1        1.468   4.364   0.011  0.00  0.00    +0.350 C 
ATOM     25  N   LIG    1        0.630   3.162   0.013  0.00  0.00    -0.350 N 
ATOM     26  N   LIG    1       -0.771   3.134   0.026  0.00  0.00    -0.290 NA
ATOM     27  C   LIG    1       -1.155   1.883   0.017  0.00  0.00    +0.240 A 
ATOM     28  C   LIG    1       -0.013   1.076   0.008  0.00  0.00    -0.110 A 
ATOM     29  C   LIG    1        1.071   1.887   0.002  0.00  0.00    +0.090 A 
ENDBRANCH  18  29
ENDBRANCH  17  23
ENDBRANCH   1  17
TORSDOF 6
