REMARK  Name = ZINCrH000004lAcl.0
REMARK                            x       y       z     vdW  Elec       q    Type
REMARK                         _______ _______ _______ _____ _____    ______ ____
ROOT
ATOM      1  C   LIG    1       -4.815   2.018  -0.059  0.00  0.00    +0.140 A 
ATOM      2  C   LIG    1       -5.109   0.659  -0.063  0.00  0.00    +0.070 A 
ATOM      3  C   LIG    1       -6.421   0.231  -0.145  0.00  0.00    +0.050 A 
ATOM      4  C   LIG    1       -7.448   1.151  -0.236  0.00  0.00    +0.000 A 
ATOM      5  C   LIG    1       -7.161   2.519  -0.239  0.00  0.00    -0.110 A 
ATOM      6 CL   LIG    1       -9.093   0.608  -0.347  0.00  0.00    -0.020 Cl
ATOM      7  C   LIG    1       -5.837   2.949  -0.150  0.00  0.00    +0.040 A 
ENDROOT
BRANCH   1   9
ATOM      8  C   LIG    1       -2.596   1.733   0.750  0.00  0.00    +0.610 C 
ATOM      9  N   LIG    1       -3.486   2.445   0.030  0.00  0.00    -0.660 N 
ATOM     10  H   LIG    1       -3.205   3.253  -0.427  0.00  0.00    +0.420 HD
ATOM     11  O   LIG    1       -2.967   0.775   1.399  0.00  0.00    -0.480 OA
BRANCH   8  15
ATOM     12  C   LIG    1        0.988   2.256   1.077  0.00  0.00    +0.010 A 
ATOM     13  N   LIG    1        0.580   3.201   0.282  0.00  0.00    -0.330 NA
ATOM     14  O   LIG    1       -0.612   3.147   0.087  0.00  0.00    +0.130 OA
ATOM     15  C   LIG    1       -1.172   2.117   0.749  0.00  0.00    -0.100 A 
ATOM     16  C   LIG    1       -0.154   1.500   1.424  0.00  0.00    +0.080 A 
BRANCH  12  17
ATOM     17  C   LIG    1        2.402   2.015   1.540  0.00  0.00    +0.300 C 
BRANCH  17  19
ATOM     18  C   LIG    1        3.735   0.562   2.903  0.00  0.00    +0.220 C 
ATOM     19  O   LIG    1        2.433   0.879   2.406  0.00  0.00    -0.390 OA
ENDBRANCH  17  19
ENDBRANCH  12  17
ENDBRANCH   8  15
ENDBRANCH   1   9
BRANCH   5  20
ATOM     20  C   LIG    1       -8.257   3.506  -0.336  0.00  0.00    +0.560 C 
ATOM     21  N   LIG    1       -7.978   4.824  -0.339  0.00  0.00    -0.720 N 
ATOM     22  H   LIG    1       -7.058   5.126  -0.277  0.00  0.00    +0.400 HD
ATOM     23  O   LIG    1       -9.410   3.128  -0.414  0.00  0.00    -0.510 OA
BRANCH  21  24
ATOM     24  C   LIG    1       -9.065   5.803  -0.435  0.00  0.00    +0.240 C 
ATOM     25  C   LIG    1       -9.422   6.024  -1.906  0.00  0.00    +0.000 C 
ATOM     26  C   LIG    1      -10.556   7.046  -2.007  0.00  0.00    +0.020 C 
ATOM     27  C   LIG    1      -10.107   8.370  -1.386  0.00  0.00    +0.000 C 
ATOM     28  C   LIG    1       -9.749   8.148   0.085  0.00  0.00    +0.020 C 
ATOM     29  C   LIG    1       -8.615   7.127   0.185  0.00  0.00    +0.010 C 
ENDBRANCH  21  24
ENDBRANCH   5  20
TORSDOF 6
