REMARK  Name = ZINCqH0000003IR4.0
REMARK                            x       y       z     vdW  Elec       q    Type
REMARK                         _______ _______ _______ _____ _____    ______ ____
ROOT
ATOM      1  C   LIG    1        6.670  -1.109  -0.790  0.00  0.00    +0.170 C 
ENDROOT
BRANCH   1   7
ATOM      2  C   LIG    1        9.150  -1.136  -0.414  0.00  0.00    +0.190 A 
ATOM      3  C   LIG    1       10.453  -1.344  -0.855  0.00  0.00    -0.080 A 
ATOM      4  C   LIG    1       10.684  -1.749  -2.150  0.00  0.00    +0.120 A 
ATOM      5  C   LIG    1        9.604  -1.950  -3.019  0.00  0.00    -0.210 A 
ATOM      6  C   LIG    1        8.296  -1.742  -2.562  0.00  0.00    +0.150 A 
ATOM      7  C   LIG    1        8.078  -1.336  -1.277  0.00  0.00    -0.130 A 
BRANCH   5   8
ATOM      8  C   LIG    1        9.842  -2.381  -4.402  0.00  0.00    +0.400 C 
ATOM      9  O   LIG    1        8.905  -2.555  -5.153  0.00  0.00    -0.460 OA
ATOM     10  C   LIG    1       11.250  -2.609  -4.889  0.00  0.00    +0.080 C 
ENDBRANCH   5   8
BRANCH   2  11
ATOM     11  O   LIG    1        8.925  -0.738   0.863  0.00  0.00    -0.300 OA
BRANCH  11  13
ATOM     12  C   LIG    1        9.621  -0.105   3.089  0.00  0.00    +0.070 C 
ATOM     13  C   LIG    1       10.070  -0.551   1.697  0.00  0.00    +0.190 C 
ENDBRANCH  11  13
ENDBRANCH   2  11
ENDBRANCH   1   7
BRANCH   1  14
ATOM     14  S   LIG    1        6.199   0.614  -1.088  0.00  0.00    +0.010 S 
BRANCH  14  15
ATOM     15  C   LIG    1        4.559   0.599  -0.444  0.00  0.00    +0.170 A 
ATOM     16  N   LIG    1        3.939  -0.433   0.087  0.00  0.00    -0.290 NA
ATOM     17  N   LIG    1        2.757  -0.093   0.459  0.00  0.00    -0.250 NA
ATOM     18  C   LIG    1        2.547   1.173   0.182  0.00  0.00    +0.210 A 
ATOM     19  N   LIG    1        3.696   1.655  -0.402  0.00  0.00    -0.460 N 
ATOM     20  C   LIG    1        3.942   3.018  -0.878  0.00  0.00    +0.350 C 
BRANCH  18  21
ATOM     21  C   LIG    1        1.311   1.938   0.451  0.00  0.00    +0.030 A 
ATOM     22  C   LIG    1        0.102   1.282   0.714  0.00  0.00    +0.020 A 
ATOM     23  C   LIG    1       -1.028   2.035   0.955  0.00  0.00    +0.280 A 
ATOM     24  N   LIG    1       -0.977   3.354   0.950  0.00  0.00    -0.480 NA
ATOM     25  C   LIG    1        0.141   4.011   0.706  0.00  0.00    +0.270 A 
ATOM     26  C   LIG    1        1.317   3.338   0.450  0.00  0.00    -0.030 A 
ENDBRANCH  18  21
ENDBRANCH  14  15
ENDBRANCH   1  14
TORSDOF 7
