REMARK  Name = ZINCrD000000D1Nl.0
REMARK                            x       y       z     vdW  Elec       q    Type
REMARK                         _______ _______ _______ _____ _____    ______ ____
ROOT
ATOM      1  C   LIG    1        2.384   0.809   0.477  0.00  0.00    -0.020 C 
ATOM      2  C   LIG    1        2.098   0.271   1.890  0.00  0.00    +0.030 C 
ATOM      3  C   LIG    1        3.234   0.787   2.797  0.00  0.00    +0.020 C 
ATOM      4  C   LIG    1        3.761   2.046   2.065  0.00  0.00    +0.010 C 
ATOM      5  C   LIG    1        3.684   1.633   0.575  0.00  0.00    +0.040 C 
ENDROOT
BRANCH   1   6
ATOM      6  C   LIG    1        2.570  -0.336  -0.485  0.00  0.00    -0.070 A 
ATOM      7  C   LIG    1        3.480  -1.336  -0.199  0.00  0.00    +0.020 A 
ATOM      8  C   LIG    1        3.649  -2.391  -1.077  0.00  0.00    +0.030 A 
ATOM      9  C   LIG    1        2.914  -2.442  -2.252  0.00  0.00    +0.050 A 
ATOM     10  O   LIG    1        3.099  -3.482  -3.110  0.00  0.00    -0.310 OA
ATOM     11  C   LIG    1        2.079  -3.694  -4.092  0.00  0.00    +0.220 C 
ATOM     12  C   LIG    1        1.730  -2.339  -4.723  0.00  0.00    +0.220 C 
ATOM     13  O   LIG    1        1.266  -1.468  -3.685  0.00  0.00    -0.310 OA
ATOM     14  C   LIG    1        2.002  -1.434  -2.541  0.00  0.00    +0.050 A 
ATOM     15  C   LIG    1        1.833  -0.382  -1.654  0.00  0.00    +0.020 A 
ENDBRANCH   1   6
BRANCH   1  16
ATOM     16  C   LIG    1        1.232   1.702   0.012  0.00  0.00    +0.280 C 
BRANCH  16  17
ATOM     17  N   LIG    1       -0.020   0.941   0.046  0.00  0.00    -1.120 NA
ATOM     18  H   LIG    1        0.003  -0.027   0.102  0.00  0.00    +0.420 HD
BRANCH  17  20
ATOM     19  O   LIG    1       -2.441   0.696   0.055  0.00  0.00    -0.950 OA
ATOM     20  S   LIG    1       -1.473   1.733  -0.017  0.00  0.00    +2.610 S 
ATOM     21  O   LIG    1       -1.379   2.720   1.001  0.00  0.00    -0.950 OA
BRANCH  20  22
ATOM     22  C   LIG    1       -1.494   2.510  -1.657  0.00  0.00    -0.300 C 
BRANCH  22  23
ATOM     23  C   LIG    1       -2.783   3.270  -1.836  0.00  0.00    -0.100 A 
ATOM     24  C   LIG    1       -3.886   2.640  -2.381  0.00  0.00    +0.030 A 
ATOM     25  C   LIG    1       -5.070   3.336  -2.541  0.00  0.00    +0.010 A 
ATOM     26  C   LIG    1       -5.147   4.664  -2.165  0.00  0.00    +0.020 A 
ATOM     27  C   LIG    1       -4.042   5.295  -1.625  0.00  0.00    +0.010 A 
ATOM     28  C   LIG    1       -2.859   4.598  -1.461  0.00  0.00    +0.020 A 
ENDBRANCH  22  23
ENDBRANCH  20  22
ENDBRANCH  17  20
ENDBRANCH  16  17
ENDBRANCH   1  16
TORSDOF 6
