REMARK  Name = ZINCvU00000009rv.0
REMARK                            x       y       z     vdW  Elec       q    Type
REMARK                         _______ _______ _______ _____ _____    ______ ____
ROOT
ATOM      1  C   LIG    1       -0.148   1.182   2.380  0.00  0.00    +0.110 A 
ATOM      2  C   LIG    1        0.990   0.400   2.420  0.00  0.00    -0.010 A 
ATOM      3  C   LIG    1        1.535   0.027   3.653  0.00  0.00    -0.060 A 
ATOM      4  C   LIG    1        0.925   0.447   4.839  0.00  0.00    +0.040 A 
ATOM      5  C   LIG    1       -0.210   1.227   4.790  0.00  0.00    -0.040 A 
ATOM      6  C   LIG    1       -0.747   1.602   3.567  0.00  0.00    +0.110 A 
ENDROOT
BRANCH   3   7
ATOM      7  C   LIG    1        2.748  -0.806   3.701  0.00  0.00    +0.060 C 
ATOM      8  C   LIG    1        3.271  -1.165   4.890  0.00  0.00    +0.060 C 
BRANCH   8   9
ATOM      9  C   LIG    1        4.478  -1.994   4.938  0.00  0.00    +0.130 A 
ATOM     10  N   LIG    1        5.062  -2.394   6.024  0.00  0.00    -0.450 NA
ATOM     11  C   LIG    1        6.155  -3.146   5.907  0.00  0.00    +0.100 A 
ATOM     12  C   LIG    1        6.515  -3.395   4.582  0.00  0.00    -0.180 A 
ATOM     13  C   LIG    1        7.644  -4.170   4.278  0.00  0.00    +0.050 A 
ATOM     14  C   LIG    1        8.427  -4.707   5.243  0.00  0.00    +0.060 A 
ATOM     15  C   LIG    1        8.128  -4.501   6.605  0.00  0.00    -0.050 A 
ATOM     16  C   LIG    1        8.933  -5.053   7.615  0.00  0.00    +0.030 A 
ATOM     17  C   LIG    1        8.616  -4.833   8.923  0.00  0.00    +0.020 A 
ATOM     18  C   LIG    1        7.506  -4.070   9.273  0.00  0.00    +0.020 A 
ATOM     19  C   LIG    1        6.705  -3.520   8.315  0.00  0.00    +0.040 A 
ATOM     20  C   LIG    1        7.004  -3.727   6.965  0.00  0.00    -0.000 A 
ATOM     21  S   LIG    1        5.343  -2.600   3.532  0.00  0.00    +0.090 S 
ENDBRANCH   8   9
ENDBRANCH   3   7
BRANCH   1  22
ATOM     22  O   LIG    1       -0.682   1.547   1.184  0.00  0.00    -0.300 OA
BRANCH  22  24
ATOM     23  C   LIG    1       -0.753   1.593  -1.232  0.00  0.00    +0.070 C 
ATOM     24  C   LIG    1       -0.013   1.086   0.008  0.00  0.00    +0.170 C 
ENDBRANCH  22  24
ENDBRANCH   1  22
BRANCH   6  25
ATOM     25  O   LIG    1       -1.864   2.376   3.526  0.00  0.00    -0.280 OA
BRANCH  25  26
ATOM     26  C   LIG    1       -2.426   2.771   4.779  0.00  0.00    +0.220 C 
BRANCH  26  27
ATOM     27  C   LIG    1       -3.649   3.618   4.536  0.00  0.00    +0.510 C 
ATOM     28  N   LIG    1       -4.348   4.106   5.579  0.00  0.00    -0.620 N 
ATOM     29  C   LIG    1       -3.920   3.814   6.949  0.00  0.00    +0.280 C 
ATOM     30  C   LIG    1       -5.537   4.930   5.343  0.00  0.00    +0.290 C 
ATOM     31  O   LIG    1       -4.003   3.859   3.401  0.00  0.00    -0.510 OA
ENDBRANCH  26  27
ENDBRANCH  25  26
ENDBRANCH   6  25
TORSDOF 7
