REMARK  Name = ZINCrD00000F5Lsg.0
REMARK                            x       y       z     vdW  Elec       q    Type
REMARK                         _______ _______ _______ _____ _____    ______ ____
ROOT
ATOM      1  C   LIG    1        2.285  -3.384  -1.475  0.00  0.00    +0.490 C 
ATOM      2  N   LIG    1        3.161  -4.382  -1.707  0.00  0.00    -0.610 N 
ATOM      3  C   LIG    1        3.900  -5.002  -0.599  0.00  0.00    +0.260 C 
ATOM      4  C   LIG    1        5.395  -4.956  -0.911  0.00  0.00    +0.010 C 
ATOM      5  C   LIG    1        5.649  -5.601  -2.276  0.00  0.00    +0.020 C 
ATOM      6  C   LIG    1        4.903  -4.818  -3.359  0.00  0.00    -0.030 C 
ATOM      7  C   LIG    1        5.184  -5.444  -4.726  0.00  0.00    +0.030 C 
ATOM      8  C   LIG    1        3.399  -4.866  -3.074  0.00  0.00    +0.240 C 
ATOM      9  O   LIG    1        1.736  -2.831  -2.404  0.00  0.00    -0.490 OA
ENDROOT
BRANCH   1  10
ATOM     10  C   LIG    1        1.988  -2.956  -0.061  0.00  0.00    +0.320 C 
BRANCH  10  20
ATOM     11  C   LIG    1       -1.060  -3.347   0.034  0.00  0.00    +0.140 C 
ATOM     12  C   LIG    1       -0.346  -2.022  -0.034  0.00  0.00    +0.090 A 
ATOM     13  C   LIG    1       -0.948  -0.822  -0.064  0.00  0.00    -0.050 A 
ATOM     14  C   LIG    1        0.112   0.187  -0.130  0.00  0.00    -0.100 A 
ATOM     15  C   LIG    1        0.122   1.582  -0.182  0.00  0.00    +0.050 A 
ATOM     16  C   LIG    1        1.312   2.251  -0.238  0.00  0.00    -0.020 A 
ATOM     17  C   LIG    1        2.513   1.554  -0.244  0.00  0.00    +0.030 A 
ATOM     18  C   LIG    1        2.526   0.177  -0.192  0.00  0.00    -0.020 A 
ATOM     19  C   LIG    1        1.326  -0.524  -0.135  0.00  0.00    +0.110 A 
ATOM     20  N   LIG    1        1.013  -1.863  -0.076  0.00  0.00    -0.470 N 
ENDBRANCH  10  20
ENDBRANCH   1  10
BRANCH   8  21
ATOM     21  C   LIG    1        2.659  -3.972  -4.071  0.00  0.00    +0.030 C 
BRANCH  21  22
ATOM     22  C   LIG    1        3.300  -2.583  -4.083  0.00  0.00    +0.270 C 
BRANCH  22  23
ATOM     23  N   LIG    1        2.502  -1.684  -4.920  0.00  0.00    -0.710 N 
ATOM     24  H   LIG    1        1.702  -2.013  -5.360  0.00  0.00    +0.400 HD
ATOM     25  C   LIG    1        2.878  -0.400  -5.079  0.00  0.00    +0.500 C 
ATOM     26  O   LIG    1        3.878   0.012  -4.529  0.00  0.00    -0.520 OA
BRANCH  25  27
ATOM     27  C   LIG    1        2.057   0.525  -5.941  0.00  0.00    +0.180 C 
ATOM     28 CL   LIG    1        2.812   2.162  -5.955  0.00  0.00    -0.130 Cl
ENDBRANCH  25  27
ENDBRANCH  22  23
ENDBRANCH  21  22
ENDBRANCH   8  21
TORSDOF 6
