REMARK  Name = ZINCpk00000xOLDw.0
REMARK                            x       y       z     vdW  Elec       q    Type
REMARK                         _______ _______ _______ _____ _____    ______ ____
ROOT
ATOM      1  N   LIG    1       -0.789   1.644   1.152  0.00  0.00    -0.550 N 
ATOM      2  C   LIG    1       -0.053   1.138  -0.012  0.00  0.00    +0.280 C 
ATOM      3  C   LIG    1       -0.839   1.634  -1.246  0.00  0.00    +0.070 C 
ATOM      4  C   LIG    1       -2.263   1.804  -0.666  0.00  0.00    +0.140 C 
ATOM      5  C   LIG    1       -2.037   2.020   0.814  0.00  0.00    +0.540 C 
ATOM      6  O   LIG    1       -2.860   2.468   1.584  0.00  0.00    -0.510 OA
ENDROOT
BRANCH   1  11
ATOM      7  C   LIG    1        0.610   0.455   5.793  0.00  0.00    +0.160 C 
ATOM      8  C   LIG    1        0.373   1.224   4.518  0.00  0.00    +0.080 A 
ATOM      9  N   LIG    1        0.707   2.470   4.302  0.00  0.00    -0.280 NA
ATOM     10  N   LIG    1        0.323   2.810   2.998  0.00  0.00    -0.370 N 
ATOM     11  C   LIG    1       -0.263   1.726   2.441  0.00  0.00    +0.310 A 
ATOM     12  C   LIG    1        0.518   4.111   2.354  0.00  0.00    +0.360 C 
ATOM     13  C   LIG    1       -0.240   0.726   3.365  0.00  0.00    -0.100 A 
ENDBRANCH   1  11
BRANCH   4  14
ATOM     14  N   LIG    1       -3.058   0.590  -0.893  0.00  0.00    -0.520 NA
ATOM     15  C   LIG    1       -3.225   0.331  -2.329  0.00  0.00    +0.210 C 
BRANCH  14  16
ATOM     16  C   LIG    1       -4.360   0.680  -0.219  0.00  0.00    +0.280 C 
BRANCH  16  17
ATOM     17  C   LIG    1       -5.044  -0.662  -0.264  0.00  0.00    +0.010 A 
ATOM     18  C   LIG    1       -5.008  -1.602   0.703  0.00  0.00    +0.140 A 
ATOM     19  N   LIG    1       -5.754  -2.651   0.256  0.00  0.00    -0.460 N 
ATOM     20  C   LIG    1       -6.024  -3.917   0.943  0.00  0.00    +0.280 C 
ATOM     21  C   LIG    1       -7.226  -4.594   0.275  0.00  0.00    +0.030 C 
ATOM     22  C   LIG    1       -7.007  -4.645  -1.240  0.00  0.00    +0.020 C 
ATOM     23  C   LIG    1       -7.096  -3.224  -1.811  0.00  0.00    +0.150 C 
ATOM     24  C   LIG    1       -6.223  -2.322  -0.971  0.00  0.00    +0.210 A 
ATOM     25  N   LIG    1       -5.799  -1.129  -1.271  0.00  0.00    -0.480 NA
ENDBRANCH  16  17
ENDBRANCH  14  16
ENDBRANCH   4  14
TORSDOF 4
