REMARK  Name = ZINCqH0000004N2O.0
REMARK                            x       y       z     vdW  Elec       q    Type
REMARK                         _______ _______ _______ _____ _____    ______ ____
ROOT
ATOM      1  N   LIG    1       -4.041  -2.464  -0.096  0.00  0.00    -0.590 N 
ATOM      2  C   LIG    1       -4.834  -1.426   0.235  0.00  0.00    +0.590 C 
ATOM      3  O   LIG    1       -6.041  -1.573   0.285  0.00  0.00    -0.530 OA
ATOM      4  C   LIG    1       -2.585  -2.301  -0.100  0.00  0.00    +0.300 C 
ENDROOT
BRANCH   1   9
ATOM      5  C   LIG    1       -3.401  -6.270   2.341  0.00  0.00    +0.050 A 
ATOM      6  N   LIG    1       -3.338  -6.791   1.166  0.00  0.00    -0.470 NA
ATOM      7  C   LIG    1       -3.725  -6.049   0.138  0.00  0.00    +0.080 A 
ATOM      8  C   LIG    1       -4.142  -4.819   0.501  0.00  0.00    -0.250 A 
ATOM      9  C   LIG    1       -4.635  -3.755  -0.451  0.00  0.00    +0.340 C 
ATOM     10  C   LIG    1       -4.220  -4.138  -1.875  0.00  0.00    +0.040 C 
ATOM     11  C   LIG    1       -4.611  -5.596  -2.134  0.00  0.00    +0.030 C 
ATOM     12  C   LIG    1       -3.711  -6.519  -1.309  0.00  0.00    +0.130 C 
ATOM     13  S   LIG    1       -4.001  -4.673   2.245  0.00  0.00    +0.140 S 
BRANCH   5  15
ATOM     14  C   LIG    1       -1.522  -6.706   3.899  0.00  0.00    +0.040 C 
ATOM     15  C   LIG    1       -3.003  -6.967   3.616  0.00  0.00    +0.130 C 
ENDBRANCH   5  15
ENDBRANCH   1   9
BRANCH   2  16
ATOM     16  C   LIG    1       -4.240  -0.112   0.536  0.00  0.00    +0.020 A 
ATOM     17  C   LIG    1       -4.991   0.993   0.739  0.00  0.00    -0.030 A 
ATOM     18  S   LIG    1       -3.960   2.319   1.059  0.00  0.00    +0.170 S 
ATOM     19  C   LIG    1       -2.546   1.283   0.897  0.00  0.00    +0.150 A 
ATOM     20  N   LIG    1       -2.928   0.073   0.622  0.00  0.00    -0.440 NA
BRANCH  19  21
ATOM     21  C   LIG    1       -1.142   1.724   1.045  0.00  0.00    -0.190 A 
ATOM     22  C   LIG    1       -0.718   2.991   1.333  0.00  0.00    +0.270 A 
ATOM     23  N   LIG    1        0.628   2.970   1.374  0.00  0.00    -0.360 N 
ATOM     24  N   LIG    1        1.056   1.663   1.113  0.00  0.00    -0.290 NA
ATOM     25  C   LIG    1        1.496   4.119   1.645  0.00  0.00    +0.370 C 
ATOM     26  C   LIG    1        0.005   0.912   0.919  0.00  0.00    +0.290 A 
ENDBRANCH  19  21
ENDBRANCH   2  16
TORSDOF 4
