REMARK  Name = ZINCpe00000MJImP.0
REMARK                            x       y       z     vdW  Elec       q    Type
REMARK                         _______ _______ _______ _____ _____    ______ ____
ROOT
ATOM      1  C   LIG    1        2.486  -4.214   2.717  0.00  0.00    +0.140 C 
ATOM      2  C   LIG    1        3.751  -3.439   3.092  0.00  0.00    +0.070 C 
ENDROOT
BRANCH   1   7
ATOM      3  C   LIG    1        1.436  -1.984  -0.130  0.00  0.00    +0.280 C 
ATOM      4  C   LIG    1        0.247  -2.803  -0.641  0.00  0.00    +0.020 C 
ATOM      5  C   LIG    1        0.578  -4.293  -0.528  0.00  0.00    +0.050 C 
ATOM      6  C   LIG    1        0.909  -4.628   0.928  0.00  0.00    +0.170 C 
ATOM      7  N   LIG    1        2.053  -3.820   1.369  0.00  0.00    -0.510 NA
ATOM      8  C   LIG    1        1.742  -2.386   1.315  0.00  0.00    +0.180 C 
BRANCH   3  12
ATOM      9  C   LIG    1       -1.107   2.331   0.052  0.00  0.00    +0.110 C 
ATOM     10  C   LIG    1        0.004   1.325  -0.101  0.00  0.00    -0.240 A 
ATOM     11  C   LIG    1       -0.110  -0.015   0.042  0.00  0.00    +0.220 A 
ATOM     12  N   LIG    1        1.106  -0.558  -0.181  0.00  0.00    -0.370 N 
ATOM     13  N   LIG    1        1.996   0.484  -0.470  0.00  0.00    -0.290 NA
ATOM     14  C   LIG    1        1.335   1.612  -0.422  0.00  0.00    +0.230 A 
ENDBRANCH   3  12
ENDBRANCH   1   7
BRANCH   1  15
ATOM     15  C   LIG    1        2.779  -5.692   2.739  0.00  0.00    +0.520 C 
ATOM     16  N   LIG    1        2.588  -6.400   3.869  0.00  0.00    -0.610 N 
ATOM     17  C   LIG    1        2.207  -5.715   5.107  0.00  0.00    +0.280 C 
ATOM     18  O   LIG    1        3.185  -6.245   1.738  0.00  0.00    -0.510 OA
BRANCH  16  19
ATOM     19  C   LIG    1        2.761  -7.855   3.861  0.00  0.00    +0.270 C 
ATOM     20  C   LIG    1        1.463  -8.543   4.318  0.00  0.00    +0.060 C 
ATOM     21  C   LIG    1        1.770 -10.022   4.627  0.00  0.00    -0.310 C 
ATOM     22  S   LIG    1        3.531 -10.050   5.122  0.00  0.00    +2.400 S 
ATOM     23  O   LIG    1        3.627 -10.359   6.505  0.00  0.00    -0.930 OA
ATOM     24  O   LIG    1        4.275 -10.803   4.173  0.00  0.00    -0.930 OA
ATOM     25  C   LIG    1        3.861  -8.264   4.874  0.00  0.00    -0.320 C 
ENDBRANCH  16  19
ENDBRANCH   1  15
TORSDOF 4
