REMARK  Name = ZINCnE000001OAIm.0
REMARK                            x       y       z     vdW  Elec       q    Type
REMARK                         _______ _______ _______ _____ _____    ______ ____
ROOT
ATOM      1  S   LIG    1       -2.692   3.136   5.462  0.00  0.00    +2.540 S 
ATOM      2  O   LIG    1       -3.810   2.335   5.102  0.00  0.00    -1.020 OA
ATOM      3  O   LIG    1       -2.604   4.495   5.057  0.00  0.00    -1.020 OA
ENDROOT
BRANCH   1   4
ATOM      4  N   LIG    1       -1.408   2.403   4.717  0.00  0.00    -1.070 NA
BRANCH   4  10
ATOM      5  C   LIG    1        0.928   1.063   3.015  0.00  0.00    +0.120 C 
ATOM      6  C   LIG    1       -0.325   1.753   2.542  0.00  0.00    -0.210 A 
ATOM      7  C   LIG    1       -0.735   1.954   1.269  0.00  0.00    -0.050 A 
ATOM      8  O   LIG    1       -1.901   2.612   1.340  0.00  0.00    +0.060 OA
ATOM      9  N   LIG    1       -2.232   2.815   2.485  0.00  0.00    -0.490 NA
ATOM     10  C   LIG    1       -1.351   2.342   3.329  0.00  0.00    +0.340 A 
BRANCH   7  11
ATOM     11  C   LIG    1       -0.017   1.528   0.014  0.00  0.00    +0.020 C 
ATOM     12  C   LIG    1       -0.755   2.078  -1.208  0.00  0.00    +0.040 C 
ATOM     13  C   LIG    1        1.413   2.071   0.034  0.00  0.00    +0.050 C 
ATOM     14  C   LIG    1        0.019  -0.000  -0.058  0.00  0.00    +0.040 C 
ENDBRANCH   7  11
ENDBRANCH   4  10
ENDBRANCH   1   4
BRANCH   1  15
ATOM     15  C   LIG    1       -2.339   2.976   7.234  0.00  0.00    -0.360 C 
BRANCH  15  16
ATOM     16  C   LIG    1       -3.468   3.623   8.040  0.00  0.00    +0.100 C 
BRANCH  16  17
ATOM     17  C   LIG    1       -3.174   3.490   9.512  0.00  0.00    -0.040 A 
ATOM     18  C   LIG    1       -3.628   2.387  10.210  0.00  0.00    +0.000 A 
ATOM     19  C   LIG    1       -3.355   2.262  11.560  0.00  0.00    +0.040 A 
ATOM     20  C   LIG    1       -2.638   3.244  12.214  0.00  0.00    -0.030 A 
ATOM     21  C   LIG    1       -2.187   4.353  11.517  0.00  0.00    +0.100 A 
ATOM     22  F   LIG    1       -1.486   5.314  12.156  0.00  0.00    -0.140 F 
ATOM     23  C   LIG    1       -2.457   4.475  10.165  0.00  0.00    -0.010 A 
ENDBRANCH  16  17
ENDBRANCH  15  16
ENDBRANCH   1  15
TORSDOF 6
