REMARK  Name = ZINCrD00000hQ6xN.0
REMARK                            x       y       z     vdW  Elec       q    Type
REMARK                         _______ _______ _______ _____ _____    ______ ____
ROOT
ATOM      1  C   LIG    1        1.656  -3.372  -2.526  0.00  0.00    +0.210 A 
ATOM      2  N   LIG    1        2.207  -2.497  -1.725  0.00  0.00    -0.470 NA
ATOM      3  C   LIG    1        1.248  -1.772  -1.144  0.00  0.00    -0.020 A 
ATOM      4  C   LIG    1        0.055  -2.208  -1.602  0.00  0.00    -0.020 A 
ATOM      5  C   LIG    1       -1.281  -1.646  -1.194  0.00  0.00    +0.100 C 
ATOM      6  C   LIG    1       -1.107  -0.850   0.105  0.00  0.00    +0.330 C 
ATOM      7  N   LIG    1        0.088   0.000  -0.008  0.00  0.00    -0.630 N 
ATOM      8  C   LIG    1       -0.016   1.344   0.009  0.00  0.00    +0.710 C 
ATOM      9  N   LIG    1        1.095   2.106   0.005  0.00  0.00    -0.750 N 
ATOM     10  H   LIG    1        1.968   1.691  -0.083  0.00  0.00    +0.400 HD
ATOM     11  O   LIG    1       -1.113   1.868   0.024  0.00  0.00    -0.590 OA
ATOM     12  C   LIG    1        1.402  -0.653  -0.147  0.00  0.00    +0.370 C 
ATOM     13  N   LIG    1        0.312  -3.223  -2.475  0.00  0.00    -0.450 N 
ATOM     14  C   LIG    1       -0.680  -4.004  -3.217  0.00  0.00    +0.330 C 
ENDROOT
BRANCH   1  16
ATOM     15  C   LIG    1        3.329  -3.648  -4.335  0.00  0.00    +0.040 C 
ATOM     16  C   LIG    1        2.396  -4.379  -3.368  0.00  0.00    +0.070 C 
ATOM     17  C   LIG    1        3.218  -5.296  -2.460  0.00  0.00    +0.040 C 
ENDBRANCH   1  16
BRANCH   9  18
ATOM     18  C   LIG    1        0.986   3.561   0.132  0.00  0.00    +0.280 C 
BRANCH  18  19
ATOM     19  C   LIG    1        2.383   4.183   0.099  0.00  0.00    +0.070 C 
BRANCH  19  20
ATOM     20  C   LIG    1        2.271   5.680   0.230  0.00  0.00    -0.110 A 
ATOM     21  C   LIG    1        2.152   6.464  -0.910  0.00  0.00    +0.040 A 
ATOM     22  C   LIG    1        2.042   7.834  -0.812  0.00  0.00    -0.010 A 
ATOM     23  C   LIG    1        2.062   8.441   0.440  0.00  0.00    +0.090 A 
ATOM     24  N   LIG    1        1.980   9.749   0.860  0.00  0.00    -0.600 N 
ATOM     25  H   LIG    1        1.887  10.518   0.275  0.00  0.00    +0.420 HD
ATOM     26  C   LIG    1        2.050   9.805   2.225  0.00  0.00    +0.220 A 
ATOM     27  C   LIG    1        2.176   8.566   2.728  0.00  0.00    -0.050 A 
ATOM     28  C   LIG    1        2.188   7.642   1.591  0.00  0.00    -0.110 A 
ATOM     29  C   LIG    1        2.292   6.255   1.469  0.00  0.00    +0.060 A 
ENDBRANCH  19  20
ENDBRANCH  18  19
ENDBRANCH   9  18
TORSDOF 4
