REMARK  Name = ZINCrD00000F5Ltz.0
REMARK                            x       y       z     vdW  Elec       q    Type
REMARK                         _______ _______ _______ _____ _____    ______ ____
ROOT
ATOM      1  N   LIG    1        2.237   7.351   0.018  0.00  0.00    -0.580 N 
ATOM      2  H   LIG    1        1.499   7.981   0.029  0.00  0.00    +0.390 HD
ATOM      3  C   LIG    1        3.507   7.803   0.008  0.00  0.00    +0.530 C 
ATOM      4  O   LIG    1        4.430   7.016  -0.005  0.00  0.00    -0.490 OA
ENDROOT
BRANCH   1   7
ATOM      5  C   LIG    1       -0.387   6.517   0.040  0.00  0.00    +0.090 C 
ATOM      6  C   LIG    1        0.760   5.539   0.024  0.00  0.00    +0.150 C 
ATOM      7  N   LIG    1        1.983   5.974   0.014  0.00  0.00    -0.230 NA
BRANCH   6   8
ATOM      8  C   LIG    1        0.493   4.089   0.019  0.00  0.00    -0.040 A 
ATOM      9  C   LIG    1       -0.823   3.620   0.029  0.00  0.00    +0.070 A 
ATOM     10  C   LIG    1       -1.070   2.263   0.019  0.00  0.00    +0.040 A 
ATOM     11  C   LIG    1       -0.016   1.361   0.009  0.00  0.00    +0.050 A 
ATOM     12  O   LIG    1        0.002  -0.004   0.002  0.00  0.00    -0.310 OA
ATOM     13  C   LIG    1        1.335  -0.373   0.400  0.00  0.00    +0.440 C 
ATOM     14  O   LIG    1        2.139   0.747  -0.014  0.00  0.00    -0.310 OA
ATOM     15  C   LIG    1        1.300   1.823  -0.001  0.00  0.00    +0.030 A 
ATOM     16  C   LIG    1        1.555   3.181   0.004  0.00  0.00    +0.090 A 
ENDBRANCH   6   8
ENDBRANCH   1   7
BRANCH   3  17
ATOM     17  C   LIG    1        3.780   9.285   0.013  0.00  0.00    +0.310 C 
BRANCH  17  18
ATOM     18  N   LIG    1        5.227   9.515   0.000  0.00  0.00    -0.730 N 
ATOM     19  H   LIG    1        5.837   8.761  -0.010  0.00  0.00    +0.420 HD
BRANCH  18  20
ATOM     20  C   LIG    1        5.726  10.819   0.002  0.00  0.00    +0.220 A 
ATOM     21  C   LIG    1        4.853  11.899   0.010  0.00  0.00    -0.040 A 
ATOM     22  C   LIG    1        5.351  13.188   0.016  0.00  0.00    +0.070 A 
ATOM     23  C   LIG    1        6.717  13.403   0.004  0.00  0.00    +0.000 A 
ATOM     24  C   LIG    1        7.589  12.329  -0.009  0.00  0.00    -0.130 A 
ATOM     25  C   LIG    1        7.098  11.039  -0.011  0.00  0.00    +0.000 A 
BRANCH  24  26
ATOM     26  C   LIG    1        9.077  12.569  -0.023  0.00  0.00    +0.510 C 
ATOM     27  F   LIG    1        9.725  11.512   0.626  0.00  0.00    -0.180 F 
ATOM     28  F   LIG    1        9.362  13.768   0.639  0.00  0.00    -0.180 F 
ATOM     29  F   LIG    1        9.524  12.649  -1.346  0.00  0.00    -0.180 F 
ENDBRANCH  24  26
ENDBRANCH  18  20
ENDBRANCH  17  18
ENDBRANCH   3  17
TORSDOF 6
