REMARK  Name = ZINCqH00000036at.0
REMARK                            x       y       z     vdW  Elec       q    Type
REMARK                         _______ _______ _______ _____ _____    ______ ____
ROOT
ATOM      1  N   LIG    1       -4.750  -0.263   0.894  0.00  0.00    -0.460 N 
ENDROOT
BRANCH   1   2
ATOM      2  C   LIG    1       -5.896  -1.028   0.780  0.00  0.00    +0.410 A 
ATOM      3  C   LIG    1       -6.049  -2.210   1.521  0.00  0.00    -0.230 A 
ATOM      4  C   LIG    1       -5.233  -2.936   2.493  0.00  0.00    +0.000 A 
ATOM      5  C   LIG    1       -5.935  -4.022   2.855  0.00  0.00    +0.230 A 
ATOM      6  N   LIG    1       -7.134  -4.043   2.190  0.00  0.00    -0.570 N 
ATOM      7  H   LIG    1       -7.811  -4.731   2.287  0.00  0.00    +0.420 HD
ATOM      8  C   LIG    1       -7.234  -2.953   1.370  0.00  0.00    +0.330 A 
ATOM      9  N   LIG    1       -8.164  -2.505   0.528  0.00  0.00    -0.540 NA
ATOM     10  C   LIG    1       -7.978  -1.391  -0.147  0.00  0.00    +0.370 A 
ATOM     11  N   LIG    1       -6.884  -0.661  -0.032  0.00  0.00    -0.580 NA
BRANCH  10  12
ATOM     12  C   LIG    1       -9.061  -0.928  -1.087  0.00  0.00    +0.080 C 
ATOM     13  C   LIG    1      -10.353  -0.695  -0.302  0.00  0.00    +0.050 C 
ATOM     14  C   LIG    1       -9.299  -1.995  -2.157  0.00  0.00    +0.050 C 
ENDBRANCH  10  12
ENDBRANCH   1   2
BRANCH   1  16
ATOM     15  C   LIG    1       -2.322  -0.372   1.196  0.00  0.00    +0.050 C 
ATOM     16  C   LIG    1       -3.552  -1.062   0.602  0.00  0.00    +0.190 C 
ENDBRANCH   1  16
BRANCH   1  17
ATOM     17  C   LIG    1       -4.819   0.920   0.025  0.00  0.00    +0.250 C 
BRANCH  17  18
ATOM     18  C   LIG    1       -5.747   1.961   0.654  0.00  0.00    +0.160 C 
ATOM     19  C   LIG    1       -5.836   3.193  -0.257  0.00  0.00    +0.230 C 
ATOM     20  O   LIG    1       -6.699   4.150   0.365  0.00  0.00    -0.300 OA
ATOM     21  C   LIG    1       -6.495   4.388   1.690  0.00  0.00    +0.040 A 
ATOM     22  C   LIG    1       -7.030   5.529   2.268  0.00  0.00    +0.020 A 
ATOM     23  C   LIG    1       -6.834   5.782   3.613  0.00  0.00    +0.010 A 
ATOM     24  C   LIG    1       -6.107   4.897   4.386  0.00  0.00    +0.010 A 
ATOM     25  C   LIG    1       -5.570   3.757   3.816  0.00  0.00    +0.010 A 
ATOM     26  C   LIG    1       -5.756   3.502   2.466  0.00  0.00    +0.060 A 
ATOM     27  O   LIG    1       -5.221   2.376   1.919  0.00  0.00    -0.290 OA
ENDBRANCH  17  18
ENDBRANCH   1  17
TORSDOF 5
