REMARK  Name = ZINCpe000000VaX1.0
REMARK                            x       y       z     vdW  Elec       q    Type
REMARK                         _______ _______ _______ _____ _____    ______ ____
ROOT
ATOM      1  C   LIG    1       -1.857   1.416  -0.646  0.00  0.00    +0.290 C 
ATOM      2  C   LIG    1       -2.135   0.764   0.681  0.00  0.00    +0.520 C 
ATOM      3  N   LIG    1       -1.207   0.613   1.626  0.00  0.00    -0.710 N 
ATOM      4  H   LIG    1       -1.453   0.125   2.427  0.00  0.00    +0.410 HD
ATOM      5  C   LIG    1        0.153   1.132   1.541  0.00  0.00    +0.260 C 
ATOM      6  C   LIG    1        0.548   1.377   0.084  0.00  0.00    +0.320 C 
ATOM      7  O   LIG    1       -3.256   0.355   0.901  0.00  0.00    -0.530 OA
ATOM      8  N   LIG    1       -0.554   2.095  -0.578  0.00  0.00    -1.000 NA
ENDROOT
BRANCH   8   9
ATOM      9  S   LIG    1       -0.336   3.606  -1.220  0.00  0.00    +2.690 S 
ATOM     10  O   LIG    1       -1.304   3.748  -2.250  0.00  0.00    -0.940 OA
ATOM     11  O   LIG    1        1.060   3.751  -1.440  0.00  0.00    -0.940 OA
BRANCH   9  12
ATOM     12  C   LIG    1       -0.766   4.771   0.031  0.00  0.00    -0.680 A 
ATOM     13  C   LIG    1        0.148   5.098   0.985  0.00  0.00    +0.160 A 
ATOM     14  C   LIG    1       -0.191   6.027   1.983  0.00  0.00    -0.080 A 
ATOM     15  C   LIG    1        0.725   6.389   2.985  0.00  0.00    +0.040 A 
ATOM     16  C   LIG    1        0.361   7.292   3.936  0.00  0.00    +0.010 A 
ATOM     17  C   LIG    1       -0.909   7.864   3.933  0.00  0.00    +0.040 A 
ATOM     18  C   LIG    1       -1.823   7.537   2.979  0.00  0.00    +0.010 A 
ATOM     19  C   LIG    1       -1.484   6.609   1.980  0.00  0.00    -0.010 A 
ATOM     20  C   LIG    1       -2.401   6.246   0.979  0.00  0.00    +0.030 A 
ATOM     21  C   LIG    1       -2.035   5.347   0.025  0.00  0.00    +0.090 A 
ENDBRANCH   9  12
ENDBRANCH   8   9
BRANCH   1  22
ATOM     22  C   LIG    1       -2.953   2.439  -0.954  0.00  0.00    +0.110 C 
BRANCH  22  23
ATOM     23  C   LIG    1       -3.249   2.427  -2.431  0.00  0.00    +0.500 C 
ATOM     24  O   LIG    1       -2.702   1.626  -3.151  0.00  0.00    -0.510 OA
BRANCH  23  26
ATOM     25  C   LIG    1       -4.455   3.158  -4.353  0.00  0.00    +0.270 C 
ATOM     26  O   LIG    1       -4.121   3.308  -2.948  0.00  0.00    -0.350 OA
ENDBRANCH  23  26
ENDBRANCH  22  23
ENDBRANCH   1  22
TORSDOF 5
