REMARK  Name = ZINCrD0000045FHh.0
REMARK                            x       y       z     vdW  Elec       q    Type
REMARK                         _______ _______ _______ _____ _____    ______ ____
ROOT
ATOM      1  C   LIG    1       -2.061   1.513   0.425  0.00  0.00    +0.330 C 
ATOM      2  C   LIG    1       -0.557   1.353   0.759  0.00  0.00    +0.130 C 
ATOM      3  C   LIG    1        0.035   1.011  -0.627  0.00  0.00    +0.080 C 
ATOM      4  C   LIG    1       -0.948   1.607  -1.611  0.00  0.00    +0.530 C 
ATOM      5  O   LIG    1       -0.720   1.806  -2.786  0.00  0.00    -0.520 OA
ATOM      6  N   LIG    1       -2.110   1.883  -0.994  0.00  0.00    -0.600 N 
ENDROOT
BRANCH   1  10
ATOM      7  C   LIG    1       -4.649   3.909   3.986  0.00  0.00    +0.360 C 
ATOM      8  N   LIG    1       -3.800   3.639   2.823  0.00  0.00    -0.380 N 
ATOM      9  C   LIG    1       -3.467   2.421   2.349  0.00  0.00    +0.240 A 
ATOM     10  C   LIG    1       -2.671   2.602   1.269  0.00  0.00    -0.260 A 
ATOM     11  C   LIG    1       -2.519   3.978   1.073  0.00  0.00    +0.280 A 
ATOM     12  N   LIG    1       -3.196   4.601   2.003  0.00  0.00    -0.290 NA
ENDBRANCH   1  10
BRANCH   2  13
ATOM     13  C   LIG    1        0.018   2.641   1.289  0.00  0.00    +0.170 A 
ATOM     14  N   LIG    1       -0.038   3.806   0.710  0.00  0.00    -0.270 NA
ATOM     15  N   LIG    1        0.554   4.679   1.447  0.00  0.00    -0.280 NA
ATOM     16  C   LIG    1        1.017   4.098   2.517  0.00  0.00    +0.170 A 
ATOM     17  O   LIG    1        0.689   2.797   2.443  0.00  0.00    -0.220 OA
BRANCH  16  18
ATOM     18  C   LIG    1        1.779   4.763   3.634  0.00  0.00    +0.190 C 
BRANCH  18  19
ATOM     19  C   LIG    1        0.797   5.261   4.696  0.00  0.00    -0.020 C 
ATOM     20  C   LIG    1       -0.065   6.405   4.123  0.00  0.00    +0.010 C 
ATOM     21  C   LIG    1       -0.238   7.383   5.314  0.00  0.00    +0.010 C 
ATOM     22  C   LIG    1        1.147   7.327   6.006  0.00  0.00    +0.010 C 
ATOM     23  C   LIG    1        1.567   5.847   5.893  0.00  0.00    +0.020 C 
ENDBRANCH  18  19
ENDBRANCH  16  18
ENDBRANCH   2  13
BRANCH   6  24
ATOM     24  C   LIG    1       -3.275   2.478  -1.654  0.00  0.00    +0.190 C 
ATOM     25  C   LIG    1       -2.954   3.920  -2.053  0.00  0.00    +0.020 C 
ATOM     26  C   LIG    1       -4.465   2.468  -0.693  0.00  0.00    +0.030 C 
ATOM     27  C   LIG    1       -3.622   1.668  -2.904  0.00  0.00    +0.050 C 
ENDBRANCH   6  24
TORSDOF 5
