REMARK  Name = ZINCqH0000004LhS.0
REMARK                            x       y       z     vdW  Elec       q    Type
REMARK                         _______ _______ _______ _____ _____    ______ ____
ROOT
ATOM      1  C   LIG    1        1.144   3.819  -0.941  0.00  0.00    -0.060 A 
ATOM      2  C   LIG    1        0.434   4.972  -1.265  0.00  0.00    +0.090 A 
ATOM      3  C   LIG    1        1.089   6.184  -1.350  0.00  0.00    -0.010 A 
ATOM      4  C   LIG    1        2.451   6.259  -1.114  0.00  0.00    +0.050 A 
ATOM      5  C   LIG    1        3.166   5.122  -0.791  0.00  0.00    +0.020 A 
ATOM      6  C   LIG    1        2.520   3.898  -0.697  0.00  0.00    +0.180 A 
ENDROOT
BRANCH   1   9
ATOM      7  C   LIG    1       -1.158   1.058  -0.825  0.00  0.00    +0.300 A 
ATOM      8  N   LIG    1       -0.879   2.329  -0.946  0.00  0.00    -0.520 NA
ATOM      9  C   LIG    1        0.444   2.514  -0.849  0.00  0.00    +0.290 A 
ATOM     10  N   LIG    1        1.020   1.347  -0.657  0.00  0.00    -0.340 NA
ATOM     11  N   LIG    1       -0.006   0.389  -0.635  0.00  0.00    -0.480 N 
ATOM     12  H   LIG    1        0.095  -0.567  -0.512  0.00  0.00    +0.440 HD
BRANCH   7  14
ATOM     13  C   LIG    1       -3.440   1.129   0.144  0.00  0.00    +0.050 C 
ATOM     14  C   LIG    1       -2.534   0.447  -0.884  0.00  0.00    +0.140 C 
ENDBRANCH   7  14
ENDBRANCH   1   9
BRANCH   6  15
ATOM     15  N   LIG    1        3.240   2.748  -0.366  0.00  0.00    -0.670 N 
ATOM     16  H   LIG    1        2.801   2.017   0.096  0.00  0.00    +0.420 HD
ATOM     17  C   LIG    1        4.546   2.655  -0.687  0.00  0.00    +0.590 C 
ATOM     18  O   LIG    1        5.115   3.600  -1.201  0.00  0.00    -0.500 OA
BRANCH  17  19
ATOM     19  C   LIG    1        5.282   1.412  -0.416  0.00  0.00    +0.010 A 
ATOM     20  C   LIG    1        6.552   1.145  -0.821  0.00  0.00    +0.060 A 
ATOM     21  C   LIG    1        6.889  -0.149  -0.356  0.00  0.00    -0.120 A 
ATOM     22  C   LIG    1        8.040  -0.941  -0.463  0.00  0.00    +0.070 A 
ATOM     23  C   LIG    1        8.064  -2.183   0.101  0.00  0.00    -0.020 A 
ATOM     24  C   LIG    1        6.957  -2.673   0.781  0.00  0.00    +0.050 A 
ATOM     25  C   LIG    1        5.814  -1.914   0.900  0.00  0.00    -0.020 A 
ATOM     26  C   LIG    1        5.764  -0.644   0.334  0.00  0.00    +0.120 A 
ATOM     27  N   LIG    1        4.793   0.328   0.285  0.00  0.00    -0.470 N 
ATOM     28  C   LIG    1        3.457   0.228   0.879  0.00  0.00    +0.320 C 
ENDBRANCH  17  19
ENDBRANCH   6  15
TORSDOF 4
