REMARK  Name = ZINCtV00000tRR1q.0
REMARK                            x       y       z     vdW  Elec       q    Type
REMARK                         _______ _______ _______ _____ _____    ______ ____
ROOT
ATOM      1  S   LIG    1       -2.666  -2.959   0.411  0.00  0.00    +2.670 S 
ATOM      2  O   LIG    1       -2.140  -4.162   0.953  0.00  0.00    -0.940 OA
ATOM      3  O   LIG    1       -3.646  -2.933  -0.617  0.00  0.00    -0.920 OA
ENDROOT
BRANCH   1  10
ATOM      4  C   LIG    1       -0.330  -2.662  -0.978  0.00  0.00    +0.230 A 
ATOM      5  C   LIG    1        0.753  -1.936  -1.451  0.00  0.00    -0.080 A 
ATOM      6  C   LIG    1        0.872  -0.595  -1.143  0.00  0.00    +0.010 A 
ATOM      7  C   LIG    1       -0.081   0.021  -0.354  0.00  0.00    -0.130 A 
ATOM      8  C   LIG    1       -1.162  -0.700   0.119  0.00  0.00    +0.150 A 
ATOM      9  C   LIG    1        2.046   0.196  -1.661  0.00  0.00    +0.100 C 
ATOM     10  C   LIG    1       -1.288  -2.040  -0.191  0.00  0.00    -0.700 A 
BRANCH   7  11
ATOM     11  C   LIG    1        0.054   1.483  -0.013  0.00  0.00    +0.030 C 
ATOM     12  C   LIG    1        0.035   1.657   1.507  0.00  0.00    +0.030 C 
ATOM     13  C   LIG    1       -1.110   2.260  -0.630  0.00  0.00    +0.030 C 
ENDBRANCH   7  11
BRANCH   4  14
ATOM     14  O   LIG    1       -0.452  -3.981  -1.284  0.00  0.00    -0.310 OA
BRANCH  14  16
ATOM     15  C   LIG    1        0.267  -6.035  -2.336  0.00  0.00    +0.060 C 
ATOM     16  C   LIG    1        0.573  -4.555  -2.099  0.00  0.00    +0.190 C 
ENDBRANCH  14  16
ENDBRANCH   4  14
ENDBRANCH   1  10
BRANCH   1  17
ATOM     17  O   LIG    1       -3.250  -2.180   1.581  0.00  0.00    -0.660 OA
BRANCH  17  18
ATOM     18  C   LIG    1       -4.098  -2.903   2.359  0.00  0.00    +0.140 A 
ATOM     19  C   LIG    1       -3.645  -3.487   3.520  0.00  0.00    -0.050 A 
ATOM     20  C   LIG    1       -4.503  -4.232   4.327  0.00  0.00    +0.110 A 
ATOM     21  C   LIG    1       -5.812  -4.401   3.988  0.00  0.00    -0.050 A 
ATOM     22  C   LIG    1       -6.310  -3.820   2.809  0.00  0.00    -0.070 A 
ATOM     23  C   LIG    1       -7.657  -3.976   2.430  0.00  0.00    +0.100 A 
ATOM     24  C   LIG    1       -8.077  -3.369   1.281  0.00  0.00    +0.000 A 
ATOM     25  C   LIG    1       -7.176  -2.636   0.512  0.00  0.00    +0.330 A 
ATOM     26  N   LIG    1       -5.921  -2.498   0.866  0.00  0.00    -0.440 NA
ATOM     27 BR   LIG    1       -6.955  -5.416   5.101  0.00  0.00    -0.010 Br
ATOM     28 BR   LIG    1       -1.836  -3.277   4.027  0.00  0.00    +0.010 Br
ATOM     29  C   LIG    1       -5.449  -3.056   1.984  0.00  0.00    +0.120 A 
ENDBRANCH  17  18
ENDBRANCH   1  17
TORSDOF 6
