REMARK  Name = ZINCpk00000G1ohM.0
REMARK                            x       y       z     vdW  Elec       q    Type
REMARK                         _______ _______ _______ _____ _____    ______ ____
ROOT
ATOM      1  C   LIG    1        1.139   1.892  -4.403  0.00  0.00    +0.070 C 
ENDROOT
BRANCH   1   3
ATOM      2  O   LIG    1        0.159   3.398  -2.873  0.00  0.00    -0.510 OA
ATOM      3  C   LIG    1        0.385   2.238  -3.145  0.00  0.00    +0.530 C 
ATOM      4  N   LIG    1       -0.039   1.258  -2.322  0.00  0.00    -0.590 N 
ATOM      5  H   LIG    1        0.142   0.330  -2.540  0.00  0.00    +0.380 HD
BRANCH   4   6
ATOM      6  N   LIG    1       -0.723   1.572  -1.182  0.00  0.00    -0.300 NA
ATOM      7  C   LIG    1       -0.013   1.086   0.008  0.00  0.00    +0.160 C 
ATOM      8  C   LIG    1       -0.729   1.579   1.267  0.00  0.00    +0.050 C 
ATOM      9  C   LIG    1       -2.170   1.064   1.264  0.00  0.00    -0.010 C 
ATOM     10  C   LIG    1       -2.873   1.544  -0.009  0.00  0.00    +0.050 C 
ATOM     11  C   LIG    1       -2.095   1.052  -1.231  0.00  0.00    +0.160 C 
BRANCH   9  12
ATOM     12  C   LIG    1       -2.909   1.604   2.491  0.00  0.00    +0.180 C 
BRANCH  12  13
ATOM     13  O   LIG    1       -2.324   1.062   3.676  0.00  0.00    -0.570 OA
ATOM     14  H   LIG    1       -2.743   1.362   4.494  0.00  0.00    +0.380 HD
ENDBRANCH  12  13
ENDBRANCH   9  12
ENDBRANCH   4   6
ENDBRANCH   1   3
BRANCH   1  15
ATOM     15  C   LIG    1        1.502   3.177  -5.150  0.00  0.00    +0.040 C 
BRANCH  15  16
ATOM     16  C   LIG    1        2.267   2.825  -6.427  0.00  0.00    +0.280 C 
BRANCH  16  17
ATOM     17  N   LIG    1        2.614   4.055  -7.143  0.00  0.00    -0.710 N 
ATOM     18  H   LIG    1        2.353   4.917  -6.781  0.00  0.00    +0.410 HD
ATOM     19  C   LIG    1        3.296   3.990  -8.304  0.00  0.00    +0.650 C 
ATOM     20  O   LIG    1        3.623   2.911  -8.757  0.00  0.00    -0.570 OA
BRANCH  19  21
ATOM     21  O   LIG    1        3.615   5.121  -8.962  0.00  0.00    -0.370 OA
BRANCH  21  22
ATOM     22  C   LIG    1        4.349   4.975 -10.206  0.00  0.00    +0.290 C 
BRANCH  22  23
ATOM     23  C   LIG    1        4.614   6.337 -10.795  0.00  0.00    -0.100 A 
ATOM     24  C   LIG    1        3.706   6.899 -11.672  0.00  0.00    +0.040 A 
ATOM     25  C   LIG    1        3.947   8.150 -12.209  0.00  0.00    +0.010 A 
ATOM     26  C   LIG    1        5.102   8.834 -11.876  0.00  0.00    +0.020 A 
ATOM     27  C   LIG    1        6.012   8.269 -11.003  0.00  0.00    +0.010 A 
ATOM     28  C   LIG    1        5.769   7.021 -10.462  0.00  0.00    +0.040 A 
ENDBRANCH  22  23
ENDBRANCH  21  22
ENDBRANCH  19  21
ENDBRANCH  16  17
ENDBRANCH  15  16
ENDBRANCH   1  15
TORSDOF 10
