REMARK  Name = ZINCpk00000e9ZZ3.0
REMARK                            x       y       z     vdW  Elec       q    Type
REMARK                         _______ _______ _______ _____ _____    ______ ____
ROOT
ATOM      1  C   LIG    1       -2.858  -2.807   1.285  0.00  0.00    +0.270 C 
ENDROOT
BRANCH   1   4
ATOM      2  N   LIG    1       -1.994  -0.500   1.511  0.00  0.00    -0.710 N 
ATOM      3  H   LIG    1       -1.193  -0.872   1.912  0.00  0.00    +0.410 HD
ATOM      4  C   LIG    1       -2.989  -1.315   1.110  0.00  0.00    +0.520 C 
ATOM      5  O   LIG    1       -3.990  -0.849   0.609  0.00  0.00    -0.500 OA
BRANCH   2   6
ATOM      6  C   LIG    1       -2.121   0.950   1.341  0.00  0.00    +0.290 C 
BRANCH   6   7
ATOM      7  C   LIG    1       -2.872   1.528   2.513  0.00  0.00    +0.450 C 
ATOM      8  O   LIG    1       -3.261   0.804   3.398  0.00  0.00    -0.500 OA
BRANCH   7  10
ATOM      9  C   LIG    1       -3.838   3.336   3.729  0.00  0.00    +0.260 C 
ATOM     10  O   LIG    1       -3.110   2.848   2.572  0.00  0.00    -0.360 OA
ENDBRANCH   7  10
ENDBRANCH   6   7
BRANCH   6  11
ATOM     11  C   LIG    1       -0.729   1.579   1.267  0.00  0.00    +0.060 C 
BRANCH  11  12
ATOM     12  C   LIG    1       -0.013   1.086   0.008  0.00  0.00    -0.030 C 
ATOM     13  C   LIG    1       -0.753   1.593  -1.232  0.00  0.00    +0.020 C 
ATOM     14  C   LIG    1        1.423   1.615  -0.003  0.00  0.00    +0.030 C 
ENDBRANCH  11  12
ENDBRANCH   6  11
ENDBRANCH   2   6
ENDBRANCH   1   4
BRANCH   1  15
ATOM     15  O   LIG    1       -4.052  -3.460   0.779  0.00  0.00    -0.320 OA
BRANCH  15  16
ATOM     16  C   LIG    1       -4.095  -4.805   0.862  0.00  0.00    +0.560 C 
ATOM     17  O   LIG    1       -3.160  -5.414   1.343  0.00  0.00    -0.490 OA
BRANCH  16  18
ATOM     18  C   LIG    1       -5.274  -5.535   0.369  0.00  0.00    +0.010 A 
ATOM     19  N   LIG    1       -6.357  -5.014  -0.168  0.00  0.00    -0.160 NA
ATOM     20  N   LIG    1       -7.209  -5.915  -0.501  0.00  0.00    -0.400 N 
ATOM     21  H   LIG    1       -8.068  -5.731  -0.913  0.00  0.00    +0.450 HD
ATOM     22  C   LIG    1       -6.752  -7.170  -0.193  0.00  0.00    +0.060 A 
ATOM     23  C   LIG    1       -7.259  -8.457  -0.331  0.00  0.00    +0.010 A 
ATOM     24  C   LIG    1       -6.514  -9.534   0.097  0.00  0.00    +0.060 A 
ATOM     25  C   LIG    1       -5.261  -9.348   0.666  0.00  0.00    +0.000 A 
ATOM     26  C   LIG    1       -4.743  -8.091   0.810  0.00  0.00    +0.090 A 
ATOM     27  C   LIG    1       -5.479  -6.990   0.385  0.00  0.00    -0.100 A 
ENDBRANCH  16  18
ENDBRANCH  15  16
ENDBRANCH   1  15
TORSDOF 9
