REMARK  Name = ZINCrH000004tzoI.0
REMARK                            x       y       z     vdW  Elec       q    Type
REMARK                         _______ _______ _______ _____ _____    ______ ____
ROOT
ATOM      1  C   LIG    1       -3.770  -1.314   0.590  0.00  0.00    +0.610 C 
ATOM      2  N   LIG    1       -3.361  -1.218  -0.691  0.00  0.00    -0.600 N 
ATOM      3  C   LIG    1       -3.974  -1.904  -1.843  0.00  0.00    +0.270 C 
ATOM      4  C   LIG    1       -3.595  -1.037  -3.069  0.00  0.00    +0.060 C 
ATOM      5  C   LIG    1       -2.153  -0.587  -2.702  0.00  0.00    +0.060 C 
ATOM      6  C   LIG    1       -2.228  -0.412  -1.171  0.00  0.00    +0.320 C 
ATOM      7  O   LIG    1       -3.151  -0.747   1.470  0.00  0.00    -0.520 OA
ENDROOT
BRANCH   6   8
ATOM      8  C   LIG    1       -0.950  -0.896  -0.536  0.00  0.00    +0.170 A 
ATOM      9  N   LIG    1       -0.587  -2.141  -0.374  0.00  0.00    -0.280 NA
ATOM     10  N   LIG    1        0.567  -2.186   0.197  0.00  0.00    -0.290 NA
ATOM     11  C   LIG    1        0.990  -0.974   0.419  0.00  0.00    +0.180 A 
ATOM     12  C   LIG    1        2.300  -0.568   1.043  0.00  0.00    +0.150 C 
ATOM     13  C   LIG    1        2.038   0.511   2.099  0.00  0.00    +0.020 C 
ATOM     14  C   LIG    1        2.068   1.887   1.442  0.00  0.00    +0.020 C 
ATOM     15  C   LIG    1        1.529   1.810   0.014  0.00  0.00    +0.030 C 
ATOM     16  C   LIG    1        0.073   1.337   0.035  0.00  0.00    +0.280 C 
ATOM     17  N   LIG    1        0.037  -0.124  -0.029  0.00  0.00    -0.460 N 
ENDBRANCH   6   8
BRANCH   1  23
ATOM     18  C   LIG    1       -8.560  -4.063   3.278  0.00  0.00    +0.210 A 
ATOM     19  C   LIG    1       -8.878  -4.673   2.064  0.00  0.00    -0.020 A 
ATOM     20  C   LIG    1       -8.107  -4.438   0.952  0.00  0.00    +0.090 A 
ATOM     21  C   LIG    1       -6.998  -3.589   1.025  0.00  0.00    -0.190 A 
ATOM     22  S   LIG    1       -5.844  -3.109  -0.215  0.00  0.00    +0.130 S 
ATOM     23  C   LIG    1       -4.964  -2.103   0.922  0.00  0.00    -0.220 A 
ATOM     24  C   LIG    1       -5.527  -2.157   2.134  0.00  0.00    +0.110 A 
ATOM     25  C   LIG    1       -6.668  -2.970   2.237  0.00  0.00    -0.040 A 
ATOM     26  C   LIG    1       -7.475  -3.224   3.372  0.00  0.00    -0.030 A 
BRANCH  18  27
ATOM     27  N   LIG    1       -9.351  -4.307   4.407  0.00  0.00    -0.880 N 
ATOM     28  H   LIG    1      -10.117  -4.899   4.344  0.00  0.00    +0.400 HD
ATOM     29  H   LIG    1       -9.132  -3.885   5.252  0.00  0.00    +0.400 HD
ENDBRANCH  18  27
ENDBRANCH   1  23
TORSDOF 3
