REMARK  Name = ZINCtV00000L6l0g.0
REMARK                            x       y       z     vdW  Elec       q    Type
REMARK                         _______ _______ _______ _____ _____    ______ ____
ROOT
ATOM      1  C   LIG    1       -2.610   4.678   0.276  0.00  0.00    +0.200 C 
ENDROOT
BRANCH   1   2
ATOM      2  C   LIG    1       -3.741   4.820  -0.710  0.00  0.00    -0.150 A 
ATOM      3  C   LIG    1       -5.011   4.426  -0.530  0.00  0.00    +0.090 A 
ATOM      4  N   LIG    1       -5.753   4.721  -1.641  0.00  0.00    -0.590 N 
ATOM      5  H   LIG    1       -6.699   4.533  -1.746  0.00  0.00    +0.410 HD
ATOM      6  C   LIG    1       -4.956   5.319  -2.591  0.00  0.00    +0.100 A 
ATOM      7  C   LIG    1       -5.193   5.804  -3.873  0.00  0.00    -0.010 A 
ATOM      8  C   LIG    1       -4.161   6.363  -4.595  0.00  0.00    +0.020 A 
ATOM      9  C   LIG    1       -2.885   6.447  -4.056  0.00  0.00    -0.030 A 
ATOM     10  C   LIG    1       -2.630   5.977  -2.799  0.00  0.00    +0.060 A 
ATOM     11  C   LIG    1       -5.543   3.761   0.714  0.00  0.00    +0.130 C 
ATOM     12  C   LIG    1       -3.660   5.407  -2.050  0.00  0.00    -0.090 A 
ENDBRANCH   1   2
BRANCH   1  13
ATOM     13  C   LIG    1       -2.903   5.509   1.499  0.00  0.00    -0.150 A 
ATOM     14  C   LIG    1       -2.844   5.099   2.776  0.00  0.00    +0.080 A 
ATOM     15  N   LIG    1       -3.174   6.130   3.612  0.00  0.00    -0.590 N 
ATOM     16  H   LIG    1       -3.200   6.075   4.580  0.00  0.00    +0.410 HD
ATOM     17  C   LIG    1       -3.469   7.255   2.875  0.00  0.00    +0.100 A 
ATOM     18  C   LIG    1       -3.858   8.547   3.213  0.00  0.00    -0.010 A 
ATOM     19  C   LIG    1       -4.084   9.475   2.221  0.00  0.00    +0.020 A 
ATOM     20  C   LIG    1       -3.929   9.135   0.884  0.00  0.00    -0.030 A 
ATOM     21  C   LIG    1       -3.546   7.872   0.530  0.00  0.00    +0.050 A 
ATOM     22  C   LIG    1       -2.468   3.709   3.221  0.00  0.00    +0.130 C 
ATOM     23  C   LIG    1       -3.312   6.915   1.519  0.00  0.00    -0.090 A 
ENDBRANCH   1  13
BRANCH   1  28
ATOM     24  C   LIG    1        0.620   4.714  -1.684  0.00  0.00    +0.130 A 
ATOM     25  C   LIG    1        1.027   6.030  -1.520  0.00  0.00    -0.090 A 
ATOM     26  C   LIG    1        0.255   6.902  -0.776  0.00  0.00    +0.040 A 
ATOM     27  C   LIG    1       -0.921   6.464  -0.196  0.00  0.00    -0.010 A 
ATOM     28  C   LIG    1       -1.328   5.152  -0.358  0.00  0.00    -0.020 A 
ATOM     29  C   LIG    1       -0.563   4.278  -1.105  0.00  0.00    -0.020 A 
BRANCH  24  31
ATOM     30  C   LIG    1        2.580   4.373  -2.986  0.00  0.00    +0.240 C 
ATOM     31  O   LIG    1        1.377   3.854  -2.415  0.00  0.00    -0.320 OA
ENDBRANCH  24  31
ENDBRANCH   1  28
TORSDOF 4
