REMARK  Name = ZINCrH000004rIqO.0
REMARK                            x       y       z     vdW  Elec       q    Type
REMARK                         _______ _______ _______ _____ _____    ______ ____
ROOT
ATOM      1  N   LIG    1        0.836   8.922   2.497  0.00  0.00    -0.730 N 
ATOM      2  H   LIG    1        1.334   9.037   3.321  0.00  0.00    +0.400 HD
ATOM      3  C   LIG    1        0.417   7.696   2.127  0.00  0.00    +0.710 C 
ATOM      4  N   LIG    1        0.689   6.628   2.904  0.00  0.00    -0.680 N 
ATOM      5  H   LIG    1        1.114   6.752   3.767  0.00  0.00    +0.410 HD
ATOM      6  O   LIG    1       -0.207   7.552   1.094  0.00  0.00    -0.560 OA
ENDROOT
BRANCH   4   7
ATOM      7  C   LIG    1        0.358   5.339   2.464  0.00  0.00    +0.190 A 
ATOM      8  C   LIG    1        0.243   5.077   1.105  0.00  0.00    +0.050 A 
ATOM      9  C   LIG    1       -0.085   3.802   0.678  0.00  0.00    +0.100 A 
ATOM     10  C   LIG    1       -0.298   2.790   1.603  0.00  0.00    +0.050 A 
ATOM     11  O   LIG    1       -0.623   1.537   1.168  0.00  0.00    -0.310 OA
ATOM     12  C   LIG    1        0.408   0.829   0.477  0.00  0.00    +0.230 C 
ATOM     13  C   LIG    1        0.431   1.212  -0.995  0.00  0.00    -0.010 C 
ATOM     14  C   LIG    1        0.799   2.672  -1.207  0.00  0.00    +0.230 C 
ATOM     15  C   LIG    1       -0.184   3.051   2.958  0.00  0.00    +0.070 A 
ATOM     16  O   LIG    1       -0.200   3.532  -0.655  0.00  0.00    -0.310 OA
ATOM     17  C   LIG    1        0.144   4.324   3.389  0.00  0.00    -0.070 A 
ATOM     18 CL   LIG    1        0.288   4.654   5.087  0.00  0.00    -0.050 Cl
ENDBRANCH   4   7
BRANCH   1  19
ATOM     19  C   LIG    1        0.540  10.082   1.653  0.00  0.00    +0.400 C 
BRANCH  19  25
ATOM     20  C   LIG    1        4.446  15.931   3.923  0.00  0.00    +0.120 C 
ATOM     21  C   LIG    1        3.333  14.923   3.793  0.00  0.00    -0.100 A 
ATOM     22  C   LIG    1        3.453  13.900   2.921  0.00  0.00    +0.210 A 
ATOM     23  N   LIG    1        2.455  12.979   2.789  0.00  0.00    -0.360 N 
ATOM     24  C   LIG    1        2.317  11.869   2.001  0.00  0.00    +0.120 A 
ATOM     25  C   LIG    1        1.114  11.324   2.286  0.00  0.00    +0.030 A 
ATOM     26  N   LIG    1        0.517  12.071   3.217  0.00  0.00    -0.480 NA
ATOM     27  C   LIG    1        1.314  13.079   3.543  0.00  0.00    +0.220 A 
ATOM     28  C   LIG    1        1.175  14.141   4.459  0.00  0.00    +0.080 A 
ATOM     29  C   LIG    1        2.177  15.053   4.579  0.00  0.00    +0.050 A 
ENDBRANCH  19  25
ENDBRANCH   1  19
TORSDOF 3
