REMARK  Name = ZINCpe000000Wr1B.1
REMARK                            x       y       z     vdW  Elec       q    Type
REMARK                         _______ _______ _______ _____ _____    ______ ____
ROOT
ATOM      1  N   LIG    1       -1.719   1.137   8.309  0.00  0.00    -0.560 N 
ATOM      2  C   LIG    1       -1.982   0.500   7.014  0.00  0.00    +0.300 C 
ATOM      3  C   LIG    1       -1.618   1.560   5.951  0.00  0.00    +0.000 C 
ATOM      4  C   LIG    1       -0.590   2.429   6.712  0.00  0.00    +0.080 C 
ATOM      5  C   LIG    1       -0.935   2.220   8.170  0.00  0.00    +0.530 C 
ATOM      6  O   LIG    1       -0.558   2.926   9.082  0.00  0.00    -0.520 OA
ENDROOT
BRANCH   3   7
ATOM      7  C   LIG    1       -0.991   0.918   4.741  0.00  0.00    +0.530 C 
ATOM      8  N   LIG    1       -0.602   1.679   3.699  0.00  0.00    -0.610 N 
ATOM      9  C   LIG    1       -0.780   3.139   3.723  0.00  0.00    +0.230 C 
ATOM     10  C   LIG    1       -1.490   3.564   2.434  0.00  0.00    +0.210 C 
ATOM     11  N   LIG    1       -0.748   3.048   1.276  0.00  0.00    -0.680 NA
ATOM     12  H   LIG    1        0.189   3.422   1.252  0.00  0.00    +0.340 HD
ATOM     13  C   LIG    1       -0.729   1.579   1.267  0.00  0.00    +0.160 C 
ATOM     14  C   LIG    1       -0.013   1.086   0.008  0.00  0.00    +0.060 C 
ATOM     15  C   LIG    1        0.013   1.073   2.509  0.00  0.00    +0.250 C 
ATOM     16  O   LIG    1       -0.836  -0.284   4.704  0.00  0.00    -0.530 OA
ENDBRANCH   3   7
BRANCH   1  20
ATOM     17  C   LIG    1       -3.211  -0.238  11.958  0.00  0.00    +0.180 A 
ATOM     18  C   LIG    1       -1.988  -0.696  11.489  0.00  0.00    -0.100 A 
ATOM     19  C   LIG    1       -1.494  -0.241  10.282  0.00  0.00    +0.110 A 
ATOM     20  C   LIG    1       -2.221   0.675   9.535  0.00  0.00    +0.070 A 
ATOM     21  C   LIG    1       -3.446   1.140  10.007  0.00  0.00    +0.180 A 
ATOM     22  C   LIG    1       -3.941   0.678  11.215  0.00  0.00    -0.100 A 
BRANCH  17  24
ATOM     23  C   LIG    1       -2.890  -1.630  13.859  0.00  0.00    +0.240 C 
ATOM     24  O   LIG    1       -3.694  -0.688  13.147  0.00  0.00    -0.310 OA
ENDBRANCH  17  24
BRANCH  21  25
ATOM     25  O   LIG    1       -4.158   2.042   9.280  0.00  0.00    -0.300 OA
ATOM     26  C   LIG    1       -5.406   2.475   9.825  0.00  0.00    +0.240 C 
ENDBRANCH  21  25
ENDBRANCH   1  20
TORSDOF 4
