REMARK  Name = ZINCpk00001AZiup.0
REMARK                            x       y       z     vdW  Elec       q    Type
REMARK                         _______ _______ _______ _____ _____    ______ ____
ROOT
ATOM      1  C   LIG    1       -1.197   3.557   2.105  0.00  0.00    +0.550 C 
ATOM      2  N   LIG    1       -1.628   2.488   1.405  0.00  0.00    -0.560 N 
ATOM      3  O   LIG    1       -1.658   3.788   3.207  0.00  0.00    -0.510 OA
ENDROOT
BRANCH   2   4
ATOM      4  C   LIG    1       -2.516   1.579   1.991  0.00  0.00    +0.140 A 
ATOM      5  C   LIG    1       -3.740   1.312   1.377  0.00  0.00    +0.050 A 
ATOM      6  C   LIG    1       -4.618   0.423   1.931  0.00  0.00    +0.060 A 
ATOM      7  C   LIG    1       -4.300  -0.215   3.123  0.00  0.00    +0.020 A 
ATOM      8  C   LIG    1       -3.070   0.051   3.756  0.00  0.00    +0.030 A 
ATOM      9  N   LIG    1       -3.063  -0.710   4.869  0.00  0.00    -0.250 NA
ATOM     10  N   LIG    1       -4.160  -1.379   4.933  0.00  0.00    -0.020 NA
ATOM     11  N   LIG    1       -4.931  -1.130   3.931  0.00  0.00    -0.320 N 
ATOM     12  C   LIG    1       -6.251  -1.719   3.695  0.00  0.00    +0.380 C 
ATOM     13  C   LIG    1       -2.179   0.956   3.177  0.00  0.00    +0.100 A 
ENDBRANCH   2   4
BRANCH   1  15
ATOM     14  C   LIG    1        0.254   5.497   2.228  0.00  0.00    +0.150 C 
ATOM     15  C   LIG    1       -0.170   4.443   1.537  0.00  0.00    -0.080 C 
ENDBRANCH   1  15
BRANCH   2  16
ATOM     16  C   LIG    1       -1.165   2.278   0.031  0.00  0.00    +0.450 C 
BRANCH  16  17
ATOM     17  C   LIG    1        0.091   1.446   0.045  0.00  0.00    +0.130 A 
ATOM     18  N   LIG    1        1.321   1.892   0.108  0.00  0.00    -0.290 NA
ATOM     19  N   LIG    1        2.113   0.875   0.092  0.00  0.00    -0.130 N 
ATOM     20  N   LIG    1        1.412  -0.203   0.020  0.00  0.00    -0.060 NA
ATOM     21  N   LIG    1        0.163   0.116  -0.011  0.00  0.00    -0.270 NA
BRANCH  19  22
ATOM     22  C   LIG    1        3.575   0.935   0.147  0.00  0.00    +0.180 C 
ATOM     23  C   LIG    1        4.009   1.623   1.443  0.00  0.00    +0.080 C 
ATOM     24  C   LIG    1        4.098   1.730  -1.052  0.00  0.00    +0.080 C 
ATOM     25  C   LIG    1        4.146  -0.484   0.106  0.00  0.00    +0.100 C 
ENDBRANCH  19  22
ENDBRANCH  16  17
ENDBRANCH   2  16
TORSDOF 5
