REMARK  Name = ZINCpk00000xIkwR.0
REMARK                            x       y       z     vdW  Elec       q    Type
REMARK                         _______ _______ _______ _____ _____    ______ ____
ROOT
ATOM      1  C   LIG    1        1.305   1.811   2.239  0.00  0.00    +0.500 C 
ATOM      2  N   LIG    1        0.033   1.698   2.670  0.00  0.00    -0.570 N 
ATOM      3  O   LIG    1        2.181   1.147   2.752  0.00  0.00    -0.490 OA
ENDROOT
BRANCH   2   4
ATOM      4  C   LIG    1       -1.035   2.449   2.005  0.00  0.00    +0.280 C 
ATOM      5  C   LIG    1       -0.985   2.187   0.489  0.00  0.00    +0.060 C 
ATOM      6  C   LIG    1       -1.901   3.246  -0.175  0.00  0.00    -0.280 C 
ATOM      7  S   LIG    1       -1.476   4.774   0.743  0.00  0.00    +2.380 S 
ATOM      8  O   LIG    1       -2.667   5.482   1.057  0.00  0.00    -0.920 OA
ATOM      9  O   LIG    1       -0.408   5.439   0.082  0.00  0.00    -0.920 OA
ATOM     10  C   LIG    1       -0.841   3.958   2.252  0.00  0.00    -0.340 C 
ENDBRANCH   2   4
BRANCH   2  11
ATOM     11  C   LIG    1       -0.281   0.825   3.803  0.00  0.00    +0.200 C 
ATOM     12  C   LIG    1        0.815   0.598   4.846  0.00  0.00    +0.030 C 
ATOM     13  C   LIG    1        0.436  -0.525   3.876  0.00  0.00    +0.030 C 
ENDBRANCH   2  11
BRANCH   1  14
ATOM     14  C   LIG    1        1.640   2.762   1.119  0.00  0.00    +0.360 C 
BRANCH  14  25
ATOM     15  O   LIG    1        3.957   1.482  -0.119  0.00  0.00    -0.470 OA
ATOM     16  C   LIG    1        4.074   2.469   0.582  0.00  0.00    +0.650 A 
ATOM     17  O   LIG    1        5.232   3.082   0.872  0.00  0.00    -0.230 OA
ATOM     18  C   LIG    1        4.986   4.145   1.676  0.00  0.00    +0.060 A 
ATOM     19  C   LIG    1        5.804   5.099   2.259  0.00  0.00    +0.090 A 
ATOM     20  C   LIG    1        5.253   6.089   3.051  0.00  0.00    -0.030 A 
ATOM     21  C   LIG    1        3.886   6.132   3.265  0.00  0.00    +0.070 A 
ATOM     22  C   LIG    1        3.063   5.185   2.687  0.00  0.00    +0.050 A 
ATOM     23 CL   LIG    1        6.280   7.284   3.780  0.00  0.00    -0.040 Cl
ATOM     24  C   LIG    1        3.608   4.193   1.888  0.00  0.00    +0.080 A 
ATOM     25  N   LIG    1        3.059   3.118   1.188  0.00  0.00    -0.530 N 
ENDBRANCH  14  25
ENDBRANCH   1  14
TORSDOF 4
