REMARK  Name = ZINCb8000000119M.0
REMARK                            x       y       z     vdW  Elec       q    Type
REMARK                         _______ _______ _______ _____ _____    ______ ____
ROOT
ATOM      1  C   LIG    1       -4.693   0.959   1.134  0.00  0.00    +0.030 C 
ATOM      2  C   LIG    1       -3.314   1.618   1.194  0.00  0.00    -0.040 C 
ATOM      3  C   LIG    1       -3.470   3.138   1.108  0.00  0.00    +0.020 C 
ATOM      4  C   LIG    1       -2.093   3.800   1.201  0.00  0.00    +0.010 C 
ATOM      5  C   LIG    1       -1.227   3.335   0.032  0.00  0.00    +0.250 C 
ATOM      6  N   LIG    1       -1.191   1.867   0.018  0.00  0.00    -0.610 N 
ATOM      7  C   LIG    1       -0.014   1.209   0.009  0.00  0.00    +0.510 C 
ATOM      8  O   LIG    1        0.002  -0.004   0.002  0.00  0.00    -0.520 OA
ATOM      9  C   LIG    1       -2.461   1.129   0.020  0.00  0.00    +0.280 C 
ENDROOT
BRANCH   7  10
ATOM     10  C   LIG    1        1.280   1.980   0.001  0.00  0.00    +0.220 C 
BRANCH  10  11
ATOM     11  O   LIG    1        2.379   1.066  -0.015  0.00  0.00    -0.550 OA
ATOM     12  H   LIG    1        3.246   1.494  -0.021  0.00  0.00    +0.390 HD
ENDBRANCH  10  11
ENDBRANCH   7  10
TORSDOF 2
