REMARK  Name = ZINCqH0000007jIQ.0
REMARK                            x       y       z     vdW  Elec       q    Type
REMARK                         _______ _______ _______ _____ _____    ______ ____
ROOT
ATOM      1  N   LIG    1        1.160   1.913  -0.006  0.00  0.00    -0.660 N 
ATOM      2  H   LIG    1        1.071   2.751  -0.488  0.00  0.00    +0.410 HD
ATOM      3  C   LIG    1        0.085   1.365   0.594  0.00  0.00    +0.570 C 
ATOM      4  O   LIG    1        0.177   0.274   1.127  0.00  0.00    -0.520 OA
ENDROOT
BRANCH   3   5
ATOM      5  C   LIG    1       -1.192   2.076   0.599  0.00  0.00    -0.230 C 
ATOM      6  C   LIG    1       -2.277   1.524   1.198  0.00  0.00    +0.170 C 
ATOM      7  C   LIG    1       -3.541   2.274   1.156  0.00  0.00    -0.140 A 
ATOM      8  C   LIG    1       -4.601   1.962   2.005  0.00  0.00    +0.100 A 
ATOM      9  C   LIG    1       -5.770   2.694   1.932  0.00  0.00    -0.070 A 
ATOM     10  C   LIG    1       -5.890   3.732   1.021  0.00  0.00    +0.090 A 
ATOM     11  C   LIG    1       -4.845   4.049   0.173  0.00  0.00    +0.020 A 
ATOM     12 CL   LIG    1       -7.096   2.312   2.986  0.00  0.00    -0.060 Cl
ATOM     13  C   LIG    1       -3.666   3.327   0.232  0.00  0.00    +0.150 A 
ATOM     14  O   LIG    1       -2.623   3.613  -0.586  0.00  0.00    -0.300 OA
ATOM     15  C   LIG    1       -1.307   3.429  -0.054  0.00  0.00    +0.310 C 
ENDBRANCH   3   5
BRANCH   1  21
ATOM     16  C   LIG    1        3.573   2.030   0.143  0.00  0.00    +0.090 A 
ATOM     17  C   LIG    1        4.802   1.396   0.213  0.00  0.00    -0.030 A 
ATOM     18  C   LIG    1        4.872   0.016   0.206  0.00  0.00    +0.050 A 
ATOM     19  C   LIG    1        3.710  -0.740   0.129  0.00  0.00    +0.120 A 
ATOM     20  C   LIG    1        2.475  -0.110   0.064  0.00  0.00    +0.040 A 
ATOM     21  C   LIG    1        2.404   1.275   0.065  0.00  0.00    +0.130 A 
BRANCH  19  22
ATOM     22  N   LIG    1        3.783  -2.139   0.123  0.00  0.00    -0.670 N 
ATOM     23  H   LIG    1        3.154  -2.655  -0.404  0.00  0.00    +0.410 HD
ATOM     24  C   LIG    1        4.729  -2.767   0.849  0.00  0.00    +0.510 C 
ATOM     25  O   LIG    1        5.568  -2.122   1.441  0.00  0.00    -0.530 OA
ATOM     26  C   LIG    1        4.745  -4.272   0.924  0.00  0.00    +0.110 C 
ENDBRANCH  19  22
BRANCH  16  28
ATOM     27  C   LIG    1        4.743   4.098   0.232  0.00  0.00    +0.250 C 
ATOM     28  O   LIG    1        3.506   3.389   0.150  0.00  0.00    -0.320 OA
ENDBRANCH  16  28
ENDBRANCH   1  21
TORSDOF 4
