REMARK  Name = ZINCpk00000ebLIf.0
REMARK                            x       y       z     vdW  Elec       q    Type
REMARK                         _______ _______ _______ _____ _____    ______ ____
ROOT
ATOM      1  N   LIG    1       -4.008   0.048  -2.011  0.00  0.00    -0.730 N 
ATOM      2  H   LIG    1       -4.520   0.270  -1.218  0.00  0.00    +0.400 HD
ATOM      3  C   LIG    1       -2.747   0.505  -2.148  0.00  0.00    +0.710 C 
ATOM      4  N   LIG    1       -2.163   1.183  -1.141  0.00  0.00    -0.620 N 
ATOM      5  C   LIG    1       -0.754   1.592  -1.231  0.00  0.00    +0.300 C 
ATOM      6  C   LIG    1       -0.012   1.082   0.008  0.00  0.00    +0.030 C 
ATOM      7  C   LIG    1       -0.729   1.576   1.267  0.00  0.00    +0.070 C 
ATOM      8  C   LIG    1       -2.155   1.019   1.294  0.00  0.00    +0.020 C 
ATOM      9  C   LIG    1       -2.922   1.528   0.069  0.00  0.00    +0.250 C 
ATOM     10  O   LIG    1       -2.137   0.306  -3.181  0.00  0.00    -0.570 OA
ENDROOT
BRANCH   7  11
ATOM     11  C   LIG    1        0.018   1.105   2.488  0.00  0.00    -0.160 A 
ATOM     12  C   LIG    1        0.258  -0.169   2.835  0.00  0.00    +0.230 A 
ATOM     13  N   LIG    1        0.967  -0.209   4.005  0.00  0.00    -0.600 N 
ATOM     14  H   LIG    1        1.259  -1.018   4.452  0.00  0.00    +0.420 HD
ATOM     15  C   LIG    1        1.199   1.072   4.455  0.00  0.00    +0.090 A 
ATOM     16  C   LIG    1        1.851   1.592   5.567  0.00  0.00    -0.010 A 
ATOM     17  C   LIG    1        1.917   2.957   5.746  0.00  0.00    +0.020 A 
ATOM     18  C   LIG    1        1.339   3.820   4.825  0.00  0.00    -0.030 A 
ATOM     19  C   LIG    1        0.694   3.330   3.724  0.00  0.00    +0.050 A 
ATOM     20  C   LIG    1        0.615   1.951   3.524  0.00  0.00    -0.100 A 
ENDBRANCH   7  11
BRANCH   1  24
ATOM     21  O   LIG    1       -8.072  -1.677  -3.065  0.00  0.00    -0.480 OA
ATOM     22  C   LIG    1       -6.957  -1.227  -3.221  0.00  0.00    +0.530 C 
ATOM     23  C   LIG    1       -5.718  -1.675  -2.477  0.00  0.00    +0.110 C 
ATOM     24  C   LIG    1       -4.604  -0.783  -3.060  0.00  0.00    +0.280 C 
ATOM     25  C   LIG    1       -5.330   0.076  -4.072  0.00  0.00    +0.510 C 
ATOM     26  O   LIG    1       -4.818   0.928  -4.766  0.00  0.00    -0.450 OA
ATOM     27  N   LIG    1       -6.627  -0.254  -4.079  0.00  0.00    -0.680 N 
ATOM     28  H   LIG    1       -7.275   0.177  -4.658  0.00  0.00    +0.420 HD
ENDBRANCH   1  24
TORSDOF 2
