REMARK  Name = ZINCpk00000eaFkv.0
REMARK                            x       y       z     vdW  Elec       q    Type
REMARK                         _______ _______ _______ _____ _____    ______ ____
ROOT
ATOM      1  C   LIG    1        1.039   1.451  -0.104  0.00  0.00    +0.520 C 
ATOM      2  N   LIG    1       -0.129   0.778  -0.107  0.00  0.00    -0.660 N 
ATOM      3  H   LIG    1       -0.130  -0.192  -0.084  0.00  0.00    +0.410 HD
ATOM      4  O   LIG    1        1.043   2.659  -0.211  0.00  0.00    -0.490 OA
ENDROOT
BRANCH   2   5
ATOM      5  C   LIG    1       -1.336   1.476  -0.149  0.00  0.00    +0.160 A 
ATOM      6  C   LIG    1       -1.435   2.652  -0.861  0.00  0.00    +0.030 A 
ATOM      7  C   LIG    1       -2.637   3.353  -0.908  0.00  0.00    +0.060 A 
ATOM      8  C   LIG    1       -3.743   2.901  -0.257  0.00  0.00    +0.040 A 
ATOM      9  C   LIG    1       -3.686   1.706   0.481  0.00  0.00    +0.140 A 
ATOM     10  N   LIG    1       -4.760   1.244   1.129  0.00  0.00    -0.470 NA
ATOM     11  C   LIG    1       -4.714   0.131   1.820  0.00  0.00    +0.290 A 
ATOM     12  C   LIG    1       -3.548  -0.624   1.914  0.00  0.00    -0.030 A 
ATOM     13  C   LIG    1       -2.413  -0.209   1.275  0.00  0.00    +0.070 A 
ATOM     14  C   LIG    1       -2.469   0.982   0.531  0.00  0.00    -0.110 A 
ENDBRANCH   2   5
BRANCH   1  16
ATOM     15  C   LIG    1        2.544  -0.193  -1.190  0.00  0.00    +0.070 C 
ATOM     16  C   LIG    1        2.340   0.703   0.034  0.00  0.00    +0.190 C 
BRANCH  16  17
ATOM     17  O   LIG    1        3.436   1.650   0.128  0.00  0.00    -0.330 OA
BRANCH  17  18
ATOM     18  C   LIG    1        4.509   1.271   0.839  0.00  0.00    +0.470 C 
ATOM     19  O   LIG    1        4.532   0.184   1.365  0.00  0.00    -0.480 OA
BRANCH  18  20
ATOM     20  C   LIG    1        5.686   2.202   0.982  0.00  0.00    +0.150 C 
ATOM     21  C   LIG    1        5.443   3.157   2.154  0.00  0.00    +0.260 C 
ATOM     22  O   LIG    1        6.594   3.987   2.332  0.00  0.00    -0.370 OA
ATOM     23  C   LIG    1        7.798   3.257   2.584  0.00  0.00    +0.240 C 
ATOM     24  C   LIG    1        8.064   2.304   1.416  0.00  0.00    +0.170 C 
ATOM     25  N   LIG    1        6.903   1.419   1.238  0.00  0.00    -0.520 NA
ATOM     26  C   LIG    1        7.141   0.449   0.161  0.00  0.00    +0.200 C 
ENDBRANCH  18  20
ENDBRANCH  17  18
ENDBRANCH  16  17
ENDBRANCH   1  16
TORSDOF 5
