REMARK  Name = ZINCvU0000000Ip3.0
REMARK                            x       y       z     vdW  Elec       q    Type
REMARK                         _______ _______ _______ _____ _____    ______ ____
ROOT
ATOM      1  C   LIG    1        0.022   1.895   5.372  0.00  0.00    +0.410 A 
ATOM      2  C   LIG    1        1.007   2.827   5.784  0.00  0.00    -0.180 A 
ATOM      3  C   LIG    1        1.099   4.026   5.077  0.00  0.00    +0.110 A 
ATOM      4  S   LIG    1        2.380   5.013   5.759  0.00  0.00    +0.180 S 
ATOM      5  C   LIG    1        2.767   3.808   6.975  0.00  0.00    -0.180 A 
ATOM      6  C   LIG    1        3.860   3.965   8.018  0.00  0.00    +0.120 C 
ATOM      7  C   LIG    1        3.630   2.941   9.132  0.00  0.00    +0.030 C 
ATOM      8  C   LIG    1        3.430   1.559   8.503  0.00  0.00    +0.020 C 
ATOM      9  C   LIG    1        2.078   1.527   7.787  0.00  0.00    +0.100 C 
ATOM     10  N   LIG    1        0.264   4.246   4.054  0.00  0.00    -0.490 NA
ATOM     11  C   LIG    1       -0.634   3.351   3.711  0.00  0.00    +0.380 A 
ATOM     12  C   LIG    1        1.979   2.737   6.867  0.00  0.00    -0.060 A 
ATOM     13  N   LIG    1       -0.762   2.203   4.352  0.00  0.00    -0.560 NA
ENDROOT
BRANCH   1  14
ATOM     14  O   LIG    1       -0.118   0.712   6.015  0.00  0.00    -0.230 OA
BRANCH  14  18
ATOM     15  C   LIG    1       -3.229  -1.751   4.887  0.00  0.00    -0.060 A 
ATOM     16  C   LIG    1       -2.095  -1.667   4.100  0.00  0.00    +0.030 A 
ATOM     17  C   LIG    1       -1.052  -0.844   4.476  0.00  0.00    +0.020 A 
ATOM     18  C   LIG    1       -1.143  -0.100   5.644  0.00  0.00    +0.080 A 
ATOM     19  C   LIG    1       -2.280  -0.190   6.434  0.00  0.00    +0.020 A 
ATOM     20  C   LIG    1       -3.322  -1.011   6.051  0.00  0.00    +0.030 A 
BRANCH  15  22
ATOM     21  C   LIG    1       -3.867  -4.095   4.389  0.00  0.00    +0.040 C 
ATOM     22  C   LIG    1       -4.365  -2.651   4.475  0.00  0.00    -0.030 C 
ATOM     23  C   LIG    1       -4.895  -2.212   3.109  0.00  0.00    +0.040 C 
ATOM     24  C   LIG    1       -5.489  -2.561   5.510  0.00  0.00    +0.030 C 
ENDBRANCH  15  22
ENDBRANCH  14  18
ENDBRANCH   1  14
BRANCH  11  25
ATOM     25  C   LIG    1       -1.552   3.646   2.553  0.00  0.00    +0.310 C 
BRANCH  25  26
ATOM     26  N   LIG    1       -0.941   3.163   1.308  0.00  0.00    -0.530 NA
ATOM     27  C   LIG    1       -0.843   1.696   1.305  0.00  0.00    +0.150 C 
ATOM     28  C   LIG    1       -0.149   1.239   0.019  0.00  0.00    +0.220 C 
ATOM     29  O   LIG    1       -0.871   1.737  -1.111  0.00  0.00    -0.380 OA
ATOM     30  C   LIG    1       -0.984   3.162  -1.139  0.00  0.00    +0.220 C 
ATOM     31  C   LIG    1       -1.688   3.639   0.135  0.00  0.00    +0.160 C 
ENDBRANCH  25  26
ENDBRANCH  11  25
TORSDOF 5
