REMARK  Name = ZINCkj000005kskn.0
REMARK                            x       y       z     vdW  Elec       q    Type
REMARK                         _______ _______ _______ _____ _____    ______ ____
ROOT
ATOM      1  N   LIG    1       -0.460   1.936  -1.650  0.00  0.00    -1.110 NA
ATOM      2  H   LIG    1       -1.339   2.340  -1.572  0.00  0.00    +0.420 HD
ENDROOT
BRANCH   1   3
ATOM      3  S   LIG    1        0.170   1.607  -3.146  0.00  0.00    +2.690 S 
ATOM      4  O   LIG    1        1.493   2.126  -3.147  0.00  0.00    -0.930 OA
ATOM      5  O   LIG    1       -0.818   1.995  -4.091  0.00  0.00    -0.940 OA
BRANCH   3  13
ATOM      6  C   LIG    1       -2.086  -0.240  -3.951  0.00  0.00    +0.110 C 
ATOM      7  C   LIG    1       -0.768  -0.906  -3.651  0.00  0.00    +0.030 A 
ATOM      8  C   LIG    1       -0.647  -2.279  -3.756  0.00  0.00    +0.000 A 
ATOM      9  C   LIG    1        0.560  -2.892  -3.475  0.00  0.00    +0.100 A 
ATOM     10  C   LIG    1        1.649  -2.131  -3.094  0.00  0.00    +0.010 A 
ATOM     11  C   LIG    1        1.530  -0.756  -2.993  0.00  0.00    +0.050 A 
ATOM     12 CL   LIG    1        2.897   0.201  -2.514  0.00  0.00    -0.020 Cl
ATOM     13  C   LIG    1        0.322  -0.144  -3.274  0.00  0.00    -0.690 A 
ENDBRANCH   3  13
ENDBRANCH   1   3
BRANCH   1  14
ATOM     14  C   LIG    1        0.309   1.617  -0.445  0.00  0.00    +0.310 C 
BRANCH  14  15
ATOM     15  C   LIG    1       -0.302   2.340   0.757  0.00  0.00    +0.160 C 
ATOM     16  C   LIG    1        0.500   2.038   2.001  0.00  0.00    +0.260 C 
ATOM     17  N   LIG    1       -0.353   1.970   3.198  0.00  0.00    -0.510 N 
ATOM     18  C   LIG    1       -1.388   3.026   3.220  0.00  0.00    +0.260 C 
ATOM     19  C   LIG    1       -0.875   4.377   2.783  0.00  0.00    +0.030 C 
ATOM     20  C   LIG    1       -1.119   4.538   1.262  0.00  0.00    +0.240 C 
ATOM     21  H   LIG    1       -0.806   1.069   3.222  0.00  0.00    +0.430 HD
ATOM     22  H   LIG    1        0.227   2.065   4.018  0.00  0.00    +0.430 HD
ATOM     23  O   LIG    1       -0.253   3.760   0.550  0.00  0.00    -0.350 OA
ENDBRANCH  14  15
ENDBRANCH   1  14
TORSDOF 4
