REMARK  Name = ZINCvU0000000By2.0
REMARK                            x       y       z     vdW  Elec       q    Type
REMARK                         _______ _______ _______ _____ _____    ______ ____
ROOT
ATOM      1  N   LIG    1        2.361   5.300  -0.097  0.00  0.00    -0.540 N 
ATOM      2  C   LIG    1        3.498   6.032  -0.148  0.00  0.00    +0.550 A 
ATOM      3  C   LIG    1        4.775   5.310  -0.051  0.00  0.00    -0.200 A 
ATOM      4  C   LIG    1        5.999   5.974  -0.093  0.00  0.00    +0.100 A 
ATOM      5  C   LIG    1        7.168   5.251   0.003  0.00  0.00    +0.010 A 
ATOM      6  C   LIG    1        7.135   3.869   0.141  0.00  0.00    +0.070 A 
ATOM      7  C   LIG    1        5.937   3.193   0.184  0.00  0.00    +0.030 A 
ATOM      8  C   LIG    1        4.737   3.904   0.089  0.00  0.00    +0.150 A 
ATOM      9  N   LIG    1        3.543   3.279   0.134  0.00  0.00    -0.500 NA
ATOM     10  O   LIG    1        3.465   7.243  -0.270  0.00  0.00    -0.500 OA
ATOM     11  C   LIG    1        2.418   3.940   0.040  0.00  0.00    +0.440 A 
ENDROOT
BRANCH  11  12
ATOM     12  C   LIG    1        1.150   3.183   0.092  0.00  0.00    -0.060 A 
ATOM     13  C   LIG    1        0.872   2.355   1.181  0.00  0.00    +0.090 A 
ATOM     14  C   LIG    1       -0.313   1.651   1.223  0.00  0.00    +0.030 A 
ATOM     15  C   LIG    1       -1.224   1.759   0.185  0.00  0.00    -0.010 A 
ATOM     16  C   LIG    1       -0.956   2.584  -0.895  0.00  0.00    +0.030 A 
ATOM     17 CL   LIG    1       -2.710   0.864   0.242  0.00  0.00    -0.060 Cl
ATOM     18  C   LIG    1        0.226   3.293  -0.948  0.00  0.00    +0.060 A 
ENDBRANCH  11  12
BRANCH   1  19
ATOM     19  C   LIG    1        1.060   5.968  -0.190  0.00  0.00    +0.290 C 
BRANCH  19  20
ATOM     20  C   LIG    1        0.614   6.412   1.205  0.00  0.00    +0.030 C 
BRANCH  20  21
ATOM     21  C   LIG    1       -0.744   7.109   1.108  0.00  0.00    +0.210 C 
BRANCH  21  22
ATOM     22  O   LIG    1       -1.161   7.524   2.411  0.00  0.00    -0.300 OA
BRANCH  22  28
ATOM     23  C   LIG    1       -2.827   8.591   3.740  0.00  0.00    +0.100 A 
ATOM     24  C   LIG    1       -4.043   9.249   3.827  0.00  0.00    -0.040 A 
ATOM     25  C   LIG    1       -4.792   9.470   2.686  0.00  0.00    +0.010 A 
ATOM     26  C   LIG    1       -4.328   9.041   1.457  0.00  0.00    +0.010 A 
ATOM     27  C   LIG    1       -3.112   8.389   1.363  0.00  0.00    -0.040 A 
ATOM     28  C   LIG    1       -2.357   8.165   2.502  0.00  0.00    +0.100 A 
BRANCH  23  29
ATOM     29  O   LIG    1       -2.091   8.368   4.862  0.00  0.00    -0.310 OA
BRANCH  29  31
ATOM     30  C   LIG    1       -1.675   8.494   7.240  0.00  0.00    +0.070 C 
ATOM     31  C   LIG    1       -2.636   8.833   6.099  0.00  0.00    +0.170 C 
ENDBRANCH  29  31
ENDBRANCH  23  29
ENDBRANCH  22  28
ENDBRANCH  21  22
ENDBRANCH  20  21
ENDBRANCH  19  20
ENDBRANCH   1  19
TORSDOF 8
