REMARK  Name = ZINCqH0000002aGP.0
REMARK                            x       y       z     vdW  Elec       q    Type
REMARK                         _______ _______ _______ _____ _____    ______ ____
ROOT
ATOM      1  C   LIG    1       -0.479   1.165  -0.167  0.00  0.00    +0.560 C 
ATOM      2  N   LIG    1        0.342   2.059  -0.752  0.00  0.00    -0.590 N 
ATOM      3  C   LIG    1       -0.182   3.352  -1.199  0.00  0.00    +0.280 C 
ATOM      4  O   LIG    1       -0.068   0.058   0.119  0.00  0.00    -0.530 OA
ENDROOT
BRANCH   1   9
ATOM      5  C   LIG    1       -4.168   0.883   0.507  0.00  0.00    +0.140 A 
ATOM      6  C   LIG    1       -4.514   2.220   0.663  0.00  0.00    +0.010 A 
ATOM      7  C   LIG    1       -3.552   3.206   0.549  0.00  0.00    +0.020 A 
ATOM      8  C   LIG    1       -2.240   2.869   0.286  0.00  0.00    +0.030 A 
ATOM      9  C   LIG    1       -1.883   1.529   0.121  0.00  0.00    -0.110 A 
ATOM     10  C   LIG    1       -2.854   0.534   0.236  0.00  0.00    +0.070 A 
BRANCH   5  12
ATOM     11  C   LIG    1       -4.826  -1.316   1.133  0.00  0.00    +0.510 C 
ATOM     12  N   LIG    1       -5.147  -0.111   0.623  0.00  0.00    -0.680 N 
ATOM     13  H   LIG    1       -6.056   0.068   0.336  0.00  0.00    +0.410 HD
ATOM     14  O   LIG    1       -3.711  -1.513   1.569  0.00  0.00    -0.510 OA
BRANCH  11  16
ATOM     15  C   LIG    1       -5.235  -3.673   1.786  0.00  0.00    +0.040 C 
ATOM     16  C   LIG    1       -5.851  -2.420   1.162  0.00  0.00    +0.060 C 
ENDBRANCH  11  16
ENDBRANCH   5  12
ENDBRANCH   1   9
BRANCH   2  17
ATOM     17  C   LIG    1        1.759   1.739  -0.941  0.00  0.00    +0.240 C 
ATOM     18  C   LIG    1        2.617   2.763  -0.196  0.00  0.00    +0.030 C 
BRANCH  17  19
ATOM     19  C   LIG    1        2.096   1.778  -2.433  0.00  0.00    +0.080 C 
BRANCH  19  20
ATOM     20  C   LIG    1        1.342   0.687  -3.148  0.00  0.00    -0.110 A 
ATOM     21  C   LIG    1        1.948  -0.531  -3.385  0.00  0.00    +0.050 A 
ATOM     22  C   LIG    1        1.255  -1.534  -4.037  0.00  0.00    -0.030 A 
ATOM     23  C   LIG    1       -0.043  -1.318  -4.462  0.00  0.00    +0.040 A 
ATOM     24  C   LIG    1       -0.652  -0.099  -4.231  0.00  0.00    -0.090 A 
ATOM     25  C   LIG    1        0.040   0.907  -3.573  0.00  0.00    +0.140 A 
BRANCH  25  26
ATOM     26  O   LIG    1       -0.557   2.107  -3.345  0.00  0.00    -0.310 OA
ATOM     27  C   LIG    1       -1.899   2.262  -3.810  0.00  0.00    +0.220 C 
ENDBRANCH  25  26
ENDBRANCH  19  20
ENDBRANCH  17  19
ENDBRANCH   2  17
TORSDOF 7
