REMARK  Name = ZINCpe000000Wivu.0
REMARK                            x       y       z     vdW  Elec       q    Type
REMARK                         _______ _______ _______ _____ _____    ______ ____
ROOT
ATOM      1  C   LIG    1       -7.658   1.814   1.284  0.00  0.00    +0.110 A 
ATOM      2  C   LIG    1       -6.578   2.682   1.277  0.00  0.00    -0.010 A 
ATOM      3  C   LIG    1       -6.051   3.121   0.076  0.00  0.00    -0.110 A 
ATOM      4  C   LIG    1       -6.603   2.700  -1.119  0.00  0.00    +0.040 A 
ATOM      5  C   LIG    1       -7.678   1.830  -1.119  0.00  0.00    -0.040 A 
ATOM      6  C   LIG    1       -8.210   1.386   0.080  0.00  0.00    +0.110 A 
ENDROOT
BRANCH   1   8
ATOM      7  C   LIG    1       -7.558   1.861   3.659  0.00  0.00    +0.240 C 
ATOM      8  O   LIG    1       -8.176   1.381   2.464  0.00  0.00    -0.300 OA
ENDBRANCH   1   8
BRANCH   3   9
ATOM      9  C   LIG    1       -4.877   4.065   0.070  0.00  0.00    +0.330 C 
BRANCH   9  10
ATOM     10  N   LIG    1       -3.631   3.294   0.054  0.00  0.00    -0.730 N 
ATOM     11  H   LIG    1       -3.660   2.325   0.049  0.00  0.00    +0.400 HD
ATOM     12  C   LIG    1       -2.444   3.932   0.047  0.00  0.00    +0.570 C 
ATOM     13  O   LIG    1       -2.407   5.148   0.053  0.00  0.00    -0.510 OA
BRANCH  12  14
ATOM     14  C   LIG    1       -1.189   3.156   0.030  0.00  0.00    -0.210 A 
ATOM     15  C   LIG    1       -1.217   1.757   0.017  0.00  0.00    +0.130 A 
ATOM     16  C   LIG    1       -0.013   1.076   0.008  0.00  0.00    -0.070 A 
ATOM     17  C   LIG    1        1.172   1.789   0.001  0.00  0.00    +0.340 A 
ATOM     18  N   LIG    1        1.176   3.108   0.008  0.00  0.00    -0.540 NA
ATOM     19  C   LIG    1        0.054   3.808   0.022  0.00  0.00    +0.370 A 
BRANCH  19  20
ATOM     20  O   LIG    1        0.104   5.161   0.029  0.00  0.00    -0.270 OA
ATOM     21  C   LIG    1        1.401   5.762   0.020  0.00  0.00    +0.250 C 
ENDBRANCH  19  20
ENDBRANCH  12  14
ENDBRANCH   9  10
ENDBRANCH   3   9
BRANCH   6  22
ATOM     22  O   LIG    1       -9.271   0.535   0.082  0.00  0.00    -0.280 OA
BRANCH  22  23
ATOM     23  C   LIG    1       -9.786   0.138  -1.191  0.00  0.00    +0.240 C 
BRANCH  23  24
ATOM     24  C   LIG    1      -10.950  -0.798  -0.992  0.00  0.00    +0.520 C 
ATOM     25  O   LIG    1      -11.303  -1.097   0.130  0.00  0.00    -0.510 OA
ATOM     26  N   LIG    1      -11.598  -1.304  -2.059  0.00  0.00    -0.850 N 
ATOM     27  H   LIG    1      -12.347  -1.907  -1.931  0.00  0.00    +0.410 HD
ATOM     28  H   LIG    1      -11.316  -1.066  -2.956  0.00  0.00    +0.400 HD
ENDBRANCH  23  24
ENDBRANCH  22  23
ENDBRANCH   6  22
TORSDOF 8
