REMARK  Name = ZINCpk00000y6wh7.0
REMARK                            x       y       z     vdW  Elec       q    Type
REMARK                         _______ _______ _______ _____ _____    ______ ____
ROOT
ATOM      1  C   LIG    1       -1.067   6.158  -0.900  0.00  0.00    +0.270 C 
ATOM      2  C   LIG    1       -0.038   5.692   0.136  0.00  0.00    +0.310 C 
ATOM      3  N   LIG    1        0.002   4.222   0.126  0.00  0.00    -0.610 N 
ATOM      4  C   LIG    1       -1.269   3.490   0.239  0.00  0.00    +0.290 C 
ATOM      5  C   LIG    1       -2.248   4.043  -0.795  0.00  0.00    +0.190 C 
ATOM      6  C   LIG    1        1.172   3.562   0.009  0.00  0.00    +0.570 C 
ATOM      7  O   LIG    1        1.179   2.352  -0.104  0.00  0.00    -0.510 OA
ATOM      8  N   LIG    1       -2.353   5.500  -0.638  0.00  0.00    -0.530 NA
ATOM      9  C   LIG    1       -3.410   6.047  -1.500  0.00  0.00    +0.200 C 
ENDROOT
BRANCH   1  14
ATOM     10  C   LIG    1       -0.868  11.088  -1.754  0.00  0.00    +0.200 C 
ATOM     11  C   LIG    1       -1.160   9.738  -1.152  0.00  0.00    +0.170 A 
ATOM     12  N   LIG    1       -1.842   9.510  -0.070  0.00  0.00    -0.380 NA
ATOM     13  O   LIG    1       -1.898   8.318   0.148  0.00  0.00    +0.100 OA
ATOM     14  C   LIG    1       -1.236   7.652  -0.803  0.00  0.00    +0.190 A 
ATOM     15  N   LIG    1       -0.759   8.548  -1.633  0.00  0.00    -0.470 NA
ENDBRANCH   1  14
BRANCH   6  16
ATOM     16  C   LIG    1        2.444   4.309   0.021  0.00  0.00    -0.160 A 
ATOM     17  C   LIG    1        2.732   5.191   1.065  0.00  0.00    +0.090 A 
ATOM     18  C   LIG    1        3.922   5.885   1.070  0.00  0.00    -0.020 A 
ATOM     19  C   LIG    1        4.836   5.713   0.043  0.00  0.00    +0.080 A 
ATOM     20  C   LIG    1        4.564   4.845  -0.996  0.00  0.00    -0.070 A 
ATOM     21  C   LIG    1        3.371   4.138  -1.016  0.00  0.00    +0.180 A 
BRANCH  21  22
ATOM     22  O   LIG    1        3.103   3.285  -2.036  0.00  0.00    -0.300 OA
BRANCH  22  23
ATOM     23  C   LIG    1        4.095   3.163  -3.058  0.00  0.00    +0.380 C 
BRANCH  23  24
ATOM     24  C   LIG    1        3.636   2.201  -4.074  0.00  0.00    +0.210 C 
ATOM     25  N   LIG    1        3.282   1.460  -4.859  0.00  0.00    -0.390 NA
ENDBRANCH  23  24
ENDBRANCH  22  23
ENDBRANCH  21  22
ENDBRANCH   6  16
TORSDOF 5
