REMARK  Name = ZINCpe00000VVGhn.0
REMARK                            x       y       z     vdW  Elec       q    Type
REMARK                         _______ _______ _______ _____ _____    ______ ____
ROOT
ATOM      1  C   LIG    1        5.638  -0.220   0.322  0.00  0.00    +0.140 C 
ATOM      2  C   LIG    1        5.693  -1.109  -0.920  0.00  0.00    +0.130 C 
ATOM      3  C   LIG    1        5.618  -0.260  -2.164  0.00  0.00    -0.070 A 
ATOM      4  C   LIG    1        6.001  -0.822  -3.372  0.00  0.00    +0.000 A 
ATOM      5  C   LIG    1        5.939  -0.081  -4.536  0.00  0.00    +0.010 A 
ATOM      6  C   LIG    1        5.494   1.226  -4.496  0.00  0.00    +0.010 A 
ATOM      7  C   LIG    1        5.114   1.787  -3.293  0.00  0.00    +0.010 A 
ATOM      8  C   LIG    1        5.177   1.046  -2.123  0.00  0.00    -0.080 A 
ATOM      9  C   LIG    1        4.756   1.702  -0.834  0.00  0.00    +0.240 C 
ATOM     10  N   LIG    1        4.490   0.691   0.194  0.00  0.00    -0.500 NA
ENDROOT
BRANCH   1  14
ATOM     11  N   LIG    1        6.554  -1.522   2.216  0.00  0.00    -0.850 N 
ATOM     12  H   LIG    1        6.446  -2.073   3.006  0.00  0.00    +0.410 HD
ATOM     13  H   LIG    1        7.443  -1.291   1.904  0.00  0.00    +0.400 HD
ATOM     14  C   LIG    1        5.470  -1.077   1.551  0.00  0.00    +0.520 C 
ATOM     15  O   LIG    1        4.358  -1.366   1.940  0.00  0.00    -0.520 OA
ENDBRANCH   1  14
BRANCH  10  16
ATOM     16  C   LIG    1        4.171   1.322   1.482  0.00  0.00    +0.470 C 
BRANCH  16  17
ATOM     17  N   LIG    1        4.565   2.733   1.446  0.00  0.00    -0.610 N 
ATOM     18  C   LIG    1        3.735   3.719   1.038  0.00  0.00    +0.540 C 
ATOM     19  C   LIG    1        4.579   4.956   0.919  0.00  0.00    -0.010 C 
ATOM     20  C   LIG    1        3.871   6.262   1.073  0.00  0.00    +0.100 C 
ATOM     21  C   LIG    1        3.725   6.702   2.495  0.00  0.00    -0.030 C 
ATOM     22  C   LIG    1        4.341   6.137   3.480  0.00  0.00    -0.050 C 
ATOM     23  C   LIG    1        5.238   4.965   3.356  0.00  0.00    +0.080 C 
ATOM     24  C   LIG    1        5.712   4.697   1.925  0.00  0.00    +0.040 C 
ATOM     25  O   LIG    1        2.548   3.625   0.815  0.00  0.00    -0.450 OA
ATOM     26  C   LIG    1        5.786   3.165   1.816  0.00  0.00    +0.520 C 
ATOM     27  O   LIG    1        6.761   2.475   2.023  0.00  0.00    -0.470 OA
ENDBRANCH  16  17
ENDBRANCH  10  16
TORSDOF 3
