REMARK  Name = ZINCqH0000007swj.1
REMARK                            x       y       z     vdW  Elec       q    Type
REMARK                         _______ _______ _______ _____ _____    ______ ____
ROOT
ATOM      1  C   LIG    1       -1.734   5.000   0.044  0.00  0.00    +0.220 C 
ENDROOT
BRANCH   1   5
ATOM      2  C   LIG    1        2.049   6.981   0.225  0.00  0.00    +0.130 A 
ATOM      3  C   LIG    1        1.434   6.766  -1.000  0.00  0.00    -0.020 A 
ATOM      4  C   LIG    1        0.212   6.125  -1.056  0.00  0.00    +0.070 A 
ATOM      5  C   LIG    1       -0.400   5.698   0.108  0.00  0.00    -0.160 A 
ATOM      6  C   LIG    1        0.208   5.916   1.331  0.00  0.00    +0.060 A 
ATOM      7  C   LIG    1        1.433   6.551   1.391  0.00  0.00    -0.080 A 
BRANCH   2   9
ATOM      8  C   LIG    1        3.825   7.798   1.577  0.00  0.00    +0.250 C 
ATOM      9  O   LIG    1        3.251   7.611   0.282  0.00  0.00    -0.320 OA
ENDBRANCH   2   9
ENDBRANCH   1   5
BRANCH   1  10
ATOM     10  N   LIG    1       -1.566   3.589   0.418  0.00  0.00    -0.520 NA
ATOM     11  C   LIG    1       -0.745   2.877  -0.569  0.00  0.00    +0.160 C 
ATOM     12  C   LIG    1       -0.712   1.386  -0.228  0.00  0.00    +0.020 C 
ATOM     13  C   LIG    1       -0.130   1.201   1.177  0.00  0.00    +0.000 C 
ATOM     14  C   LIG    1       -0.974   1.992   2.180  0.00  0.00    +0.020 C 
ATOM     15  C   LIG    1       -1.000   3.466   1.768  0.00  0.00    +0.170 C 
ENDBRANCH   1  10
BRANCH   1  16
ATOM     16  C   LIG    1       -2.708   5.672   1.014  0.00  0.00    +0.280 C 
BRANCH  16  17
ATOM     17  N   LIG    1       -3.966   4.921   1.041  0.00  0.00    -0.710 N 
ATOM     18  H   LIG    1       -4.070   4.129   0.491  0.00  0.00    +0.410 HD
ATOM     19  C   LIG    1       -4.978   5.331   1.830  0.00  0.00    +0.560 C 
ATOM     20  O   LIG    1       -4.848   6.324   2.520  0.00  0.00    -0.530 OA
BRANCH  19  21
ATOM     21  C   LIG    1       -6.248   4.574   1.857  0.00  0.00    -0.110 A 
ATOM     22  C   LIG    1       -6.402   3.437   1.063  0.00  0.00    +0.040 A 
ATOM     23  C   LIG    1       -7.587   2.730   1.096  0.00  0.00    +0.040 A 
ATOM     24  C   LIG    1       -8.626   3.152   1.906  0.00  0.00    +0.010 A 
ATOM     25  C   LIG    1       -8.482   4.284   2.694  0.00  0.00    +0.090 A 
ATOM     26  F   LIG    1       -9.500   4.690   3.483  0.00  0.00    -0.130 F 
ATOM     27  C   LIG    1       -7.298   4.996   2.674  0.00  0.00    +0.050 A 
ENDBRANCH  19  21
ENDBRANCH  16  17
ENDBRANCH   1  16
TORSDOF 6
