REMARK  Name = ZINCtV00000L6jHe.0
REMARK                            x       y       z     vdW  Elec       q    Type
REMARK                         _______ _______ _______ _____ _____    ______ ____
ROOT
ATOM      1  O   LIG    1        2.115   5.448  -1.122  0.00  0.00    -0.490 OA
ATOM      2  C   LIG    1        3.019   4.720  -0.769  0.00  0.00    +0.520 C 
ATOM      3  N   LIG    1        2.742   3.537  -0.187  0.00  0.00    -0.660 N 
ATOM      4  H   LIG    1        3.463   2.982   0.150  0.00  0.00    +0.420 HD
ENDROOT
BRANCH   3   5
ATOM      5  C   LIG    1        1.413   3.107  -0.069  0.00  0.00    +0.200 A 
ATOM      6  C   LIG    1        0.386   4.036  -0.012  0.00  0.00    +0.020 A 
ATOM      7  C   LIG    1       -0.925   3.610   0.105  0.00  0.00    +0.060 A 
ATOM      8  C   LIG    1       -1.216   2.259   0.159  0.00  0.00    -0.010 A 
ATOM      9  C   LIG    1       -0.197   1.326   0.109  0.00  0.00    +0.100 A 
ATOM     10  C   LIG    1        1.121   1.744  -0.008  0.00  0.00    -0.180 A 
BRANCH  10  11
ATOM     11  S   LIG    1        2.422   0.557  -0.079  0.00  0.00    +0.010 S 
BRANCH  11  12
ATOM     12  C   LIG    1        2.865   0.556  -1.784  0.00  0.00    -0.100 A 
ATOM     13  C   LIG    1        2.122   1.295  -2.697  0.00  0.00    +0.020 A 
ATOM     14  C   LIG    1        2.474   1.296  -4.032  0.00  0.00    +0.050 A 
ATOM     15  C   LIG    1        3.561   0.554  -4.463  0.00  0.00    -0.040 A 
ATOM     16  C   LIG    1        4.300  -0.186  -3.557  0.00  0.00    +0.050 A 
ATOM     17 CL   LIG    1        3.997   0.553  -6.143  0.00  0.00    -0.060 Cl
ATOM     18  C   LIG    1        3.955  -0.188  -2.220  0.00  0.00    +0.050 A 
ENDBRANCH  11  12
ENDBRANCH  10  11
ENDBRANCH   3   5
BRANCH   2  19
ATOM     19  C   LIG    1        4.451   5.139  -0.981  0.00  0.00    +0.270 C 
BRANCH  19  20
ATOM     20  O   LIG    1        4.484   6.442  -1.621  0.00  0.00    -0.330 OA
BRANCH  20  21
ATOM     21  C   LIG    1        5.698   6.964  -1.883  0.00  0.00    +0.520 C 
ATOM     22  O   LIG    1        6.702   6.347  -1.585  0.00  0.00    -0.490 OA
BRANCH  21  23
ATOM     23  C   LIG    1        5.809   8.286  -2.532  0.00  0.00    -0.110 A 
ATOM     24  C   LIG    1        7.066   8.829  -2.804  0.00  0.00    +0.120 A 
ATOM     25  C   LIG    1        7.164  10.064  -3.411  0.00  0.00    +0.050 A 
ATOM     26  C   LIG    1        6.019  10.765  -3.750  0.00  0.00    +0.000 A 
ATOM     27  C   LIG    1        4.768  10.232  -3.482  0.00  0.00    -0.050 A 
ATOM     28 CL   LIG    1        3.338  11.118  -3.910  0.00  0.00    -0.030 Cl
ATOM     29 CL   LIG    1        6.151  12.319  -4.514  0.00  0.00    -0.030 Cl
ATOM     30  C   LIG    1        4.657   8.995  -2.881  0.00  0.00    +0.120 A 
ENDBRANCH  21  23
ENDBRANCH  20  21
ENDBRANCH  19  20
ENDBRANCH   2  19
TORSDOF 7
