REMARK  Name = ZINCrH000004td8e.0
REMARK                            x       y       z     vdW  Elec       q    Type
REMARK                         _______ _______ _______ _____ _____    ______ ____
ROOT
ATOM      1  C   LIG    1        5.766   2.446  -0.041  0.00  0.00    +0.230 A 
ATOM      2  N   LIG    1        4.897   1.455  -0.032  0.00  0.00    -0.450 NA
ATOM      3  C   LIG    1        3.681   2.041  -0.023  0.00  0.00    +0.230 A 
ATOM      4  N   LIG    1        3.872   3.335  -0.017  0.00  0.00    -0.370 NA
ATOM      5  O   LIG    1        5.059   3.586  -0.028  0.00  0.00    +0.100 OA
ENDROOT
BRANCH   1   8
ATOM      6  C   LIG    1        9.432   3.301  -0.074  0.00  0.00    +0.310 A 
ATOM      7  C   LIG    1        8.054   3.461  -0.059  0.00  0.00    +0.020 A 
ATOM      8  C   LIG    1        7.242   2.325  -0.057  0.00  0.00    +0.050 A 
ATOM      9  C   LIG    1        7.859   1.069  -0.064  0.00  0.00    +0.020 A 
ATOM     10  C   LIG    1        9.237   0.998  -0.084  0.00  0.00    +0.330 A 
ATOM     11  N   LIG    1        9.973   2.093  -0.085  0.00  0.00    -0.510 NA
BRANCH   6  12
ATOM     12  O   LIG    1       10.235   4.395  -0.076  0.00  0.00    -0.310 OA
BRANCH  12  14
ATOM     13  F   LIG    1       12.011   3.433   1.044  0.00  0.00    -0.190 F 
ATOM     14  C   LIG    1       11.645   4.165  -0.091  0.00  0.00    +0.610 C 
ATOM     15  F   LIG    1       11.988   3.445  -1.240  0.00  0.00    -0.190 F 
ENDBRANCH  12  14
ENDBRANCH   6  12
ENDBRANCH   1   8
BRANCH   3  16
ATOM     16  C   LIG    1        2.371   1.345  -0.013  0.00  0.00    -0.120 A 
ATOM     17  C   LIG    1        1.179   2.078   0.002  0.00  0.00    +0.130 A 
ATOM     18  C   LIG    1       -0.017   1.388   0.010  0.00  0.00    -0.040 A 
ATOM     19  C   LIG    1        0.002  -0.004   0.002  0.00  0.00    +0.340 A 
ATOM     20  N   LIG    1        1.149  -0.668  -0.013  0.00  0.00    -0.520 NA
ATOM     21  C   LIG    1        2.310  -0.046  -0.020  0.00  0.00    +0.350 A 
BRANCH  19  22
ATOM     22  N   LIG    1       -1.196  -0.706   0.009  0.00  0.00    -0.470 N 
ATOM     23  C   LIG    1       -2.029  -0.312   1.153  0.00  0.00    +0.200 C 
ATOM     24  C   LIG    1       -3.395  -0.995   1.049  0.00  0.00    +0.040 C 
ATOM     25  C   LIG    1       -3.202  -2.513   1.032  0.00  0.00    +0.000 C 
ATOM     26  C   LIG    1       -2.291  -2.892  -0.139  0.00  0.00    +0.020 C 
ATOM     27  C   LIG    1       -0.957  -2.155  -0.001  0.00  0.00    +0.200 C 
ENDBRANCH  19  22
ENDBRANCH   3  16
TORSDOF 5
