REMARK  Name = ZINCtV000002BQZL.0
REMARK                            x       y       z     vdW  Elec       q    Type
REMARK                         _______ _______ _______ _____ _____    ______ ____
ROOT
ATOM      1  C   LIG    1        0.073   4.115   1.034  0.00  0.00    +0.310 C 
ATOM      2  C   LIG    1        0.529   2.750   1.560  0.00  0.00    +0.030 C 
ATOM      3  C   LIG    1        0.926   1.860   0.380  0.00  0.00    +0.030 C 
ATOM      4  C   LIG    1       -0.286   1.646  -0.530  0.00  0.00    -0.020 C 
ATOM      5  C   LIG    1       -0.752   2.998  -1.079  0.00  0.00    +0.250 C 
ATOM      6  C   LIG    1        0.102   0.729  -1.691  0.00  0.00    +0.030 C 
ATOM      7  N   LIG    1       -0.997   3.908   0.048  0.00  0.00    -0.620 N 
ATOM      8  C   LIG    1       -2.180   4.540   0.176  0.00  0.00    +0.720 C 
ATOM      9  N   LIG    1       -2.959   4.736  -0.906  0.00  0.00    -0.560 N 
ATOM     10  O   LIG    1       -2.544   4.934   1.267  0.00  0.00    -0.530 OA
ENDROOT
BRANCH   9  11
ATOM     11  C   LIG    1       -4.140   5.478  -0.793  0.00  0.00    +0.180 A 
ATOM     12  C   LIG    1       -4.445   6.123   0.399  0.00  0.00    +0.030 A 
ATOM     13  C   LIG    1       -5.609   6.860   0.507  0.00  0.00    +0.040 A 
ATOM     14  C   LIG    1       -6.476   6.946  -0.566  0.00  0.00    -0.010 A 
ATOM     15  C   LIG    1       -6.179   6.299  -1.754  0.00  0.00    -0.010 A 
ATOM     16 CL   LIG    1       -7.271   6.410  -3.098  0.00  0.00    -0.070 Cl
ATOM     17  C   LIG    1       -5.013   5.566  -1.869  0.00  0.00    -0.010 A 
ENDBRANCH   9  11
BRANCH   1  23
ATOM     18  C   LIG    1       -0.580   6.321   2.030  0.00  0.00    +0.150 A 
ATOM     19  C   LIG    1       -1.060   7.086   3.084  0.00  0.00    -0.080 A 
ATOM     20  C   LIG    1       -1.404   6.478   4.276  0.00  0.00    +0.040 A 
ATOM     21  C   LIG    1       -1.271   5.110   4.419  0.00  0.00    -0.030 A 
ATOM     22  C   LIG    1       -0.798   4.345   3.369  0.00  0.00    +0.060 A 
ATOM     23  C   LIG    1       -0.448   4.948   2.177  0.00  0.00    -0.090 A 
BRANCH  18  25
ATOM     24  C   LIG    1       -0.404   8.334   0.777  0.00  0.00    +0.230 C 
ATOM     25  O   LIG    1       -0.241   6.917   0.857  0.00  0.00    -0.320 OA
ENDBRANCH  18  25
ENDBRANCH   1  23
BRANCH   9  26
ATOM     26  C   LIG    1       -2.570   4.173  -2.201  0.00  0.00    +0.270 C 
BRANCH  26  27
ATOM     27  C   LIG    1       -3.340   2.873  -2.444  0.00  0.00    +0.360 C 
ATOM     28  F   LIG    1       -4.698   3.161  -2.617  0.00  0.00    -0.190 F 
ATOM     29  F   LIG    1       -3.180   2.024  -1.343  0.00  0.00    -0.190 F 
ENDBRANCH  26  27
ENDBRANCH   9  26
TORSDOF 5
