REMARK  Name = ZINCrD0000075i8i.0
REMARK                            x       y       z     vdW  Elec       q    Type
REMARK                         _______ _______ _______ _____ _____    ______ ____
ROOT
ATOM      1  O   LIG    1        7.229   5.142  -0.403  0.00  0.00    -0.320 OA
ENDROOT
BRANCH   1   2
ATOM      2  C   LIG    1        5.884   5.054  -0.413  0.00  0.00    +0.560 C 
ATOM      3  O   LIG    1        5.209   6.052  -0.257  0.00  0.00    -0.490 OA
BRANCH   2   4
ATOM      4  C   LIG    1        5.232   3.745  -0.615  0.00  0.00    -0.000 A 
ATOM      5  N   LIG    1        5.839   2.589  -0.796  0.00  0.00    -0.210 NA
ATOM      6  N   LIG    1        4.977   1.647  -0.935  0.00  0.00    -0.370 N 
ATOM      7  H   LIG    1        5.193   0.712  -1.076  0.00  0.00    +0.450 HD
ATOM      8  C   LIG    1        3.714   2.155  -0.858  0.00  0.00    +0.060 A 
ATOM      9  C   LIG    1        3.841   3.500  -0.650  0.00  0.00    +0.020 A 
BRANCH   8  10
ATOM     10  C   LIG    1        2.449   1.396  -0.972  0.00  0.00    -0.030 A 
ATOM     11  C   LIG    1        1.224   2.056  -0.866  0.00  0.00    +0.040 A 
ATOM     12  C   LIG    1        0.048   1.342  -0.973  0.00  0.00    +0.020 A 
ATOM     13  C   LIG    1        0.082  -0.024  -1.185  0.00  0.00    +0.020 A 
ATOM     14  C   LIG    1        1.293  -0.684  -1.292  0.00  0.00    +0.020 A 
ATOM     15  C   LIG    1        2.476   0.018  -1.187  0.00  0.00    +0.010 A 
ENDBRANCH   8  10
ENDBRANCH   2   4
ENDBRANCH   1   2
BRANCH   1  16
ATOM     16  C   LIG    1        7.801   6.461  -0.200  0.00  0.00    +0.270 C 
BRANCH  16  19
ATOM     17  N   LIG    1       10.054   7.471  -0.049  0.00  0.00    -0.670 N 
ATOM     18  H   LIG    1        9.628   8.340   0.009  0.00  0.00    +0.420 HD
ATOM     19  C   LIG    1        9.305   6.363  -0.219  0.00  0.00    +0.520 C 
ATOM     20  O   LIG    1        9.841   5.289  -0.387  0.00  0.00    -0.480 OA
BRANCH  17  24
ATOM     21  C   LIG    1       14.201   7.162   0.229  0.00  0.00    -0.030 A 
ATOM     22  C   LIG    1       13.620   8.283  -0.370  0.00  0.00    +0.120 A 
ATOM     23  C   LIG    1       12.250   8.381  -0.460  0.00  0.00    +0.010 A 
ATOM     24  C   LIG    1       11.443   7.367   0.044  0.00  0.00    +0.190 A 
ATOM     25  C   LIG    1       12.016   6.252   0.647  0.00  0.00    +0.040 A 
ATOM     26  C   LIG    1       13.387   6.143   0.736  0.00  0.00    +0.030 A 
ATOM     27 CL   LIG    1       14.102   4.748   1.482  0.00  0.00    -0.040 Cl
BRANCH  21  29
ATOM     28  N   LIG    1       16.756   6.973   0.402  0.00  0.00    -0.390 NA
ATOM     29  C   LIG    1       15.626   7.057   0.326  0.00  0.00    +0.250 C 
ENDBRANCH  21  29
ENDBRANCH  17  24
ENDBRANCH  16  19
ENDBRANCH   1  16
TORSDOF 7
