REMARK  Name = ZINCqH0000004QyX.0
REMARK                            x       y       z     vdW  Elec       q    Type
REMARK                         _______ _______ _______ _____ _____    ______ ____
ROOT
ATOM      1  N   LIG    1       -1.799  -1.091   3.034  0.00  0.00    -0.660 N 
ATOM      2  H   LIG    1       -1.136  -0.730   3.642  0.00  0.00    +0.410 HD
ATOM      3  C   LIG    1       -1.443  -1.452   1.785  0.00  0.00    +0.710 C 
ATOM      4  N   LIG    1       -0.162  -1.328   1.387  0.00  0.00    -0.730 N 
ATOM      5  H   LIG    1        0.505  -0.979   2.000  0.00  0.00    +0.400 HD
ATOM      6  O   LIG    1       -2.279  -1.888   1.017  0.00  0.00    -0.560 OA
ENDROOT
BRANCH   4   7
ATOM      7  C   LIG    1        0.225  -1.719   0.030  0.00  0.00    +0.320 C 
ATOM      8  C   LIG    1        0.013  -0.567  -0.931  0.00  0.00    -0.110 A 
ATOM      9  C   LIG    1       -1.149  -0.085  -1.509  0.00  0.00    +0.050 A 
ATOM     10  C   LIG    1       -1.102   0.999  -2.365  0.00  0.00    +0.000 A 
ATOM     11  C   LIG    1        0.110   1.596  -2.655  0.00  0.00    +0.010 A 
ATOM     12  C   LIG    1        1.272   1.112  -2.084  0.00  0.00    +0.010 A 
ATOM     13  C   LIG    1        1.226   0.031  -1.221  0.00  0.00    -0.090 A 
ATOM     14  C   LIG    1        2.337  -0.678  -0.474  0.00  0.00    +0.080 C 
ATOM     15  C   LIG    1        1.731  -2.019  -0.033  0.00  0.00    -0.060 C 
ATOM     16  C   LIG    1        2.022  -3.106  -1.060  0.00  0.00    +0.020 C 
ATOM     17  C   LIG    1        3.523  -3.414  -1.061  0.00  0.00    +0.210 C 
ATOM     18  O   LIG    1        3.931  -3.782   0.258  0.00  0.00    -0.380 OA
ATOM     19  C   LIG    1        3.747  -2.755   1.236  0.00  0.00    +0.210 C 
ATOM     20  C   LIG    1        2.256  -2.419   1.341  0.00  0.00    +0.010 C 
ENDBRANCH   4   7
BRANCH   1  22
ATOM     21  C   LIG    1       -3.597  -1.879   4.561  0.00  0.00    -0.040 A 
ATOM     22  C   LIG    1       -3.134  -1.239   3.456  0.00  0.00    +0.050 A 
ATOM     23  C   LIG    1       -4.308  -0.750   2.829  0.00  0.00    +0.040 A 
ATOM     24  N   LIG    1       -5.307  -1.129   3.572  0.00  0.00    -0.360 NA
ATOM     25  C   LIG    1       -4.385   0.049   1.554  0.00  0.00    +0.170 C 
ATOM     26  O   LIG    1       -4.934  -1.754   4.538  0.00  0.00    +0.110 OA
BRANCH  21  28
ATOM     27  C   LIG    1       -2.394  -1.602   6.711  0.00  0.00    +0.040 C 
ATOM     28  C   LIG    1       -2.774  -2.588   5.605  0.00  0.00    +0.140 C 
ENDBRANCH  21  28
ENDBRANCH   1  22
TORSDOF 3
