REMARK  Name = ZINCrD000000AkXF.0
REMARK                            x       y       z     vdW  Elec       q    Type
REMARK                         _______ _______ _______ _____ _____    ______ ____
ROOT
ATOM      1  N   LIG    1        1.083   1.955   0.003  0.00  0.00    -0.570 N 
ATOM      2  C   LIG    1       -0.019   1.194   0.001  0.00  0.00    +0.710 C 
ATOM      3  N   LIG    1       -1.151   1.927   0.012  0.00  0.00    -0.710 N 
ATOM      4  H   LIG    1       -2.062   1.594   0.009  0.00  0.00    +0.440 HD
ATOM      5  C   LIG    1       -0.728   3.328   0.032  0.00  0.00    +0.170 C 
ATOM      6  C   LIG    1       -1.249   4.056   1.278  0.00  0.00    +0.080 C 
ATOM      7  C   LIG    1       -2.533   4.734   0.746  0.00  0.00    +0.100 C 
ATOM      8  C   LIG    1       -2.306   4.901  -0.742  0.00  0.00    -0.070 A 
ATOM      9  C   LIG    1       -2.960   5.700  -1.664  0.00  0.00    +0.020 A 
ATOM     10  C   LIG    1       -2.578   5.689  -2.991  0.00  0.00    +0.030 A 
ATOM     11  C   LIG    1       -1.539   4.875  -3.402  0.00  0.00    +0.010 A 
ATOM     12  C   LIG    1       -0.885   4.077  -2.484  0.00  0.00    +0.050 A 
ATOM     13  C   LIG    1       -1.264   4.086  -1.153  0.00  0.00    -0.110 A 
ATOM     14  O   LIG    1       -0.002  -0.021  -0.015  0.00  0.00    -0.530 OA
ATOM     15  C   LIG    1        0.777   3.271   0.021  0.00  0.00    +0.540 C 
ATOM     16  O   LIG    1        1.549   4.206   0.027  0.00  0.00    -0.450 OA
ENDROOT
BRANCH   1  17
ATOM     17  C   LIG    1        2.449   1.427  -0.012  0.00  0.00    +0.370 C 
BRANCH  17  19
ATOM     18  O   LIG    1        2.168   1.559  -2.352  0.00  0.00    -0.500 OA
ATOM     19  C   LIG    1        2.909   1.264  -1.438  0.00  0.00    +0.500 C 
ATOM     20  N   LIG    1        4.143   0.789  -1.697  0.00  0.00    -0.660 N 
ATOM     21  H   LIG    1        4.764   0.628  -0.970  0.00  0.00    +0.420 HD
BRANCH  20  22
ATOM     22  C   LIG    1        4.529   0.528  -3.017  0.00  0.00    +0.170 A 
ATOM     23  C   LIG    1        3.569   0.252  -3.981  0.00  0.00    +0.050 A 
ATOM     24  C   LIG    1        3.954  -0.006  -5.284  0.00  0.00    -0.010 A 
ATOM     25  C   LIG    1        5.294   0.011  -5.627  0.00  0.00    +0.030 A 
ATOM     26  C   LIG    1        6.253   0.286  -4.669  0.00  0.00    +0.080 A 
ATOM     27 CL   LIG    1        2.754  -0.350  -6.490  0.00  0.00    -0.050 Cl
ATOM     28  C   LIG    1        5.874   0.549  -3.367  0.00  0.00    -0.070 A 
ATOM     29 CL   LIG    1        7.078   0.902  -2.167  0.00  0.00    -0.050 Cl
ENDBRANCH  20  22
ENDBRANCH  17  19
ENDBRANCH   1  17
TORSDOF 3
