REMARK  Name = ZINCqH0000002L9P.0
REMARK                            x       y       z     vdW  Elec       q    Type
REMARK                         _______ _______ _______ _____ _____    ______ ____
ROOT
ATOM      1  C   LIG    1        3.628   5.998  -0.216  0.00  0.00    +0.270 C 
ENDROOT
BRANCH   1   2
ATOM      2  N   LIG    1        3.340   7.432  -0.303  0.00  0.00    -0.730 N 
ATOM      3  H   LIG    1        2.481   7.735  -0.636  0.00  0.00    +0.410 HD
ATOM      4  C   LIG    1        4.269   8.331   0.080  0.00  0.00    +0.710 C 
ATOM      5  N   LIG    1        4.004   9.650   0.000  0.00  0.00    -0.740 N 
ATOM      6  H   LIG    1        3.145   9.952  -0.334  0.00  0.00    +0.400 HD
ATOM      7  O   LIG    1        5.346   7.951   0.498  0.00  0.00    -0.580 OA
BRANCH   5   8
ATOM      8  C   LIG    1        5.013  10.626   0.417  0.00  0.00    +0.340 C 
BRANCH   8   9
ATOM      9  C   LIG    1        4.472  12.020   0.229  0.00  0.00    -0.120 A 
ATOM     10  C   LIG    1        4.668  12.681  -0.970  0.00  0.00    +0.070 A 
ATOM     11  C   LIG    1        4.167  13.957  -1.145  0.00  0.00    -0.020 A 
ATOM     12  C   LIG    1        3.478  14.578  -0.117  0.00  0.00    +0.110 A 
ATOM     13  C   LIG    1        3.287  13.916   1.085  0.00  0.00    -0.020 A 
ATOM     14  F   LIG    1        2.993  15.827  -0.285  0.00  0.00    -0.140 F 
ATOM     15  C   LIG    1        3.784  12.638   1.256  0.00  0.00    +0.070 A 
ENDBRANCH   8   9
ENDBRANCH   5   8
ENDBRANCH   1   2
BRANCH   1  16
ATOM     16  C   LIG    1        2.336   5.233  -0.094  0.00  0.00    +0.510 C 
ATOM     17  N   LIG    1        2.356   3.889   0.001  0.00  0.00    -0.670 N 
ATOM     18  H   LIG    1        3.202   3.419   0.058  0.00  0.00    +0.410 HD
ATOM     19  O   LIG    1        1.278   5.827  -0.082  0.00  0.00    -0.510 OA
BRANCH  17  20
ATOM     20  C   LIG    1        1.155   3.171   0.015  0.00  0.00    +0.130 A 
ATOM     21  C   LIG    1        1.081   1.924  -0.592  0.00  0.00    -0.010 A 
ATOM     22  C   LIG    1       -0.106   1.218  -0.576  0.00  0.00    +0.030 A 
ATOM     23  C   LIG    1       -1.222   1.754   0.041  0.00  0.00    -0.100 A 
ATOM     24  C   LIG    1       -1.151   2.992   0.651  0.00  0.00    +0.030 A 
ATOM     25  C   LIG    1       -2.517   0.983   0.052  0.00  0.00    +0.090 C 
ATOM     26  C   LIG    1        0.033   3.704   0.638  0.00  0.00    +0.030 A 
ENDBRANCH  17  20
ENDBRANCH   1  16
BRANCH   1  27
ATOM     27  C   LIG    1        4.371   5.550  -1.476  0.00  0.00    +0.020 C 
BRANCH  27  29
ATOM     28  C   LIG    1        6.480   5.786  -2.794  0.00  0.00    +0.010 C 
ATOM     29  C   LIG    1        5.738   6.234  -1.534  0.00  0.00    +0.030 C 
ENDBRANCH  27  29
ENDBRANCH   1  27
TORSDOF 7
