REMARK  Name = ZINCvU00000006Im.0
REMARK                            x       y       z     vdW  Elec       q    Type
REMARK                         _______ _______ _______ _____ _____    ______ ____
ROOT
ATOM      1  C   LIG    1       -8.747   6.381   0.073  0.00  0.00    +0.160 C 
ATOM      2  N   LIG    1       -7.801   5.507   0.065  0.00  0.00    -0.250 NA
ATOM      3  N   LIG    1       -8.245   4.186   0.061  0.00  0.00    -0.460 N 
ATOM      4  C   LIG    1       -9.717   4.179   0.062  0.00  0.00    +0.330 C 
ATOM      5  C   LIG    1       -7.456   3.094   0.052  0.00  0.00    +0.580 C 
ATOM      6  O   LIG    1       -7.952   1.987   0.049  0.00  0.00    -0.490 OA
ATOM      7  C   LIG    1      -10.085   5.676   0.077  0.00  0.00    +0.100 C 
ENDROOT
BRANCH   1  11
ATOM      8  C   LIG    1       -8.196  10.590   0.090  0.00  0.00    +0.150 A 
ATOM      9  C   LIG    1       -7.092   9.747   0.081  0.00  0.00    -0.020 A 
ATOM     10  C   LIG    1       -7.266   8.380   0.076  0.00  0.00    +0.100 A 
ATOM     11  C   LIG    1       -8.556   7.842   0.079  0.00  0.00    -0.080 A 
ATOM     12  C   LIG    1       -9.664   8.694   0.082  0.00  0.00    +0.090 A 
ATOM     13  C   LIG    1       -9.479  10.060   0.094  0.00  0.00    -0.070 A 
BRANCH   8  15
ATOM     14  C   LIG    1       -9.197  12.746   0.104  0.00  0.00    +0.240 C 
ATOM     15  O   LIG    1       -8.019  11.937   0.095  0.00  0.00    -0.310 OA
ENDBRANCH   8  15
ENDBRANCH   1  11
BRANCH   4  16
ATOM     16  C   LIG    1      -10.245   3.513  -1.183  0.00  0.00    -0.030 A 
ATOM     17  C   LIG    1      -11.316   2.703  -1.247  0.00  0.00    -0.030 A 
ATOM     18  C   LIG    1      -11.450   2.306  -2.597  0.00  0.00    -0.060 A 
ATOM     19  C   LIG    1      -10.451   2.897  -3.277  0.00  0.00    +0.170 A 
ATOM     20  O   LIG    1       -9.728   3.632  -2.417  0.00  0.00    -0.170 OA
ENDBRANCH   4  16
BRANCH   5  21
ATOM     21  C   LIG    1       -5.957   3.247   0.046  0.00  0.00    +0.100 C 
BRANCH  21  22
ATOM     22  S   LIG    1       -5.183   1.611   0.034  0.00  0.00    +0.110 S 
BRANCH  22  23
ATOM     23  C   LIG    1       -3.484   2.076   0.029  0.00  0.00    +0.070 A 
ATOM     24  N   LIG    1       -2.494   1.249   0.020  0.00  0.00    -0.440 NA
ATOM     25  C   LIG    1       -1.246   1.760   0.018  0.00  0.00    +0.090 A 
ATOM     26  C   LIG    1       -0.013   1.076   0.008  0.00  0.00    +0.080 A 
ATOM     27  C   LIG    1        1.169   1.774   0.000  0.00  0.00    +0.040 A 
ATOM     28  C   LIG    1        1.170   3.160   0.007  0.00  0.00    +0.040 A 
ATOM     29  C   LIG    1       -0.023   3.849   0.022  0.00  0.00    +0.060 A 
ATOM     30  C   LIG    1       -1.231   3.158   0.030  0.00  0.00    -0.170 A 
ATOM     31  S   LIG    1       -2.896   3.733   0.050  0.00  0.00    +0.060 S 
ENDBRANCH  22  23
ENDBRANCH  21  22
ENDBRANCH   5  21
TORSDOF 6
