REMARK  Name = ZINCpe000000UeVm.0
REMARK                            x       y       z     vdW  Elec       q    Type
REMARK                         _______ _______ _______ _____ _____    ______ ____
ROOT
ATOM      1  C   LIG    1       -1.935   6.411  -2.740  0.00  0.00    +0.590 C 
ATOM      2  N   LIG    1       -1.204   5.755  -1.817  0.00  0.00    -0.600 N 
ATOM      3  C   LIG    1       -0.763   6.427  -0.584  0.00  0.00    +0.260 C 
ATOM      4  C   LIG    1        0.743   6.196  -0.419  0.00  0.00    +0.200 C 
ATOM      5  O   LIG    1        1.019   4.796  -0.513  0.00  0.00    -0.350 OA
ATOM      6  C   LIG    1        0.686   4.218  -1.778  0.00  0.00    +0.150 C 
ATOM      7  C   LIG    1       -0.824   4.347  -2.011  0.00  0.00    +0.260 C 
ATOM      8  O   LIG    1       -2.219   5.866  -3.790  0.00  0.00    -0.540 OA
ENDROOT
BRANCH   1  12
ATOM      9  C   LIG    1       -3.247  10.347  -1.961  0.00  0.00    +0.190 A 
ATOM     10  C   LIG    1       -2.687  10.068  -3.166  0.00  0.00    -0.210 A 
ATOM     11  C   LIG    1       -2.245   8.775  -3.449  0.00  0.00    +0.210 A 
ATOM     12  C   LIG    1       -2.388   7.785  -2.479  0.00  0.00    -0.280 A 
ATOM     13  C   LIG    1       -2.985   8.125  -1.238  0.00  0.00    +0.530 A 
ATOM     14  O   LIG    1       -3.126   7.276  -0.375  0.00  0.00    -0.530 OA
ATOM     15  C   LIG    1       -2.543  11.155  -4.199  0.00  0.00    +0.110 C 
ATOM     16  N   LIG    1       -3.389   9.390  -1.014  0.00  0.00    -0.600 N 
ATOM     17  H   LIG    1       -3.793   9.618  -0.162  0.00  0.00    +0.420 HD
BRANCH   9  19
ATOM     18  C   LIG    1       -5.212  11.859  -1.987  0.00  0.00    +0.050 C 
ATOM     19  C   LIG    1       -3.719  11.749  -1.673  0.00  0.00    +0.100 C 
ENDBRANCH   9  19
ENDBRANCH   1  12
BRANCH   6  20
ATOM     20  C   LIG    1        1.078   2.739  -1.782  0.00  0.00    +0.210 C 
BRANCH  20  21
ATOM     21  N   LIG    1        2.525   2.615  -1.556  0.00  0.00    -0.530 NA
ATOM     22  C   LIG    1        3.284   3.176  -2.683  0.00  0.00    +0.130 C 
ATOM     23  C   LIG    1        4.782   3.081  -2.380  0.00  0.00    +0.220 C 
ATOM     24  O   LIG    1        5.125   1.717  -2.120  0.00  0.00    -0.390 OA
ATOM     25  C   LIG    1        4.404   1.140  -1.028  0.00  0.00    +0.220 C 
ATOM     26  C   LIG    1        2.903   1.215  -1.318  0.00  0.00    +0.150 C 
ENDBRANCH  20  21
ENDBRANCH   6  20
TORSDOF 4
