REMARK  Name = ZINCvU0000000ID0.0
REMARK                            x       y       z     vdW  Elec       q    Type
REMARK                         _______ _______ _______ _____ _____    ______ ____
ROOT
ATOM      1  O   LIG    1       -2.476   0.945   0.030  0.00  0.00    -0.500 OA
ATOM      2  C   LIG    1       -2.355  -0.262   0.022  0.00  0.00    +0.520 C 
ATOM      3  N   LIG    1       -1.126  -0.816   0.008  0.00  0.00    -0.620 N 
ATOM      4  H   LIG    1       -1.030  -1.781   0.001  0.00  0.00    +0.430 HD
ENDROOT
BRANCH   3   5
ATOM      5  C   LIG    1        0.002  -0.004   0.002  0.00  0.00    +0.230 A 
ATOM      6  N   LIG    1        1.225  -0.433  -0.012  0.00  0.00    -0.500 NA
ATOM      7  C   LIG    1        2.179   0.480  -0.016  0.00  0.00    +0.110 A 
ATOM      8  C   LIG    1        1.740   1.740  -0.005  0.00  0.00    -0.140 A 
ATOM      9  S   LIG    1       -0.021   1.705   0.011  0.00  0.00    +0.240 S 
BRANCH   7  10
ATOM     10  C   LIG    1        3.644   0.127  -0.031  0.00  0.00    +0.020 C 
ATOM     11  C   LIG    1        4.214   0.378  -1.429  0.00  0.00    +0.020 C 
ATOM     12  C   LIG    1        5.702   0.020  -1.444  0.00  0.00    -0.010 C 
ATOM     13  C   LIG    1        6.446   0.887  -0.426  0.00  0.00    +0.010 C 
ATOM     14  C   LIG    1        5.875   0.636   0.971  0.00  0.00    -0.010 C 
ATOM     15  C   LIG    1        6.048  -0.840   1.335  0.00  0.00    +0.010 C 
ATOM     16  C   LIG    1        5.304  -1.707   0.317  0.00  0.00    -0.020 C 
ATOM     17  C   LIG    1        5.875  -1.456  -1.080  0.00  0.00    +0.010 C 
ATOM     18  C   LIG    1        4.387   0.994   0.987  0.00  0.00    +0.020 C 
ATOM     19  C   LIG    1        3.817  -1.349   0.333  0.00  0.00    +0.040 C 
ENDBRANCH   7  10
ENDBRANCH   3   5
BRANCH   2  20
ATOM     20  C   LIG    1       -3.578  -1.141   0.028  0.00  0.00    +0.100 C 
BRANCH  20  21
ATOM     21  C   LIG    1       -4.835  -0.268   0.045  0.00  0.00    +0.230 C 
BRANCH  21  22
ATOM     22  C   LIG    1       -6.058  -1.148   0.051  0.00  0.00    +0.160 A 
ATOM     23  N   LIG    1       -6.673  -1.603   1.107  0.00  0.00    -0.270 NA
ATOM     24  N   LIG    1       -7.678  -2.321   0.743  0.00  0.00    -0.270 NA
ATOM     25  C   LIG    1       -7.738  -2.348  -0.568  0.00  0.00    +0.210 A 
ATOM     26  O   LIG    1       -6.715  -1.601  -1.030  0.00  0.00    -0.220 OA
BRANCH  25  27
ATOM     27  C   LIG    1       -8.743  -3.060  -1.385  0.00  0.00    -0.030 A 
ATOM     28  C   LIG    1       -8.687  -2.996  -2.778  0.00  0.00    +0.050 A 
ATOM     29  C   LIG    1       -9.625  -3.667  -3.535  0.00  0.00    +0.010 A 
ATOM     30  C   LIG    1      -10.626  -4.395  -2.916  0.00  0.00    +0.040 A 
ATOM     31  C   LIG    1      -10.690  -4.458  -1.535  0.00  0.00    +0.020 A 
ATOM     32  C   LIG    1       -9.755  -3.796  -0.767  0.00  0.00    +0.070 A 
ENDBRANCH  25  27
ENDBRANCH  21  22
ENDBRANCH  20  21
ENDBRANCH   2  20
TORSDOF 6
