REMARK  Name = ZINCrH000004qFMg.0
REMARK                            x       y       z     vdW  Elec       q    Type
REMARK                         _______ _______ _______ _____ _____    ______ ____
ROOT
ATOM      1  C   LIG    1       -2.283   5.028   0.050  0.00  0.00    +0.520 C 
ATOM      2  N   LIG    1       -0.955   4.798   0.036  0.00  0.00    -0.620 N 
ATOM      3  H   LIG    1       -0.335   5.544   0.034  0.00  0.00    +0.430 HD
ATOM      4  O   LIG    1       -3.060   4.096   0.052  0.00  0.00    -0.470 OA
ENDROOT
BRANCH   2   5
ATOM      5  C   LIG    1       -0.475   3.494   0.025  0.00  0.00    +0.240 A 
ATOM      6  N   LIG    1        0.778   3.164   0.011  0.00  0.00    -0.490 NA
ATOM      7  C   LIG    1        1.057   1.874   0.002  0.00  0.00    +0.100 A 
ATOM      8  C   LIG    1       -0.013   1.076   0.008  0.00  0.00    -0.130 A 
ATOM      9  S   LIG    1       -1.452   2.091   0.019  0.00  0.00    +0.250 S 
BRANCH   7  10
ATOM     10  C   LIG    1        2.468   1.346  -0.014  0.00  0.00    +0.280 C 
BRANCH  10  11
ATOM     11  N   LIG    1        2.955   1.294  -1.399  0.00  0.00    -0.530 NA
ATOM     12  C   LIG    1        2.208   0.301  -2.184  0.00  0.00    +0.150 C 
ATOM     13  C   LIG    1        2.707   0.323  -3.632  0.00  0.00    +0.160 C 
ATOM     14  O   LIG    1        4.116   0.078  -3.649  0.00  0.00    -0.380 OA
ATOM     15  C   LIG    1        4.874   1.026  -2.894  0.00  0.00    +0.200 C 
ATOM     16  C   LIG    1        4.676   2.425  -3.483  0.00  0.00    +0.010 C 
ATOM     17  C   LIG    1        1.989  -0.762  -4.437  0.00  0.00    +0.050 C 
ATOM     18  C   LIG    1        4.398   1.012  -1.440  0.00  0.00    +0.150 C 
ENDBRANCH  10  11
ENDBRANCH   7  10
ENDBRANCH   2   5
BRANCH   1  19
ATOM     19  C   LIG    1       -2.804   6.442   0.062  0.00  0.00    +0.270 C 
BRANCH  19  20
ATOM     20  O   LIG    1       -4.233   6.424   0.075  0.00  0.00    -0.280 OA
BRANCH  20  28
ATOM     21  C   LIG    1       -7.057   6.409   0.089  0.00  0.00    +0.110 C 
ATOM     22  C   LIG    1       -6.251   7.683   0.095  0.00  0.00    -0.090 A 
ATOM     23  C   LIG    1       -6.892   8.906   0.111  0.00  0.00    +0.070 A 
ATOM     24  C   LIG    1       -6.153  10.076   0.111  0.00  0.00    -0.060 A 
ATOM     25  C   LIG    1       -4.770  10.022   0.099  0.00  0.00    +0.060 A 
ATOM     26  C   LIG    1       -4.126   8.800   0.087  0.00  0.00    -0.050 A 
ATOM     27 CL   LIG    1       -6.960  11.612   0.126  0.00  0.00    -0.070 Cl
ATOM     28  C   LIG    1       -4.865   7.627   0.087  0.00  0.00    +0.130 A 
ENDBRANCH  20  28
ENDBRANCH  19  20
ENDBRANCH   1  19
TORSDOF 6
