REMARK  Name = ZINCnE000001PkPc.0
REMARK                            x       y       z     vdW  Elec       q    Type
REMARK                         _______ _______ _______ _____ _____    ______ ____
ROOT
ATOM      1  C   LIG    1       -2.091  -3.037   0.108  0.00  0.00    -0.030 A 
ATOM      2  C   LIG    1       -3.364  -2.477   0.018  0.00  0.00    +0.000 A 
ATOM      3  C   LIG    1       -3.510  -1.107  -0.078  0.00  0.00    +0.040 A 
ATOM      4  C   LIG    1       -2.397  -0.288  -0.083  0.00  0.00    -0.010 A 
ATOM      5  C   LIG    1       -1.124  -0.838   0.008  0.00  0.00    +0.190 A 
ATOM      6  C   LIG    1       -0.969  -2.213   0.098  0.00  0.00    +0.020 A 
ENDROOT
BRANCH   1  11
ATOM      7  C   LIG    1       -1.440  -8.756   0.504  0.00  0.00    +0.110 C 
ATOM      8  C   LIG    1       -1.614  -7.263   0.400  0.00  0.00    -0.040 A 
ATOM      9  C   LIG    1       -0.507  -6.439   0.395  0.00  0.00    +0.020 A 
ATOM     10  C   LIG    1       -0.658  -5.069   0.300  0.00  0.00    +0.070 A 
ATOM     11  C   LIG    1       -1.932  -4.509   0.210  0.00  0.00    -0.040 A 
ATOM     12  C   LIG    1       -3.053  -5.332   0.220  0.00  0.00    +0.080 A 
ATOM     13  C   LIG    1       -2.896  -6.714   0.311  0.00  0.00    -0.030 A 
BRANCH  13  14
ATOM     14  C   LIG    1       -4.045  -7.569   0.317  0.00  0.00    +0.260 C 
ATOM     15  N   LIG    1       -4.956  -8.247   0.322  0.00  0.00    -0.420 NA
ENDBRANCH  13  14
ENDBRANCH   1  11
BRANCH   5  16
ATOM     16  N   LIG    1        0.002  -0.004   0.002  0.00  0.00    -0.330 N 
ATOM     17  C   LIG    1       -0.016   1.340   0.009  0.00  0.00    +0.250 A 
ATOM     18  C   LIG    1        1.298   1.770  -0.001  0.00  0.00    -0.260 A 
ATOM     19  C   LIG    1        2.115   0.615  -0.015  0.00  0.00    +0.290 A 
ATOM     20  N   LIG    1        1.335  -0.430  -0.013  0.00  0.00    -0.320 NA
BRANCH  18  21
ATOM     21  C   LIG    1        1.760   3.166   0.001  0.00  0.00    +0.550 C 
ATOM     22  O   LIG    1        2.958   3.414  -0.009  0.00  0.00    -0.690 OA
ATOM     23  O   LIG    1        0.947   4.080   0.013  0.00  0.00    -0.690 OA
ENDBRANCH  18  21
ENDBRANCH   5  16
TORSDOF 4
