REMARK  Name = ZINCvU0000000FRI.0
REMARK                            x       y       z     vdW  Elec       q    Type
REMARK                         _______ _______ _______ _____ _____    ______ ____
ROOT
ATOM      1  C   LIG    1        0.983  -6.728   0.922  0.00  0.00    -0.010 C 
ATOM      2  C   LIG    1        1.629  -6.083  -0.307  0.00  0.00    +0.080 C 
ATOM      3  C   LIG    1        1.593  -4.560  -0.156  0.00  0.00    +0.200 C 
ATOM      4  N   LIG    1        0.201  -4.113  -0.021  0.00  0.00    -0.480 N 
ATOM      5  C   LIG    1       -0.425  -4.682   1.179  0.00  0.00    +0.200 C 
ATOM      6  C   LIG    1       -0.450  -6.208   1.068  0.00  0.00    +0.050 C 
ENDROOT
BRANCH   4   7
ATOM      7  C   LIG    1        0.122  -2.724  -0.013  0.00  0.00    +0.340 A 
ATOM      8  N   LIG    1        0.685  -2.041   0.971  0.00  0.00    -0.490 NA
ATOM      9  C   LIG    1        0.634  -0.723   1.016  0.00  0.00    +0.350 A 
ATOM     10  C   LIG    1       -0.014  -0.005   0.031  0.00  0.00    -0.230 A 
ATOM     11  C   LIG    1       -0.623  -0.684  -1.017  0.00  0.00    +0.150 A 
ATOM     12  C   LIG    1       -0.547  -2.066  -1.040  0.00  0.00    -0.060 A 
ATOM     13 CL   LIG    1       -1.284  -2.965  -2.330  0.00  0.00    -0.010 Cl
BRANCH  10  14
ATOM     14  C   LIG    1       -0.066   1.500   0.095  0.00  0.00    +0.520 C 
ATOM     15  F   LIG    1       -1.400   1.918   0.150  0.00  0.00    -0.170 F 
ATOM     16  F   LIG    1        0.545   2.036  -1.043  0.00  0.00    -0.170 F 
ATOM     17  F   LIG    1        0.609   1.941   1.239  0.00  0.00    -0.170 F 
ENDBRANCH  10  14
ENDBRANCH   4   7
BRANCH   1  19
ATOM     18  O   LIG    1        1.417  -8.728  -0.253  0.00  0.00    -0.530 OA
ATOM     19  C   LIG    1        0.961  -8.225   0.752  0.00  0.00    +0.520 C 
ATOM     20  N   LIG    1        0.435  -9.005   1.717  0.00  0.00    -0.730 N 
ATOM     21  H   LIG    1        0.071  -8.603   2.521  0.00  0.00    +0.400 HD
BRANCH  20  22
ATOM     22  C   LIG    1        0.414 -10.461   1.552  0.00  0.00    +0.320 C 
BRANCH  22  23
ATOM     23  C   LIG    1       -0.222 -11.094   2.763  0.00  0.00    -0.080 A 
ATOM     24  C   LIG    1        0.561 -11.466   3.840  0.00  0.00    +0.040 A 
ATOM     25  C   LIG    1       -0.023 -12.042   4.952  0.00  0.00    +0.070 A 
ATOM     26  C   LIG    1       -1.388 -12.258   4.983  0.00  0.00    -0.170 A 
ATOM     27  C   LIG    1       -2.170 -11.892   3.903  0.00  0.00    +0.070 A 
ATOM     28  C   LIG    1       -1.587 -11.310   2.793  0.00  0.00    +0.040 A 
BRANCH  26  29
ATOM     29  C   LIG    1       -2.024 -12.892   6.193  0.00  0.00    +0.510 C 
ATOM     30  F   LIG    1       -3.333 -12.419   6.334  0.00  0.00    -0.180 F 
ATOM     31  F   LIG    1       -1.285 -12.563   7.334  0.00  0.00    -0.180 F 
ATOM     32  F   LIG    1       -2.044 -14.282   6.035  0.00  0.00    -0.170 F 
ENDBRANCH  26  29
ENDBRANCH  22  23
ENDBRANCH  20  22
ENDBRANCH   1  19
TORSDOF 6
