REMARK  Name = ZINCrH000004m5A2.2
REMARK                            x       y       z     vdW  Elec       q    Type
REMARK                         _______ _______ _______ _____ _____    ______ ____
ROOT
ATOM      1  N   LIG    1        5.284   0.893   1.340  0.00  0.00    -0.530 NA
ATOM      2  C   LIG    1        5.658   2.136   2.027  0.00  0.00    +0.160 C 
ATOM      3  C   LIG    1        5.957   1.837   3.498  0.00  0.00    +0.040 C 
ATOM      4  C   LIG    1        7.098   0.820   3.586  0.00  0.00    +0.040 C 
ATOM      5  C   LIG    1        6.702  -0.446   2.821  0.00  0.00    +0.100 C 
ATOM      6  C   LIG    1        6.382  -0.081   1.370  0.00  0.00    +0.200 C 
ENDROOT
BRANCH   5   7
ATOM      7  C   LIG    1        7.844  -1.430   2.852  0.00  0.00    +0.150 A 
ATOM      8  N   LIG    1        9.047  -1.233   2.379  0.00  0.00    -0.240 NA
ATOM      9  N   LIG    1        9.778  -2.275   2.571  0.00  0.00    -0.290 NA
ATOM     10  C   LIG    1        9.064  -3.208   3.179  0.00  0.00    +0.190 A 
ATOM     11  C   LIG    1        9.351  -4.516   3.616  0.00  0.00    +0.080 A 
ATOM     12  C   LIG    1        8.375  -5.242   4.224  0.00  0.00    +0.060 A 
ATOM     13  C   LIG    1        7.100  -4.680   4.408  0.00  0.00    +0.030 A 
ATOM     14  C   LIG    1        6.840  -3.426   3.984  0.00  0.00    +0.230 A 
ATOM     15  N   LIG    1        7.809  -2.686   3.373  0.00  0.00    -0.390 N 
ENDBRANCH   5   7
BRANCH   1  16
ATOM     16  C   LIG    1        4.856   1.163  -0.039  0.00  0.00    +0.230 C 
BRANCH  16  19
ATOM     17  C   LIG    1        1.186   2.059   0.002  0.00  0.00    +0.120 A 
ATOM     18  C   LIG    1        2.359   1.321  -0.008  0.00  0.00    -0.030 A 
ATOM     19  C   LIG    1        3.582   1.967  -0.022  0.00  0.00    -0.030 A 
ATOM     20  C   LIG    1        3.638   3.348  -0.015  0.00  0.00    +0.010 A 
ATOM     21  C   LIG    1        2.470   4.090   0.000  0.00  0.00    -0.020 A 
ATOM     22 CL   LIG    1        2.545   5.825   0.008  0.00  0.00    -0.040 Cl
ATOM     23  C   LIG    1        1.242   3.449   0.009  0.00  0.00    +0.070 A 
BRANCH  17  25
ATOM     24  C   LIG    1        0.002  -0.004   0.002  0.00  0.00    +0.240 C 
ATOM     25  O   LIG    1       -0.017   1.425   0.010  0.00  0.00    -0.300 OA
ENDBRANCH  17  25
BRANCH  23  26
ATOM     26  O   LIG    1        0.093   4.177   0.023  0.00  0.00    -0.320 OA
ATOM     27  C   LIG    1       -0.444   4.518   1.303  0.00  0.00    +0.240 C 
ENDBRANCH  23  26
ENDBRANCH  16  19
ENDBRANCH   1  16
TORSDOF 5
