REMARK  Name = ZINCvU00000008PS.0
REMARK                            x       y       z     vdW  Elec       q    Type
REMARK                         _______ _______ _______ _____ _____    ______ ____
ROOT
ATOM      1  C   LIG    1        1.182   3.571  -0.048  0.00  0.00    +0.150 C 
ATOM      2  N   LIG    1        0.123   4.304  -0.020  0.00  0.00    -0.220 NA
ATOM      3  N   LIG    1        0.380   5.674   0.006  0.00  0.00    -0.460 N 
ATOM      4  C   LIG    1        1.835   5.886  -0.018  0.00  0.00    +0.270 C 
ATOM      5  C   LIG    1       -0.553   6.646   0.041  0.00  0.00    +0.590 C 
ATOM      6  O   LIG    1       -0.216   7.809   0.155  0.00  0.00    -0.490 OA
ATOM      7  C   LIG    1        2.408   4.455  -0.055  0.00  0.00    +0.100 C 
ENDROOT
BRANCH   4   8
ATOM      8  C   LIG    1        2.243   6.652  -1.250  0.00  0.00    -0.130 A 
ATOM      9  C   LIG    1        1.358   6.790  -2.302  0.00  0.00    +0.050 A 
ATOM     10  C   LIG    1        1.729   7.498  -3.430  0.00  0.00    +0.010 A 
ATOM     11  C   LIG    1        2.990   8.058  -3.512  0.00  0.00    +0.050 A 
ATOM     12  C   LIG    1        3.879   7.916  -2.464  0.00  0.00    -0.010 A 
ATOM     13  C   LIG    1        3.506   7.213  -1.331  0.00  0.00    +0.110 A 
ATOM     14  F   LIG    1        4.375   7.073  -0.305  0.00  0.00    -0.130 F 
ENDBRANCH   4   8
BRANCH   5  15
ATOM     15  C   LIG    1       -1.986   6.299  -0.059  0.00  0.00    -0.140 A 
ATOM     16  C   LIG    1       -2.385   4.961  -0.062  0.00  0.00    +0.130 A 
ATOM     17  C   LIG    1       -3.724   4.644  -0.150  0.00  0.00    -0.010 A 
ATOM     18  C   LIG    1       -4.672   5.647  -0.246  0.00  0.00    +0.050 A 
ATOM     19  C   LIG    1       -4.285   6.975  -0.249  0.00  0.00    +0.010 A 
ATOM     20  C   LIG    1       -2.948   7.308  -0.157  0.00  0.00    +0.020 A 
ATOM     21 CL   LIG    1       -2.463   8.975  -0.161  0.00  0.00    -0.040 Cl
ENDBRANCH   5  15
BRANCH   1  26
ATOM     22  C   LIG    1        2.413   0.024  -0.137  0.00  0.00    +0.090 A 
ATOM     23  C   LIG    1        1.216  -0.678  -0.126  0.00  0.00    -0.010 A 
ATOM     24  C   LIG    1        0.011  -0.002  -0.090  0.00  0.00    -0.030 A 
ATOM     25  C   LIG    1       -0.010   1.382  -0.064  0.00  0.00    +0.130 A 
ATOM     26  C   LIG    1        1.195   2.098  -0.074  0.00  0.00    -0.030 A 
ATOM     27  C   LIG    1        2.409   1.407  -0.112  0.00  0.00    +0.070 A 
BRANCH  22  29
ATOM     28  C   LIG    1        3.526  -2.077  -0.199  0.00  0.00    +0.250 C 
ATOM     29  O   LIG    1        3.594  -0.650  -0.173  0.00  0.00    -0.310 OA
ENDBRANCH  22  29
BRANCH  25  30
ATOM     30  O   LIG    1       -1.196   2.045  -0.035  0.00  0.00    -0.290 OA
ATOM     31  C   LIG    1       -2.384   1.251  -0.032  0.00  0.00    +0.240 C 
ENDBRANCH  25  30
ENDBRANCH   1  26
TORSDOF 5
