REMARK  Name = ZINCpk00000iRU85.0
REMARK                            x       y       z     vdW  Elec       q    Type
REMARK                         _______ _______ _______ _____ _____    ______ ____
ROOT
ATOM      1  N   LIG    1       -4.242   0.056   1.640  0.00  0.00    -0.690 N 
ATOM      2  H   LIG    1       -3.990   0.956   1.381  0.00  0.00    +0.400 HD
ATOM      3  C   LIG    1       -4.418  -0.892   0.698  0.00  0.00    +0.520 C 
ATOM      4  O   LIG    1       -4.643  -2.038   1.026  0.00  0.00    -0.520 OA
ENDROOT
BRANCH   1   5
ATOM      5  C   LIG    1       -4.431  -0.273   3.055  0.00  0.00    +0.080 C 
ATOM      6  C   LIG    1       -3.945  -1.643   3.533  0.00  0.00    +0.030 C 
ATOM      7  C   LIG    1       -5.445  -1.367   3.396  0.00  0.00    +0.040 C 
BRANCH   5   8
ATOM      8  C   LIG    1       -4.304   0.900   4.028  0.00  0.00    +0.350 C 
BRANCH   8  10
ATOM      9  C   LIG    1       -3.653   2.905   2.806  0.00  0.00    +0.510 C 
ATOM     10  N   LIG    1       -3.287   1.834   3.537  0.00  0.00    -0.620 N 
ATOM     11  C   LIG    1       -1.873   1.603   3.841  0.00  0.00    +0.290 C 
ATOM     12  O   LIG    1       -4.829   3.148   2.632  0.00  0.00    -0.530 OA
BRANCH   9  13
ATOM     13  C   LIG    1       -2.602   3.802   2.205  0.00  0.00    +0.060 C 
BRANCH  13  14
ATOM     14  C   LIG    1       -3.277   5.001   1.535  0.00  0.00    +0.190 C 
BRANCH  14  16
ATOM     15  C   LIG    1       -1.451   6.462   0.297  0.00  0.00    +0.020 C 
ATOM     16  C   LIG    1       -2.261   5.814   0.846  0.00  0.00    -0.200 C 
ENDBRANCH  14  16
ENDBRANCH  13  14
ENDBRANCH   9  13
ENDBRANCH   8  10
ENDBRANCH   5   8
ENDBRANCH   1   5
BRANCH   3  17
ATOM     17  C   LIG    1       -4.336  -0.528  -0.762  0.00  0.00    +0.110 C 
BRANCH  17  18
ATOM     18  C   LIG    1       -4.689  -1.729  -1.600  0.00  0.00    -0.030 A 
ATOM     19  C   LIG    1       -5.984  -1.900  -2.053  0.00  0.00    +0.000 A 
ATOM     20  C   LIG    1       -6.306  -2.999  -2.826  0.00  0.00    +0.100 A 
ATOM     21  C   LIG    1       -5.335  -3.931  -3.142  0.00  0.00    -0.460 A 
ATOM     22  C   LIG    1       -4.042  -3.763  -2.684  0.00  0.00    +0.080 A 
ATOM     23  C   LIG    1       -3.719  -2.663  -1.912  0.00  0.00    +0.000 A 
BRANCH  21  24
ATOM     24  S   LIG    1       -5.747  -5.333  -4.127  0.00  0.00    +1.330 S 
ATOM     25  O   LIG    1       -4.684  -6.237  -3.856  0.00  0.00    -0.860 OA
ATOM     26  C   LIG    1       -5.587  -4.703  -5.821  0.00  0.00    -0.200 C 
ENDBRANCH  21  24
ENDBRANCH  17  18
ENDBRANCH   3  17
TORSDOF 9
