REMARK  Name = ZINCpe000000UeVh.0
REMARK                            x       y       z     vdW  Elec       q    Type
REMARK                         _______ _______ _______ _____ _____    ______ ____
ROOT
ATOM      1  C   LIG    1       -0.947   0.793  -2.252  0.00  0.00    +0.600 C 
ATOM      2  N   LIG    1       -1.667   1.184  -1.182  0.00  0.00    -0.610 N 
ATOM      3  C   LIG    1       -2.151   2.569  -1.048  0.00  0.00    +0.310 C 
ATOM      4  C   LIG    1       -3.680   2.538  -1.007  0.00  0.00    +0.270 C 
ATOM      5  N   LIG    1       -4.152   1.513  -0.086  0.00  0.00    -0.520 N 
ATOM      6  C   LIG    1       -3.435   0.456   0.305  0.00  0.00    +0.510 C 
ATOM      7  O   LIG    1       -3.963  -0.373   1.016  0.00  0.00    -0.530 OA
ATOM      8  C   LIG    1       -2.002   0.246  -0.100  0.00  0.00    +0.350 C 
ATOM      9  O   LIG    1       -0.761   1.564  -3.174  0.00  0.00    -0.530 OA
ENDROOT
BRANCH   1  13
ATOM     10  C   LIG    1        0.672  -3.104  -2.371  0.00  0.00    +0.200 A 
ATOM     11  C   LIG    1        0.024  -2.628  -3.465  0.00  0.00    -0.210 A 
ATOM     12  C   LIG    1       -0.525  -1.346  -3.450  0.00  0.00    +0.220 A 
ATOM     13  C   LIG    1       -0.387  -0.566  -2.304  0.00  0.00    -0.290 A 
ATOM     14  C   LIG    1        0.298  -1.108  -1.186  0.00  0.00    +0.530 A 
ATOM     15  O   LIG    1        0.428  -0.448  -0.170  0.00  0.00    -0.540 OA
ATOM     16  C   LIG    1       -0.107  -3.488  -4.695  0.00  0.00    +0.110 C 
ATOM     17  N   LIG    1        0.805  -2.354  -1.252  0.00  0.00    -0.590 N 
ATOM     18  H   LIG    1        1.272  -2.720  -0.484  0.00  0.00    +0.420 HD
BRANCH  10  20
ATOM     19  C   LIG    1        2.729  -4.421  -2.798  0.00  0.00    +0.050 C 
ATOM     20  C   LIG    1        1.253  -4.495  -2.403  0.00  0.00    +0.090 C 
ENDBRANCH  10  20
ENDBRANCH   1  13
BRANCH   5  21
ATOM     21  C   LIG    1       -5.454   1.647   0.431  0.00  0.00    -0.010 A 
ATOM     22  C   LIG    1       -6.367   2.583   0.067  0.00  0.00    +0.200 A 
ATOM     23  N   LIG    1       -7.490   2.367   0.798  0.00  0.00    -0.370 N 
ATOM     24  N   LIG    1       -7.256   1.267   1.633  0.00  0.00    -0.290 NA
ATOM     25  C   LIG    1       -8.729   3.147   0.727  0.00  0.00    +0.370 C 
ATOM     26  C   LIG    1       -6.042   0.832   1.410  0.00  0.00    +0.270 A 
ENDBRANCH   5  21
TORSDOF 3
