REMARK  Name = ZINCrH000004qR1C.0
REMARK                            x       y       z     vdW  Elec       q    Type
REMARK                         _______ _______ _______ _____ _____    ______ ____
ROOT
ATOM      1  C   LIG    1       -9.816   1.083   5.689  0.00  0.00    +0.160 C 
ATOM      2  C   LIG    1       -8.806   1.594   4.694  0.00  0.00    +0.220 A 
ATOM      3  C   LIG    1       -8.755   2.938   4.378  0.00  0.00    -0.110 A 
ATOM      4  C   LIG    1       -7.806   3.369   3.451  0.00  0.00    +0.380 A 
ATOM      5  N   LIG    1       -6.984   2.478   2.909  0.00  0.00    -0.590 NA
ATOM      6  C   LIG    1       -7.067   1.197   3.234  0.00  0.00    +0.530 A 
ATOM      7  N   LIG    1       -7.958   0.759   4.111  0.00  0.00    -0.540 NA
ENDROOT
BRANCH   6   8
ATOM      8  N   LIG    1       -6.198   0.294   2.647  0.00  0.00    -0.440 N 
ATOM      9  C   LIG    1       -5.286  -0.302   3.658  0.00  0.00    +0.200 C 
ATOM     10  C   LIG    1       -4.087  -0.825   2.839  0.00  0.00    +0.060 C 
ATOM     11  C   LIG    1       -4.088   0.015   1.545  0.00  0.00    +0.160 C 
ATOM     12  C   LIG    1       -5.288   0.975   1.691  0.00  0.00    +0.210 C 
BRANCH  11  13
ATOM     13  O   LIG    1       -2.871   0.756   1.433  0.00  0.00    -0.370 OA
BRANCH  13  14
ATOM     14  C   LIG    1       -2.460   1.000   0.086  0.00  0.00    +0.240 C 
BRANCH  14  15
ATOM     15  C   LIG    1       -1.173   1.784   0.087  0.00  0.00    -0.140 A 
ATOM     16  C   LIG    1       -1.196   3.170   0.088  0.00  0.00    +0.080 A 
ATOM     17  C   LIG    1        0.013   3.849   0.083  0.00  0.00    -0.040 A 
ATOM     18  C   LIG    1        1.191   3.128   0.083  0.00  0.00    +0.260 A 
ATOM     19  N   LIG    1        1.175   1.809   0.088  0.00  0.00    -0.490 NA
ATOM     20  C   LIG    1        0.044   1.130   0.093  0.00  0.00    +0.280 A 
ENDBRANCH  14  15
ENDBRANCH  13  14
ENDBRANCH  11  13
ENDBRANCH   6   8
BRANCH   4  21
ATOM     21  O   LIG    1       -7.722   4.678   3.112  0.00  0.00    -0.240 OA
BRANCH  21  22
ATOM     22  C   LIG    1       -6.856   5.026   2.124  0.00  0.00    +0.090 A 
ATOM     23  C   LIG    1       -5.654   5.645   2.440  0.00  0.00    +0.020 A 
ATOM     24  C   LIG    1       -4.773   5.993   1.434  0.00  0.00    +0.020 A 
ATOM     25  C   LIG    1       -5.093   5.736   0.114  0.00  0.00    +0.020 A 
ATOM     26  C   LIG    1       -6.291   5.125  -0.204  0.00  0.00    +0.020 A 
ATOM     27  C   LIG    1       -7.173   4.769   0.798  0.00  0.00    +0.010 A 
ENDBRANCH  21  22
ENDBRANCH   4  21
TORSDOF 6
