REMARK  Name = ZINCrD000000fMBG.0
REMARK                            x       y       z     vdW  Elec       q    Type
REMARK                         _______ _______ _______ _____ _____    ______ ____
ROOT
ATOM      1  C   LIG    1       -4.788  -0.427   0.226  0.00  0.00    +0.340 C 
ENDROOT
BRANCH   1   2
ATOM      2  C   LIG    1       -4.756   1.079   0.238  0.00  0.00    -0.170 A 
ATOM      3  C   LIG    1       -5.928   1.805   0.358  0.00  0.00    +0.130 A 
ATOM      4  C   LIG    1       -5.852   3.191   0.358  0.00  0.00    -0.060 A 
ATOM      5  C   LIG    1       -4.618   3.800   0.245  0.00  0.00    +0.310 A 
ATOM      6  N   LIG    1       -3.516   3.081   0.137  0.00  0.00    -0.530 NA
ATOM      7  C   LIG    1       -3.548   1.758   0.133  0.00  0.00    +0.330 A 
BRANCH   7   8
ATOM      8  O   LIG    1       -2.392   1.059   0.019  0.00  0.00    -0.240 OA
BRANCH   8   9
ATOM      9  C   LIG    1       -1.222   1.751   0.040  0.00  0.00    +0.130 A 
ATOM     10  C   LIG    1       -0.477   1.892  -1.122  0.00  0.00    +0.010 A 
ATOM     11  C   LIG    1        0.708   2.601  -1.100  0.00  0.00    +0.070 A 
ATOM     12  C   LIG    1        1.157   3.166   0.079  0.00  0.00    -0.010 A 
ATOM     13  C   LIG    1        0.418   3.022   1.242  0.00  0.00    +0.110 A 
ATOM     14  F   LIG    1        0.858   3.575   2.394  0.00  0.00    -0.130 F 
ATOM     15  C   LIG    1       -0.769   2.313   1.225  0.00  0.00    -0.010 A 
ENDBRANCH   8   9
ENDBRANCH   7   8
ENDBRANCH   1   2
BRANCH   1  17
ATOM     16  C   LIG    1       -4.398  -2.262   1.781  0.00  0.00    +0.600 C 
ATOM     17  N   LIG    1       -4.435  -0.934   1.554  0.00  0.00    -0.710 N 
ATOM     18  H   LIG    1       -4.227  -0.313   2.270  0.00  0.00    +0.410 HD
ATOM     19  O   LIG    1       -4.659  -3.040   0.883  0.00  0.00    -0.530 OA
BRANCH  16  22
ATOM     20  C   LIG    1       -3.455  -2.551   5.253  0.00  0.00    +0.250 A 
ATOM     21  N   LIG    1       -3.748  -1.962   4.138  0.00  0.00    -0.480 NA
ATOM     22  C   LIG    1       -4.043  -2.771   3.116  0.00  0.00    +0.020 A 
ATOM     23  C   LIG    1       -3.996  -4.088   3.401  0.00  0.00    -0.070 A 
ATOM     24  S   LIG    1       -3.547  -4.295   5.037  0.00  0.00    +0.290 S 
BRANCH  20  27
ATOM     25  C   LIG    1       -2.468  -1.927   8.823  0.00  0.00    +0.150 C 
ATOM     26  C   LIG    1       -2.832  -2.627   7.539  0.00  0.00    +0.510 C 
ATOM     27  N   LIG    1       -3.119  -1.906   6.437  0.00  0.00    -0.620 N 
ATOM     28  H   LIG    1       -3.092  -0.937   6.471  0.00  0.00    +0.430 HD
ATOM     29  O   LIG    1       -2.866  -3.838   7.497  0.00  0.00    -0.510 OA
ENDBRANCH  20  27
ENDBRANCH  16  22
ENDBRANCH   1  17
TORSDOF 6
