REMARK  Name = ZINCrH000004sDg0.0
REMARK                            x       y       z     vdW  Elec       q    Type
REMARK                         _______ _______ _______ _____ _____    ______ ____
ROOT
ATOM      1  C   LIG    1        3.012   1.468   1.397  0.00  0.00    +0.510 C 
ATOM      2  N   LIG    1        4.292   1.117   1.629  0.00  0.00    -0.610 N 
ATOM      3  C   LIG    1        5.279   0.740   0.601  0.00  0.00    +0.250 C 
ATOM      4  C   LIG    1        6.656   1.038   1.245  0.00  0.00    +0.040 C 
ATOM      5  C   LIG    1        6.404   0.630   2.721  0.00  0.00    +0.050 C 
ATOM      6  C   LIG    1        4.938   1.052   2.948  0.00  0.00    +0.170 C 
ATOM      7  C   LIG    1        4.887   2.426   3.620  0.00  0.00    +0.040 C 
ATOM      8  O   LIG    1        2.286   1.760   2.324  0.00  0.00    -0.510 OA
ENDROOT
BRANCH   1   9
ATOM      9  C   LIG    1        2.482   1.497  -0.013  0.00  0.00    +0.330 C 
BRANCH   9  15
ATOM     10  C   LIG    1        1.456   4.421   0.011  0.00  0.00    +0.170 C 
ATOM     11  C   LIG    1        0.610   3.174   0.013  0.00  0.00    +0.220 A 
ATOM     12  N   LIG    1       -0.695   3.141   0.025  0.00  0.00    -0.490 NA
ATOM     13  C   LIG    1       -1.105   1.864   0.017  0.00  0.00    +0.150 A 
ATOM     14  C   LIG    1       -0.013   1.076   0.008  0.00  0.00    +0.120 A 
ATOM     15  N   LIG    1        1.075   1.907   0.002  0.00  0.00    -0.450 N 
ENDBRANCH   9  15
ENDBRANCH   1   9
BRANCH   6  16
ATOM     16  C   LIG    1        4.230   0.015   3.823  0.00  0.00    +0.080 C 
BRANCH  16  17
ATOM     17  C   LIG    1        4.899  -0.043   5.173  0.00  0.00    -0.090 A 
ATOM     18  C   LIG    1        5.944  -0.923   5.387  0.00  0.00    +0.060 A 
ATOM     19  C   LIG    1        6.562  -0.974   6.622  0.00  0.00    -0.060 A 
ATOM     20  C   LIG    1        6.126  -0.151   7.649  0.00  0.00    +0.100 A 
ATOM     21  C   LIG    1        5.074   0.726   7.433  0.00  0.00    +0.020 A 
ATOM     22  C   LIG    1        4.463   0.778   6.196  0.00  0.00    +0.070 A 
BRANCH  20  23
ATOM     23  O   LIG    1        6.730  -0.204   8.866  0.00  0.00    -0.310 OA
BRANCH  23  24
ATOM     24  C   LIG    1        7.807  -1.131   9.017  0.00  0.00    +0.600 C 
ATOM     25  F   LIG    1        7.344  -2.428   8.770  0.00  0.00    -0.160 F 
ATOM     26  F   LIG    1        8.309  -1.054  10.320  0.00  0.00    -0.130 F 
ATOM     27  F   LIG    1        8.822  -0.817   8.107  0.00  0.00    -0.160 F 
ENDBRANCH  23  24
ENDBRANCH  20  23
ENDBRANCH  16  17
ENDBRANCH   6  16
TORSDOF 6
