REMARK  Name = ZINCpe00000VVGlt.0
REMARK                            x       y       z     vdW  Elec       q    Type
REMARK                         _______ _______ _______ _____ _____    ______ ____
ROOT
ATOM      1  C   LIG    1       -0.825   1.630  -1.196  0.00  0.00    +0.260 C 
ATOM      2  C   LIG    1       -0.013   1.086   0.008  0.00  0.00    +0.040 C 
ATOM      3  C   LIG    1       -0.798   1.615   1.227  0.00  0.00    +0.250 C 
ATOM      4  N   LIG    1       -2.171   1.894   0.768  0.00  0.00    -0.620 N 
ATOM      5  C   LIG    1       -3.166   2.391   1.529  0.00  0.00    +0.530 C 
ATOM      6  O   LIG    1       -4.262   2.583   1.045  0.00  0.00    -0.530 OA
ATOM      7  C   LIG    1       -2.275   1.541  -0.659  0.00  0.00    +0.260 C 
ENDROOT
BRANCH   1   8
ATOM      8  N   LIG    1       -0.649   0.780  -2.376  0.00  0.00    -0.570 N 
BRANCH   8   9
ATOM      9  C   LIG    1       -0.989  -0.560  -2.320  0.00  0.00    +0.600 A 
ATOM     10  N   LIG    1       -0.829  -1.313  -3.398  0.00  0.00    -0.580 NA
ATOM     11  C   LIG    1       -1.139  -2.601  -3.380  0.00  0.00    +0.240 A 
ATOM     12  C   LIG    1       -1.647  -3.158  -2.222  0.00  0.00    -0.150 A 
ATOM     13  C   LIG    1       -1.809  -2.338  -1.105  0.00  0.00    +0.400 A 
ATOM     14  C   LIG    1       -0.946  -3.448  -4.612  0.00  0.00    +0.140 C 
ATOM     15  N   LIG    1       -1.473  -1.057  -1.191  0.00  0.00    -0.620 NA
BRANCH  13  16
ATOM     16  O   LIG    1       -2.304  -2.843   0.051  0.00  0.00    -0.300 OA
ATOM     17  C   LIG    1       -2.440  -1.938   1.148  0.00  0.00    +0.260 C 
ENDBRANCH  13  16
ENDBRANCH   8   9
BRANCH   8  19
ATOM     18  C   LIG    1        1.413   1.224  -3.615  0.00  0.00    +0.010 C 
ATOM     19  C   LIG    1       -0.113   1.348  -3.615  0.00  0.00    +0.300 C 
ENDBRANCH   8  19
ENDBRANCH   1   8
BRANCH   5  20
ATOM     20  C   LIG    1       -2.918   2.708   2.982  0.00  0.00    +0.050 C 
BRANCH  20  21
ATOM     21  C   LIG    1       -4.201   3.254   3.611  0.00  0.00    +0.070 C 
BRANCH  21  22
ATOM     22  C   LIG    1       -3.949   3.576   5.085  0.00  0.00    +0.060 C 
BRANCH  22  23
ATOM     23  C   LIG    1       -5.213   4.114   5.705  0.00  0.00    +0.510 C 
ATOM     24  O   LIG    1       -6.216   4.229   5.034  0.00  0.00    -0.540 OA
ATOM     25  N   LIG    1       -5.228   4.468   7.005  0.00  0.00    -0.860 N 
ATOM     26  H   LIG    1       -6.042   4.814   7.404  0.00  0.00    +0.400 HD
ATOM     27  H   LIG    1       -4.426   4.376   7.543  0.00  0.00    +0.400 HD
ENDBRANCH  22  23
ENDBRANCH  21  22
ENDBRANCH  20  21
ENDBRANCH   5  20
TORSDOF 8
