REMARK  Name = ZINCnE000008Jd12.0
REMARK                            x       y       z     vdW  Elec       q    Type
REMARK                         _______ _______ _______ _____ _____    ______ ____
ROOT
ATOM      1  C   LIG    1       -0.188  -4.533   0.103  0.00  0.00    +0.190 A 
ATOM      2  N   LIG    1        0.603  -5.322  -0.570  0.00  0.00    -0.260 NA
ATOM      3  N   LIG    1        0.396  -6.542  -0.217  0.00  0.00    -0.270 NA
ATOM      4  C   LIG    1       -0.549  -6.575   0.694  0.00  0.00    +0.210 A 
ATOM      5  O   LIG    1       -0.936  -5.302   0.913  0.00  0.00    -0.220 OA
ENDROOT
BRANCH   4   6
ATOM      6  C   LIG    1       -1.087  -7.782   1.354  0.00  0.00    -0.060 A 
ATOM      7  C   LIG    1       -2.095  -7.663   2.314  0.00  0.00    +0.100 A 
ATOM      8  C   LIG    1       -2.598  -8.792   2.924  0.00  0.00    -0.070 A 
ATOM      9  C   LIG    1       -2.097 -10.044   2.594  0.00  0.00    +0.150 A 
ATOM     10  C   LIG    1       -1.091 -10.166   1.644  0.00  0.00    -0.010 A 
ATOM     11  C   LIG    1       -0.587  -9.043   1.025  0.00  0.00    +0.120 A 
BRANCH   9  12
ATOM     12  O   LIG    1       -2.592 -11.154   3.202  0.00  0.00    -0.310 OA
ATOM     13  C   LIG    1       -3.625 -10.957   4.170  0.00  0.00    +0.240 C 
ENDBRANCH   9  12
ENDBRANCH   4   6
BRANCH   1  14
ATOM     14  C   LIG    1       -0.256  -3.032  -0.012  0.00  0.00    +0.130 C 
ATOM     15  C   LIG    1       -0.970  -2.652  -1.310  0.00  0.00    +0.090 C 
BRANCH  14  16
ATOM     16  S   LIG    1        1.425  -2.350  -0.025  0.00  0.00    +0.020 S 
BRANCH  16  22
ATOM     17  C   LIG    1        0.331   4.237   0.021  0.00  0.00    +0.160 C 
ATOM     18  N   LIG    1        1.442   3.282   0.005  0.00  0.00    -0.640 NA
ATOM     19  C   LIG    1        1.199   1.993   0.001  0.00  0.00    +0.330 A 
ATOM     20  N   LIG    1       -0.017   1.373   0.010  0.00  0.00    -0.510 NA
ATOM     21  N   LIG    1        0.002  -0.004   0.002  0.00  0.00    -0.250 NA
ATOM     22  C   LIG    1        1.147  -0.610  -0.012  0.00  0.00    -0.080 A 
ATOM     23  S   LIG    1        2.376   0.666  -0.017  0.00  0.00    -0.090 S 
ENDBRANCH  16  22
ENDBRANCH  14  16
ENDBRANCH   1  14
TORSDOF 5
