REMARK  Name = ZINCqH0000008Tkg.0
REMARK                            x       y       z     vdW  Elec       q    Type
REMARK                         _______ _______ _______ _____ _____    ______ ____
ROOT
ATOM      1  C   LIG    1       -0.013   1.086   0.008  0.00  0.00    +0.120 C 
ATOM      2  C   LIG    1       -0.729   1.579   1.267  0.00  0.00    +0.210 C 
ATOM      3  N   LIG    1       -0.026   1.119   2.477  0.00  0.00    -0.710 N 
ATOM      4  H   LIG    1        0.121   0.199   2.746  0.00  0.00    +0.450 HD
ATOM      5  C   LIG    1        0.371   2.223   3.135  0.00  0.00    +0.710 C 
ATOM      6  N   LIG    1        0.015   3.349   2.506  0.00  0.00    -0.570 N 
ATOM      7  O   LIG    1        0.984   2.200   4.184  0.00  0.00    -0.530 OA
ATOM      8  C   LIG    1       -0.654   3.090   1.365  0.00  0.00    +0.540 C 
ATOM      9  O   LIG    1       -1.103   3.898   0.580  0.00  0.00    -0.440 OA
ENDROOT
BRANCH   2  10
ATOM     10  C   LIG    1       -2.162   1.114   1.276  0.00  0.00    +0.020 A 
ATOM     11  C   LIG    1       -2.589  -0.046   1.794  0.00  0.00    -0.010 A 
ATOM     12  C   LIG    1       -4.041  -0.078   1.584  0.00  0.00    -0.130 A 
ATOM     13  C   LIG    1       -5.049  -0.991   1.889  0.00  0.00    +0.060 A 
ATOM     14  C   LIG    1       -6.351  -0.709   1.538  0.00  0.00    +0.000 A 
ATOM     15  C   LIG    1       -6.659   0.476   0.885  0.00  0.00    +0.050 A 
ATOM     16  C   LIG    1       -5.671   1.387   0.578  0.00  0.00    +0.030 A 
ATOM     17  C   LIG    1       -4.352   1.122   0.923  0.00  0.00    +0.060 A 
ATOM     18  O   LIG    1       -3.197   1.800   0.761  0.00  0.00    -0.180 OA
ENDBRANCH   2  10
BRANCH   6  19
ATOM     19  C   LIG    1        0.318   4.696   2.995  0.00  0.00    +0.340 C 
BRANCH  19  20
ATOM     20  C   LIG    1        1.647   5.143   2.446  0.00  0.00    +0.420 C 
ATOM     21  O   LIG    1        2.281   4.408   1.716  0.00  0.00    -0.430 OA
BRANCH  20  22
ATOM     22  C   LIG    1        2.156   6.416   2.779  0.00  0.00    -0.310 A 
ATOM     23  C   LIG    1        3.350   6.936   2.345  0.00  0.00    +0.140 A 
ATOM     24  C   LIG    1        3.598   8.197   2.823  0.00  0.00    +0.020 A 
ATOM     25  C   LIG    1        2.645   8.700   3.623  0.00  0.00    -0.150 A 
ATOM     26 CL   LIG    1        2.709  10.270   4.361  0.00  0.00    +0.000 Cl
ATOM     27  S   LIG    1        1.359   7.595   3.813  0.00  0.00    +0.280 S 
ENDBRANCH  20  22
ENDBRANCH  19  20
ENDBRANCH   6  19
TORSDOF 4
