REMARK  Name = ZINCpk00001AZikB.0
REMARK                            x       y       z     vdW  Elec       q    Type
REMARK                         _______ _______ _______ _____ _____    ______ ____
ROOT
ATOM      1  C   LIG    1        2.133   8.818   0.268  0.00  0.00    +0.080 C 
ATOM      2  C   LIG    1        2.535   7.359   0.043  0.00  0.00    +0.100 C 
ATOM      3  C   LIG    1        3.844   7.306  -0.752  0.00  0.00    +0.280 C 
ATOM      4  N   LIG    1        4.141   5.903  -1.079  0.00  0.00    -0.610 N 
ATOM      5  C   LIG    1        3.086   5.110  -1.734  0.00  0.00    +0.270 C 
ATOM      6  C   LIG    1        1.786   5.318  -0.958  0.00  0.00    +0.080 C 
ATOM      7  C   LIG    1        1.632   4.397   0.253  0.00  0.00    +0.140 C 
ATOM      8  N   LIG    1        0.212   4.243  -0.116  0.00  0.00    -0.460 NA
ATOM      9  C   LIG    1        0.599   4.529  -1.512  0.00  0.00    +0.210 C 
ATOM     10  C   LIG    1        5.340   5.360  -0.788  0.00  0.00    +0.600 C 
ATOM     11  O   LIG    1        6.154   5.993  -0.145  0.00  0.00    -0.540 OA
ATOM     12  C   LIG    1        2.731   6.670   1.395  0.00  0.00    +0.030 C 
ATOM     13  O   LIG    1        1.507   6.688  -0.691  0.00  0.00    -0.330 OA
ENDROOT
BRANCH  10  14
ATOM     14  C   LIG    1        5.664   3.998  -1.251  0.00  0.00    -0.300 A 
ATOM     15  C   LIG    1        6.579   3.135  -0.681  0.00  0.00    +0.330 A 
ATOM     16  N   LIG    1        6.567   2.003  -1.403  0.00  0.00    -0.460 N 
ATOM     17  H   LIG    1        7.110   1.217  -1.234  0.00  0.00    +0.450 HD
ATOM     18  N   LIG    1        5.643   2.150  -2.444  0.00  0.00    -0.290 NA
ATOM     19  C   LIG    1        5.100   3.333  -2.363  0.00  0.00    +0.270 A 
ENDBRANCH  10  14
BRANCH   8  20
ATOM     20  C   LIG    1       -0.223   2.848   0.034  0.00  0.00    +0.160 C 
BRANCH  20  21
ATOM     21  C   LIG    1       -1.744   2.769  -0.114  0.00  0.00    +0.140 C 
BRANCH  21  22
ATOM     22  C   LIG    1       -2.190   1.338   0.040  0.00  0.00    +0.070 A 
ATOM     23  C   LIG    1       -3.107   0.959   0.935  0.00  0.00    -0.070 A 
ATOM     24  S   LIG    1       -3.331  -0.782   0.778  0.00  0.00    +0.120 S 
ATOM     25  C   LIG    1       -2.163  -0.828  -0.470  0.00  0.00    +0.220 A 
ATOM     26  N   LIG    1       -1.704   0.357  -0.694  0.00  0.00    -0.470 NA
ENDBRANCH  21  22
ENDBRANCH  20  21
ENDBRANCH   8  20
TORSDOF 4
