REMARK  Name = ZINCnE000001KzdS.1
REMARK                            x       y       z     vdW  Elec       q    Type
REMARK                         _______ _______ _______ _____ _____    ______ ____
ROOT
ATOM      1  C   LIG    1       -1.707   5.324   0.045  0.00  0.00    +0.100 A 
ATOM      2  C   LIG    1       -0.353   5.222   0.032  0.00  0.00    -0.030 A 
ATOM      3  C   LIG    1       -0.025   3.844   0.022  0.00  0.00    -0.100 A 
ATOM      4  C   LIG    1        1.188   3.145   0.007  0.00  0.00    +0.050 A 
ATOM      5  C   LIG    1        1.185   1.780   0.000  0.00  0.00    -0.110 A 
ATOM      6  C   LIG    1       -0.013   1.076   0.008  0.00  0.00    +0.010 A 
ATOM      7  C   LIG    1       -1.218   1.742   0.017  0.00  0.00    -0.010 A 
ATOM      8  C   LIG    1       -1.240   3.133   0.030  0.00  0.00    +0.090 A 
ATOM      9  N   LIG    1       -2.258   4.059   0.044  0.00  0.00    -0.560 N 
ATOM     10  H   LIG    1       -3.206   3.855   0.051  0.00  0.00    +0.430 HD
ENDROOT
BRANCH   5  11
ATOM     11  C   LIG    1        2.492   1.030  -0.016  0.00  0.00    -0.020 C 
ATOM     12  C   LIG    1        3.305   1.395   1.227  0.00  0.00    +0.030 C 
ATOM     13  C   LIG    1        3.281   1.408  -1.271  0.00  0.00    +0.030 C 
ATOM     14  C   LIG    1        2.216  -0.475  -0.022  0.00  0.00    +0.030 C 
ENDBRANCH   5  11
BRANCH   1  15
ATOM     15  C   LIG    1       -2.468   6.587   0.059  0.00  0.00    +0.510 C 
ATOM     16  O   LIG    1       -1.879   7.654   0.060  0.00  0.00    -0.640 OA
BRANCH  15  23
ATOM     17  C   LIG    1       -5.902   7.829   0.093  0.00  0.00    -0.110 A 
ATOM     18  C   LIG    1       -6.205   9.146   0.108  0.00  0.00    +0.130 A 
ATOM     19  N   LIG    1       -5.041   9.869   0.101  0.00  0.00    -0.380 NA
ATOM     20  N   LIG    1       -3.966   8.970   0.086  0.00  0.00    -0.480 N 
ATOM     21  H   LIG    1       -3.024   9.200   0.079  0.00  0.00    +0.440 HD
ATOM     22  C   LIG    1       -4.494   7.699   0.085  0.00  0.00    +0.370 A 
ATOM     23  N   LIG    1       -3.807   6.561   0.072  0.00  0.00    -0.680 NA
BRANCH  17  25
ATOM     24  C   LIG    1       -8.184   7.152   0.101  0.00  0.00    +0.200 C 
ATOM     25  O   LIG    1       -6.798   6.803   0.090  0.00  0.00    -0.300 OA
ENDBRANCH  17  25
ENDBRANCH  15  23
ENDBRANCH   1  15
TORSDOF 4
