REMARK  Name = ZINCpe000000T4QH.0
REMARK                            x       y       z     vdW  Elec       q    Type
REMARK                         _______ _______ _______ _____ _____    ______ ____
ROOT
ATOM      1  C   LIG    1       -1.260   5.109  -2.465  0.00  0.00    +0.270 C 
ENDROOT
BRANCH   1   3
ATOM      2  C   LIG    1       -1.861   6.960  -3.932  0.00  0.00    +0.590 C 
ATOM      3  N   LIG    1       -1.897   5.637  -3.674  0.00  0.00    -0.730 N 
ATOM      4  H   LIG    1       -2.344   5.035  -4.289  0.00  0.00    +0.400 HD
ATOM      5  O   LIG    1       -1.300   7.715  -3.161  0.00  0.00    -0.510 OA
BRANCH   2  10
ATOM      6  C   LIG    1       -3.259   8.808  -6.752  0.00  0.00    +0.040 A 
ATOM      7  N   LIG    1       -3.591   7.570  -7.017  0.00  0.00    -0.260 NA
ATOM      8  N   LIG    1       -3.160   6.774  -6.105  0.00  0.00    -0.380 N 
ATOM      9  H   LIG    1       -3.285   5.812  -6.098  0.00  0.00    +0.440 HD
ATOM     10  C   LIG    1       -2.501   7.490  -5.146  0.00  0.00    -0.040 A 
ATOM     11  C   LIG    1       -2.550   8.813  -5.549  0.00  0.00    +0.030 A 
BRANCH   6  13
ATOM     12  C   LIG    1       -4.866  10.668  -7.075  0.00  0.00    +0.040 C 
ATOM     13  C   LIG    1       -3.586  10.013  -7.596  0.00  0.00    +0.080 C 
ATOM     14  C   LIG    1       -2.432  11.016  -7.519  0.00  0.00    +0.030 C 
ENDBRANCH   6  13
ENDBRANCH   2  10
ENDBRANCH   1   3
BRANCH   1  15
ATOM     15  C   LIG    1       -1.445   3.591  -2.413  0.00  0.00    +0.180 C 
BRANCH  15  16
ATOM     16  N   LIG    1       -0.806   3.062  -1.200  0.00  0.00    -0.540 NA
ATOM     17  C   LIG    1       -0.754   1.593  -1.231  0.00  0.00    +0.200 C 
ATOM     18  C   LIG    1       -0.013   1.086   0.008  0.00  0.00    +0.220 C 
ATOM     19  N   LIG    1       -0.701   1.560   1.216  0.00  0.00    -0.460 N 
ATOM     20  C   LIG    1       -0.754   3.029   1.247  0.00  0.00    +0.230 C 
ATOM     21  C   LIG    1       -1.495   3.536   0.008  0.00  0.00    +0.190 C 
BRANCH  19  22
ATOM     22  C   LIG    1       -0.099   1.061   2.358  0.00  0.00    +0.490 A 
ATOM     23  N   LIG    1        0.952   0.264   2.240  0.00  0.00    -0.550 NA
ATOM     24  C   LIG    1        1.554  -0.225   3.311  0.00  0.00    +0.340 A 
ATOM     25  C   LIG    1        1.065   0.096   4.568  0.00  0.00    -0.110 A 
ATOM     26  C   LIG    1       -0.040   0.928   4.655  0.00  0.00    +0.350 A 
ATOM     27  N   LIG    1       -0.592   1.388   3.545  0.00  0.00    -0.530 NA
ENDBRANCH  19  22
ENDBRANCH  15  16
ENDBRANCH   1  15
TORSDOF 6
