REMARK  Name = ZINCzw00000008rB.0
REMARK                            x       y       z     vdW  Elec       q    Type
REMARK                         _______ _______ _______ _____ _____    ______ ____
ROOT
ATOM      1  C   LIG    1       -1.307   1.985  -2.557  0.00  0.00    +0.520 C 
ATOM      2  N   LIG    1       -1.483   2.051  -1.222  0.00  0.00    -0.740 N 
ATOM      3  H   LIG    1       -2.269   2.487  -0.858  0.00  0.00    +0.400 HD
ATOM      4  O   LIG    1       -0.324   1.441  -3.013  0.00  0.00    -0.520 OA
ENDROOT
BRANCH   1   5
ATOM      5  C   LIG    1       -2.332   2.588  -3.483  0.00  0.00    +0.050 C 
BRANCH   5   6
ATOM      6  C   LIG    1       -1.895   2.377  -4.934  0.00  0.00    +0.140 C 
BRANCH   6   9
ATOM      7  C   LIG    1       -1.556   5.058  -5.938  0.00  0.00    +0.140 C 
ATOM      8  C   LIG    1       -2.763   4.249  -6.337  0.00  0.00    +0.240 A 
ATOM      9  C   LIG    1       -2.920   2.980  -5.860  0.00  0.00    -0.330 A 
ATOM     10  C   LIG    1       -4.057   2.246  -6.242  0.00  0.00    +0.550 A 
ATOM     11  N   LIG    1       -4.952   2.822  -7.073  0.00  0.00    -0.660 N 
ATOM     12  H   LIG    1       -5.744   2.334  -7.349  0.00  0.00    +0.410 HD
ATOM     13  C   LIG    1       -4.739   4.089  -7.521  0.00  0.00    +0.640 A 
ATOM     14  O   LIG    1       -4.232   1.111  -5.830  0.00  0.00    -0.540 OA
ATOM     15  N   LIG    1       -3.671   4.770  -7.159  0.00  0.00    -0.590 NA
BRANCH  13  16
ATOM     16  N   LIG    1       -5.651   4.666  -8.364  0.00  0.00    -0.590 N 
ATOM     17  C   LIG    1       -6.915   3.987  -8.692  0.00  0.00    +0.260 C 
ATOM     18  C   LIG    1       -8.066   4.979  -8.460  0.00  0.00    +0.230 C 
ATOM     19  O   LIG    1       -7.793   6.189  -9.170  0.00  0.00    -0.370 OA
ATOM     20  C   LIG    1       -6.617   6.873  -8.731  0.00  0.00    +0.220 C 
ATOM     21  C   LIG    1       -5.394   5.981  -8.972  0.00  0.00    +0.300 C 
ENDBRANCH  13  16
ENDBRANCH   6   9
ENDBRANCH   5   6
ENDBRANCH   1   5
BRANCH   2  22
ATOM     22  C   LIG    1       -0.486   1.466  -0.322  0.00  0.00    +0.320 C 
BRANCH  22  23
ATOM     23  C   LIG    1       -0.917   1.673   1.107  0.00  0.00    -0.080 A 
ATOM     24  C   LIG    1       -0.338   2.674   1.865  0.00  0.00    +0.060 A 
ATOM     25  C   LIG    1       -0.736   2.868   3.174  0.00  0.00    +0.040 A 
ATOM     26  C   LIG    1       -1.706   2.054   3.729  0.00  0.00    +0.050 A 
ATOM     27  C   LIG    1       -2.281   1.050   2.973  0.00  0.00    -0.020 A 
ATOM     28  C   LIG    1       -1.887   0.859   1.662  0.00  0.00    -0.120 A 
BRANCH  28  29
ATOM     29  C   LIG    1       -2.514  -0.235   0.838  0.00  0.00    +0.320 C 
BRANCH  29  30
ATOM     30  N   LIG    1       -3.347  -1.083   1.702  0.00  0.00    -0.380 N 
ATOM     31  C   LIG    1       -2.491  -1.791   2.662  0.00  0.00    +0.250 C 
ATOM     32  C   LIG    1       -3.360  -2.611   3.618  0.00  0.00    -0.020 C 
ATOM     33  C   LIG    1       -4.173  -3.628   2.811  0.00  0.00    +0.050 C 
ATOM     34  C   LIG    1       -5.006  -2.885   1.762  0.00  0.00    +0.010 C 
ATOM     35  C   LIG    1       -6.005  -1.962   2.462  0.00  0.00    +0.040 C 
ATOM     36  C   LIG    1       -2.466  -3.348   4.616  0.00  0.00    +0.070 C 
ATOM     37  C   LIG    1       -4.075  -2.053   0.876  0.00  0.00    +0.260 C 
ATOM     38  H   LIG    1       -4.006  -0.506   2.202  0.00  0.00    +0.420 HD
ENDBRANCH  29  30
ENDBRANCH  28  29
ENDBRANCH  22  23
ENDBRANCH   2  22
TORSDOF 8
