REMARK  Name = ZINCrg00000fSC0U.1
REMARK                            x       y       z     vdW  Elec       q    Type
REMARK                         _______ _______ _______ _____ _____    ______ ____
ROOT
ATOM      1  O   LIG    1       -0.085   8.020   1.259  0.00  0.00    -0.580 OA
ATOM      2  C   LIG    1       -1.042   7.309   1.496  0.00  0.00    +0.710 C 
ATOM      3  N   LIG    1       -1.131   6.088   0.931  0.00  0.00    -0.740 N 
ATOM      4  H   LIG    1       -1.894   5.521   1.120  0.00  0.00    +0.400 HD
ATOM      5  N   LIG    1       -2.014   7.740   2.323  0.00  0.00    -0.730 N 
ATOM      6  H   LIG    1       -2.777   7.173   2.513  0.00  0.00    +0.410 HD
ENDROOT
BRANCH   3   7
ATOM      7  C   LIG    1       -0.074   5.619   0.031  0.00  0.00    +0.380 C 
BRANCH   7   8
ATOM      8  C   LIG    1       -0.054   4.112   0.023  0.00  0.00    -0.090 A 
ATOM      9  C   LIG    1        1.153   3.438   0.009  0.00  0.00    +0.080 A 
ATOM     10  C   LIG    1        1.173   2.056   0.002  0.00  0.00    -0.010 A 
ATOM     11  C   LIG    1       -0.016   1.347   0.009  0.00  0.00    +0.100 A 
ATOM     12  C   LIG    1       -1.224   2.023   0.019  0.00  0.00    -0.010 A 
ATOM     13  F   LIG    1        0.002  -0.004   0.002  0.00  0.00    -0.140 F 
ATOM     14  C   LIG    1       -1.242   3.405   0.031  0.00  0.00    +0.050 A 
ENDBRANCH   7   8
BRANCH   7  15
ATOM     15  C   LIG    1       -0.340   6.125  -1.363  0.00  0.00    +0.120 A 
ATOM     16  C   LIG    1       -1.399   6.984  -1.588  0.00  0.00    -0.020 A 
ATOM     17  C   LIG    1       -1.632   7.448  -2.873  0.00  0.00    +0.060 A 
ATOM     18  C   LIG    1       -0.794   7.019  -3.892  0.00  0.00    -0.030 A 
ATOM     19  C   LIG    1        0.241   6.154  -3.592  0.00  0.00    +0.260 A 
ATOM     20  N   LIG    1        0.436   5.738  -2.357  0.00  0.00    -0.470 NA
ENDBRANCH   7  15
ENDBRANCH   3   7
BRANCH   5  21
ATOM     21  C   LIG    1       -1.917   9.067   2.938  0.00  0.00    +0.320 C 
BRANCH  21  22
ATOM     22  C   LIG    1       -3.122   9.305   3.812  0.00  0.00    +0.510 C 
ATOM     23  N   LIG    1       -3.249  10.467   4.482  0.00  0.00    -0.610 N 
ATOM     24  C   LIG    1       -2.221  11.514   4.380  0.00  0.00    +0.270 C 
ATOM     25  C   LIG    1       -1.813  11.942   5.788  0.00  0.00    +0.170 C 
ATOM     26  N   LIG    1       -3.011  12.319   6.550  0.00  0.00    -0.690 NA
ATOM     27  H   LIG    1       -2.761  12.716   7.444  0.00  0.00    +0.350 HD
ATOM     28  C   LIG    1       -3.918  11.177   6.716  0.00  0.00    +0.170 C 
ATOM     29  C   LIG    1       -4.416  10.720   5.341  0.00  0.00    +0.290 C 
ATOM     30  O   LIG    1       -3.976   8.450   3.912  0.00  0.00    -0.540 OA
ENDBRANCH  21  22
ENDBRANCH   5  21
TORSDOF 5
