REMARK  Name = ZINCtV000002NTql.0
REMARK                            x       y       z     vdW  Elec       q    Type
REMARK                         _______ _______ _______ _____ _____    ______ ____
ROOT
ATOM      1  O   LIG    1       -4.301   8.196  -3.524  0.00  0.00    -0.510 OA
ATOM      2  C   LIG    1       -3.191   7.703  -3.488  0.00  0.00    +0.560 C 
ATOM      3  N   LIG    1       -2.184   8.259  -4.191  0.00  0.00    -0.660 N 
ATOM      4  H   LIG    1       -1.281   7.915  -4.100  0.00  0.00    +0.420 HD
ENDROOT
BRANCH   2   5
ATOM      5  C   LIG    1       -2.945   6.494  -2.674  0.00  0.00    -0.120 A 
ATOM      6  C   LIG    1       -3.985   5.916  -1.945  0.00  0.00    +0.090 A 
ATOM      7  C   LIG    1       -3.749   4.787  -1.188  0.00  0.00    +0.040 A 
ATOM      8  C   LIG    1       -2.484   4.228  -1.150  0.00  0.00    -0.040 A 
ATOM      9  C   LIG    1       -1.447   4.799  -1.866  0.00  0.00    +0.060 A 
ATOM     10  C   LIG    1       -1.671   5.925  -2.631  0.00  0.00    +0.040 A 
BRANCH   8  11
ATOM     11  C   LIG    1       -2.233   2.995  -0.321  0.00  0.00    +0.160 C 
ATOM     12  S   LIG    1       -1.646   1.615  -1.368  0.00  0.00    -0.230 S 
ATOM     13  C   LIG    1       -0.430   0.808  -0.288  0.00  0.00    +0.130 C 
ATOM     14  C   LIG    1       -0.379   1.498   1.080  0.00  0.00    +0.140 C 
ATOM     15  S   LIG    1       -0.818   3.254   0.822  0.00  0.00    -0.230 S 
ENDBRANCH   8  11
ENDBRANCH   2   5
BRANCH   3  16
ATOM     16  C   LIG    1       -2.441   9.333  -5.052  0.00  0.00    +0.130 A 
ATOM     17  C   LIG    1       -3.707   9.506  -5.590  0.00  0.00    +0.100 A 
ATOM     18  C   LIG    1       -3.958  10.568  -6.440  0.00  0.00    -0.190 A 
ATOM     19  C   LIG    1       -2.950  11.459  -6.756  0.00  0.00    +0.080 A 
ATOM     20  C   LIG    1       -1.684  11.294  -6.225  0.00  0.00    +0.000 A 
ATOM     21  C   LIG    1       -1.424  10.236  -5.367  0.00  0.00    +0.110 A 
BRANCH  21  22
ATOM     22  N   LIG    1       -0.146  10.070  -4.824  0.00  0.00    -0.470 N 
ATOM     23  C   LIG    1        0.726  11.228  -5.152  0.00  0.00    +0.190 C 
ATOM     24  C   LIG    1        1.845  11.142  -4.084  0.00  0.00    +0.040 C 
ATOM     25  C   LIG    1        1.083  10.680  -2.821  0.00  0.00    +0.020 C 
ATOM     26  C   LIG    1       -0.201  10.012  -3.347  0.00  0.00    +0.180 C 
ENDBRANCH  21  22
BRANCH  18  27
ATOM     27  C   LIG    1       -5.335  10.753  -7.023  0.00  0.00    +0.510 C 
ATOM     28  F   LIG    1       -5.954   9.506  -7.165  0.00  0.00    -0.180 F 
ATOM     29  F   LIG    1       -5.232  11.367  -8.276  0.00  0.00    -0.180 F 
ATOM     30  F   LIG    1       -6.098  11.558  -6.170  0.00  0.00    -0.180 F 
ENDBRANCH  18  27
ENDBRANCH   3  16
TORSDOF 5
