REMARK  Name = ZINCrg000015qmFK.0
REMARK                            x       y       z     vdW  Elec       q    Type
REMARK                         _______ _______ _______ _____ _____    ______ ____
ROOT
ATOM      1  N   LIG    1        0.611  -1.133  -0.153  0.00  0.00    -0.760 N 
ATOM      2  H   LIG    1        0.003  -1.565  -0.773  0.00  0.00    +0.400 HD
ATOM      3  C   LIG    1        1.919  -1.456  -0.157  0.00  0.00    +0.710 C 
ATOM      4  N   LIG    1        2.365  -2.451  -0.950  0.00  0.00    -0.620 N 
ATOM      5  C   LIG    1        1.457  -3.121  -1.891  0.00  0.00    +0.240 C 
ATOM      6  C   LIG    1        2.065  -3.031  -3.300  0.00  0.00    +0.280 C 
ATOM      7  N   LIG    1        3.467  -3.468  -3.235  0.00  0.00    -0.610 N 
ATOM      8  C   LIG    1        4.373  -2.801  -2.290  0.00  0.00    +0.250 C 
ATOM      9  C   LIG    1        3.912  -4.464  -4.027  0.00  0.00    +0.460 C 
ATOM     10  O   LIG    1        5.028  -4.913  -3.867  0.00  0.00    -0.530 OA
ATOM     11  C   LIG    1        3.767  -2.888  -0.884  0.00  0.00    +0.300 C 
ATOM     12  O   LIG    1        2.698  -0.850   0.553  0.00  0.00    -0.580 OA
ENDROOT
BRANCH   9  13
ATOM     13  C   LIG    1        3.030  -5.015  -5.104  0.00  0.00    +0.500 C 
ATOM     14  O   LIG    1        1.952  -4.495  -5.335  0.00  0.00    -0.660 OA
ATOM     15  O   LIG    1        3.391  -5.986  -5.750  0.00  0.00    -0.630 OA
ENDBRANCH   9  13
BRANCH   1  16
ATOM     16  C   LIG    1        0.108  -0.129   0.789  0.00  0.00    +0.310 C 
BRANCH  16  17
ATOM     17  C   LIG    1       -0.273  -0.801   2.083  0.00  0.00    -0.120 A 
ATOM     18  C   LIG    1       -0.914  -2.026   2.063  0.00  0.00    +0.020 A 
ATOM     19  C   LIG    1       -1.260  -2.644   3.251  0.00  0.00    +0.010 A 
ATOM     20  C   LIG    1       -0.972  -2.033   4.457  0.00  0.00    +0.030 A 
ATOM     21  C   LIG    1       -0.336  -0.806   4.476  0.00  0.00    +0.010 A 
ATOM     22  C   LIG    1        0.014  -0.190   3.289  0.00  0.00    +0.020 A 
ENDBRANCH  16  17
BRANCH  16  23
ATOM     23  C   LIG    1       -1.121   0.560   0.191  0.00  0.00    +0.270 C 
BRANCH  23  24
ATOM     24  N   LIG    1       -0.755   1.195  -1.082  0.00  0.00    -0.380 N 
ATOM     25  H   LIG    1       -1.343   2.000  -1.238  0.00  0.00    +0.420 HD
BRANCH  24  27
ATOM     26  C   LIG    1        0.804   2.759  -0.022  0.00  0.00    +0.090 C 
ATOM     27  C   LIG    1        0.651   1.619  -1.031  0.00  0.00    +0.240 C 
ENDBRANCH  24  27
BRANCH  24  28
ATOM     28  C   LIG    1       -0.938   0.235  -2.179  0.00  0.00    +0.240 C 
ATOM     29  C   LIG    1       -2.430  -0.050  -2.363  0.00  0.00    +0.080 C 
ENDBRANCH  24  28
ENDBRANCH  23  24
ENDBRANCH  16  23
ENDBRANCH   1  16
TORSDOF 7
