REMARK  Name = ZINCrH000004pDBT.0
REMARK                            x       y       z     vdW  Elec       q    Type
REMARK                         _______ _______ _______ _____ _____    ______ ____
ROOT
ATOM      1  C   LIG    1        7.335  -3.584   0.473  0.00  0.00    +0.500 C 
ATOM      2  N   LIG    1        6.247  -4.355   0.283  0.00  0.00    -0.670 N 
ATOM      3  H   LIG    1        6.341  -5.318   0.212  0.00  0.00    +0.410 HD
ATOM      4  O   LIG    1        7.228  -2.376   0.488  0.00  0.00    -0.510 OA
ENDROOT
BRANCH   2   5
ATOM      5  C   LIG    1        4.979  -3.767   0.187  0.00  0.00    +0.110 A 
ATOM      6  C   LIG    1        4.833  -2.529  -0.426  0.00  0.00    +0.070 A 
ATOM      7  C   LIG    1        3.583  -1.949  -0.520  0.00  0.00    +0.020 A 
ATOM      8  C   LIG    1        2.474  -2.603  -0.003  0.00  0.00    +0.110 A 
ATOM      9  C   LIG    1        2.620  -3.837   0.614  0.00  0.00    -0.040 A 
ATOM     10  C   LIG    1        3.869  -4.420   0.704  0.00  0.00    +0.030 A 
BRANCH   8  11
ATOM     11  O   LIG    1        1.244  -2.031  -0.096  0.00  0.00    -0.250 OA
BRANCH  11  12
ATOM     12  C   LIG    1        0.206  -2.647   0.528  0.00  0.00    +0.100 A 
ATOM     13  C   LIG    1        0.171  -2.717   1.913  0.00  0.00    +0.000 A 
ATOM     14  C   LIG    1       -0.886  -3.344   2.546  0.00  0.00    +0.050 A 
ATOM     15  C   LIG    1       -1.908  -3.901   1.800  0.00  0.00    +0.030 A 
ATOM     16  C   LIG    1       -1.876  -3.832   0.418  0.00  0.00    -0.020 A 
ATOM     17 CL   LIG    1       -3.164  -4.526  -0.515  0.00  0.00    -0.060 Cl
ATOM     18  C   LIG    1       -0.821  -3.206  -0.219  0.00  0.00    +0.020 A 
ENDBRANCH  11  12
ENDBRANCH   8  11
ENDBRANCH   2   5
BRANCH   1  19
ATOM     19  C   LIG    1        8.686  -4.223   0.668  0.00  0.00    +0.340 C 
BRANCH  19  23
ATOM     20  C   LIG    1       10.592  -0.279   2.397  0.00  0.00    +0.080 C 
ATOM     21  C   LIG    1       11.093  -1.635   1.894  0.00  0.00    +0.010 C 
ATOM     22  C   LIG    1       10.023  -2.692   2.058  0.00  0.00    +0.540 C 
ATOM     23  N   LIG    1        9.697  -3.179   0.854  0.00  0.00    -0.560 N 
ATOM     24  C   LIG    1       10.376  -2.638  -0.165  0.00  0.00    +0.540 C 
ATOM     25  O   LIG    1       10.243  -2.934  -1.333  0.00  0.00    -0.470 OA
ATOM     26  O   LIG    1        9.538  -3.043   3.112  0.00  0.00    -0.470 OA
ATOM     27  C   LIG    1       11.332  -1.595   0.371  0.00  0.00    +0.010 C 
ATOM     28  C   LIG    1       12.777  -1.976   0.042  0.00  0.00    +0.070 C 
ENDBRANCH  19  23
ENDBRANCH   1  19
TORSDOF 5
