REMARK  Name = ZINCpk00000ebNTa.0
REMARK                            x       y       z     vdW  Elec       q    Type
REMARK                         _______ _______ _______ _____ _____    ______ ____
ROOT
ATOM      1  N   LIG    1        6.058   1.487   1.357  0.00  0.00    -0.990 NA
ATOM      2  C   LIG    1        6.220   0.030   1.477  0.00  0.00    +0.260 C 
ATOM      3  C   LIG    1        5.046  -0.525   2.290  0.00  0.00    +0.220 C 
ATOM      4  N   LIG    1        4.953   0.197   3.566  0.00  0.00    -0.680 NA
ATOM      5  H   LIG    1        5.793   0.076   4.111  0.00  0.00    +0.350 HD
ATOM      6  C   LIG    1        4.663   1.621   3.352  0.00  0.00    +0.220 C 
ATOM      7  C   LIG    1        5.828   2.265   2.583  0.00  0.00    +0.260 C 
ENDROOT
BRANCH   7   8
ATOM      8  C   LIG    1        5.476   3.685   2.223  0.00  0.00    -0.070 A 
ATOM      9  C   LIG    1        4.285   3.959   1.578  0.00  0.00    -0.010 A 
ATOM     10  C   LIG    1        3.957   5.262   1.252  0.00  0.00    +0.030 A 
ATOM     11  C   LIG    1        4.826   6.291   1.561  0.00  0.00    +0.000 A 
ATOM     12  C   LIG    1        6.022   6.018   2.203  0.00  0.00    +0.110 A 
ATOM     13  F   LIG    1        6.873   7.023   2.505  0.00  0.00    -0.140 F 
ATOM     14  C   LIG    1        6.346   4.713   2.534  0.00  0.00    +0.040 A 
ENDBRANCH   7   8
BRANCH   1  16
ATOM     15  O   LIG    1        6.860   1.355  -0.974  0.00  0.00    -0.950 OA
ATOM     16  S   LIG    1        6.138   2.232  -0.120  0.00  0.00    +2.710 S 
ATOM     17  O   LIG    1        6.532   3.574   0.128  0.00  0.00    -0.940 OA
BRANCH  16  18
ATOM     18  C   LIG    1        4.496   2.306  -0.757  0.00  0.00    -0.740 A 
ATOM     19  C   LIG    1        3.789   3.416  -1.019  0.00  0.00    +0.420 A 
ATOM     20  N   LIG    1        2.552   3.079  -1.503  0.00  0.00    -0.560 N 
ATOM     21  H   LIG    1        1.865   3.712  -1.762  0.00  0.00    +0.430 HD
ATOM     22  C   LIG    1        2.428   1.718  -1.566  0.00  0.00    +0.320 A 
ATOM     23  N   LIG    1        1.463   0.889  -1.949  0.00  0.00    -0.520 NA
ATOM     24  C   LIG    1        1.641  -0.414  -1.894  0.00  0.00    +0.530 A 
ATOM     25  N   LIG    1        2.763  -0.963  -1.464  0.00  0.00    -0.520 NA
ATOM     26  C   LIG    1        3.779  -0.217  -1.062  0.00  0.00    +0.360 A 
ATOM     27  C   LIG    1        3.643   1.169  -1.101  0.00  0.00    -0.140 A 
ENDBRANCH  16  18
ENDBRANCH   1  16
TORSDOF 3
