REMARK  Name = ZINCkj00000dDGHd.0
REMARK                            x       y       z     vdW  Elec       q    Type
REMARK                         _______ _______ _______ _____ _____    ______ ____
ROOT
ATOM      1  C   LIG    1        0.836   3.307  -1.129  0.00  0.00    +0.070 C 
ATOM      2  C   LIG    1        1.074   2.293  -0.008  0.00  0.00    +0.230 C 
ATOM      3  C   LIG    1        2.420   1.624  -0.267  0.00  0.00    +0.270 C 
ATOM      4  N   LIG    1        2.526   0.368   0.486  0.00  0.00    -0.390 N 
ATOM      5  C   LIG    1        3.840  -0.235   0.138  0.00  0.00    +0.270 C 
ATOM      6  C   LIG    1        3.604  -1.042  -1.156  0.00  0.00    +0.070 C 
ATOM      7  C   LIG    1        2.081  -0.928  -1.426  0.00  0.00    +0.080 C 
ATOM      8  C   LIG    1        1.537  -0.604  -0.019  0.00  0.00    +0.180 C 
ATOM      9  C   LIG    1        0.125  -0.097  -0.042  0.00  0.00    +0.310 C 
ATOM     10  H   LIG    1        2.441   0.510   1.482  0.00  0.00    +0.430 HD
ATOM     11  N   LIG    1       -0.015   1.340   0.002  0.00  0.00    -0.620 N 
ATOM     12  C   LIG    1       -1.267   1.836   0.052  0.00  0.00    +0.520 C 
ATOM     13  O   LIG    1       -1.442   3.028   0.191  0.00  0.00    -0.500 OA
ENDROOT
BRANCH  12  14
ATOM     14  C   LIG    1       -2.450   0.909  -0.065  0.00  0.00    +0.060 C 
BRANCH  14  15
ATOM     15  C   LIG    1       -3.744   1.720   0.021  0.00  0.00    +0.040 C 
BRANCH  15  16
ATOM     16  C   LIG    1       -4.945   0.780  -0.098  0.00  0.00    +0.300 C 
BRANCH  16  17
ATOM     17  N   LIG    1       -6.184   1.557  -0.015  0.00  0.00    -0.460 N 
ATOM     18  C   LIG    1       -6.882   1.854   1.125  0.00  0.00    +0.110 A 
ATOM     19  C   LIG    1       -7.949   2.584   0.749  0.00  0.00    +0.150 A 
ATOM     20  N   LIG    1       -7.909   2.721  -0.585  0.00  0.00    -0.490 NA
ATOM     21  C   LIG    1       -6.855   2.108  -1.049  0.00  0.00    +0.380 A 
ENDBRANCH  16  17
ENDBRANCH  15  16
ENDBRANCH  14  15
ENDBRANCH  12  14
TORSDOF 4
