REMARK  Name = ZINCkj00000dDGHd.1
REMARK                            x       y       z     vdW  Elec       q    Type
REMARK                         _______ _______ _______ _____ _____    ______ ____
ROOT
ATOM      1  C   LIG    1       -0.736   2.961   3.787  0.00  0.00    +0.050 C 
ATOM      2  C   LIG    1       -1.315   1.568   3.529  0.00  0.00    +0.260 C 
ATOM      3  C   LIG    1       -0.504   0.877   2.420  0.00  0.00    +0.270 C 
ATOM      4  N   LIG    1       -0.756   1.588   1.175  0.00  0.00    -0.400 N 
ATOM      5  C   LIG    1       -0.013   1.086   0.008  0.00  0.00    +0.260 C 
ATOM      6  C   LIG    1       -0.820   1.628  -1.201  0.00  0.00    +0.070 C 
ATOM      7  C   LIG    1       -2.253   1.853  -0.656  0.00  0.00    +0.080 C 
ATOM      8  C   LIG    1       -2.182   1.366   0.796  0.00  0.00    +0.170 C 
ATOM      9  C   LIG    1       -3.039   2.179   1.759  0.00  0.00    +0.320 C 
ATOM     10  H   LIG    1       -0.582   2.574   1.294  0.00  0.00    +0.420 HD
ATOM     11  N   LIG    1       -2.720   1.693   3.118  0.00  0.00    -0.630 N 
ATOM     12  C   LIG    1       -3.710   1.366   3.972  0.00  0.00    +0.520 C 
ATOM     13  O   LIG    1       -3.442   0.967   5.086  0.00  0.00    -0.500 OA
ENDROOT
BRANCH  12  14
ATOM     14  C   LIG    1       -5.149   1.496   3.544  0.00  0.00    +0.070 C 
BRANCH  14  15
ATOM     15  C   LIG    1       -6.063   1.064   4.691  0.00  0.00    +0.030 C 
BRANCH  15  16
ATOM     16  C   LIG    1       -7.524   1.196   4.257  0.00  0.00    +0.300 C 
BRANCH  16  17
ATOM     17  N   LIG    1       -8.400   0.782   5.356  0.00  0.00    -0.460 N 
ATOM     18  C   LIG    1       -8.872  -0.482   5.587  0.00  0.00    +0.110 A 
ATOM     19  C   LIG    1       -9.633  -0.417   6.696  0.00  0.00    +0.150 A 
ATOM     20  N   LIG    1       -9.634   0.854   7.125  0.00  0.00    -0.490 NA
ATOM     21  C   LIG    1       -8.898   1.577   6.327  0.00  0.00    +0.380 A 
ENDBRANCH  16  17
ENDBRANCH  15  16
ENDBRANCH  14  15
ENDBRANCH  12  14
TORSDOF 4
