REMARK  Name = ZINCvU0000000835.0
REMARK                            x       y       z     vdW  Elec       q    Type
REMARK                         _______ _______ _______ _____ _____    ______ ____
ROOT
ATOM      1  C   LIG    1        1.887  -1.342   3.900  0.00  0.00    +0.020 A 
ATOM      2  C   LIG    1        0.505  -1.152   3.817  0.00  0.00    +0.030 A 
ATOM      3  C   LIG    1       -0.062  -0.745   2.627  0.00  0.00    +0.130 A 
ATOM      4  C   LIG    1        0.735  -0.524   1.518  0.00  0.00    -0.670 A 
ATOM      5  C   LIG    1        2.103  -0.715   1.591  0.00  0.00    +0.130 A 
ATOM      6  C   LIG    1        2.685  -1.118   2.775  0.00  0.00    +0.020 A 
ENDROOT
BRANCH   1   8
ATOM      7  C   LIG    1        3.990  -1.982   5.253  0.00  0.00    +0.090 C 
ATOM      8  C   LIG    1        2.500  -1.778   5.168  0.00  0.00    +0.120 C 
ATOM      9  N   LIG    1        1.755  -1.987   6.211  0.00  0.00    -0.220 NA
BRANCH   9  10
ATOM     10  N   LIG    1        2.338  -2.401   7.416  0.00  0.00    -0.570 N 
ATOM     11  H   LIG    1        3.297  -2.532   7.471  0.00  0.00    +0.400 HD
BRANCH  10  12
ATOM     12  C   LIG    1        1.538  -2.625   8.537  0.00  0.00    +0.230 A 
ATOM     13  C   LIG    1        0.164  -2.433   8.462  0.00  0.00    +0.050 A 
ATOM     14  C   LIG    1       -0.626  -2.660   9.573  0.00  0.00    -0.140 A 
ATOM     15  C   LIG    1       -0.050  -3.069  10.761  0.00  0.00    +0.050 A 
ATOM     16  C   LIG    1        1.319  -3.257  10.842  0.00  0.00    +0.080 A 
ATOM     17  C   LIG    1        2.114  -3.037   9.735  0.00  0.00    -0.070 A 
ATOM     18 CL   LIG    1        3.831  -3.273   9.837  0.00  0.00    -0.050 Cl
BRANCH  14  19
ATOM     19  C   LIG    1       -2.117  -2.457   9.490  0.00  0.00    +0.510 C 
ATOM     20  F   LIG    1       -2.651  -3.311   8.519  0.00  0.00    -0.170 F 
ATOM     21  F   LIG    1       -2.388  -1.129   9.143  0.00  0.00    -0.170 F 
ATOM     22  F   LIG    1       -2.696  -2.742  10.731  0.00  0.00    -0.170 F 
ENDBRANCH  14  19
ENDBRANCH  10  12
ENDBRANCH   9  10
ENDBRANCH   1   8
BRANCH   4  23
ATOM     23  S   LIG    1        0.002  -0.004   0.002  0.00  0.00    +2.700 S 
ATOM     24  O   LIG    1        0.900  -0.388  -1.030  0.00  0.00    -0.950 OA
ATOM     25  O   LIG    1       -1.355  -0.424   0.048  0.00  0.00    -0.950 OA
BRANCH  23  26
ATOM     26  N   LIG    1       -0.020   1.652   0.011  0.00  0.00    -1.120 NA
ATOM     27  H   LIG    1       -0.867   2.125   0.018  0.00  0.00    +0.420 HD
BRANCH  26  28
ATOM     28  C   LIG    1        1.238   2.401   0.003  0.00  0.00    +0.400 C 
BRANCH  28  29
ATOM     29  C   LIG    1        0.964   3.840  -0.354  0.00  0.00    -0.030 A 
ATOM     30  C   LIG    1        0.681   4.826   0.515  0.00  0.00    -0.030 A 
ATOM     31  C   LIG    1        0.499   6.003  -0.246  0.00  0.00    -0.070 A 
ATOM     32  C   LIG    1        0.674   5.664  -1.536  0.00  0.00    +0.180 A 
ATOM     33  O   LIG    1        0.955   4.352  -1.595  0.00  0.00    -0.170 OA
ENDBRANCH  28  29
ENDBRANCH  26  28
ENDBRANCH  23  26
ENDBRANCH   4  23
TORSDOF 8
