REMARK  Name = ZINCpe000000Twrk.0
REMARK                            x       y       z     vdW  Elec       q    Type
REMARK                         _______ _______ _______ _____ _____    ______ ____
ROOT
ATOM      1  N   LIG    1       -0.699   2.007   1.219  0.00  0.00    -0.610 N 
ATOM      2  C   LIG    1       -2.148   2.232   1.188  0.00  0.00    +0.280 C 
ATOM      3  C   LIG    1       -2.836   1.134   2.013  0.00  0.00    +0.010 C 
ATOM      4  C   LIG    1       -2.942   1.563   3.472  0.00  0.00    +0.290 C 
ATOM      5  N   LIG    1       -1.624   1.749   4.073  0.00  0.00    -0.620 N 
ATOM      6  C   LIG    1       -0.714   2.779   3.561  0.00  0.00    +0.310 C 
ATOM      7  C   LIG    1       -1.242   0.970   5.104  0.00  0.00    +0.710 C 
ATOM      8  N   LIG    1        0.010   1.065   5.593  0.00  0.00    -0.740 N 
ATOM      9  H   LIG    1        0.614   1.743   5.251  0.00  0.00    +0.400 HD
ATOM     10  O   LIG    1       -2.027   0.181   5.594  0.00  0.00    -0.580 OA
ATOM     11  C   LIG    1       -0.001   2.233   2.343  0.00  0.00    +0.500 C 
ATOM     12  O   LIG    1        1.190   2.002   2.382  0.00  0.00    -0.530 OA
ENDROOT
BRANCH   1  14
ATOM     13  C   LIG    1        0.017   0.009   0.003  0.00  0.00    +0.020 C 
ATOM     14  C   LIG    1       -0.009   1.539   0.014  0.00  0.00    +0.270 C 
ENDBRANCH   1  14
BRANCH   8  15
ATOM     15  C   LIG    1        0.460   0.144   6.640  0.00  0.00    +0.280 C 
BRANCH  15  16
ATOM     16  C   LIG    1        1.909   0.465   7.013  0.00  0.00    +0.070 C 
BRANCH  16  17
ATOM     17  C   LIG    1        2.372  -0.482   8.090  0.00  0.00    -0.090 A 
ATOM     18  C   LIG    1        2.203  -0.148   9.422  0.00  0.00    +0.040 A 
ATOM     19  C   LIG    1        2.620  -1.015  10.417  0.00  0.00    +0.010 A 
ATOM     20  C   LIG    1        3.217  -2.213  10.086  0.00  0.00    +0.040 A 
ATOM     21  C   LIG    1        3.395  -2.554   8.744  0.00  0.00    -0.130 A 
ATOM     22  C   LIG    1        2.967  -1.678   7.746  0.00  0.00    +0.090 A 
BRANCH  21  23
ATOM     23  C   LIG    1        4.034  -3.837   8.382  0.00  0.00    +0.560 C 
ATOM     24  N   LIG    1        4.446  -4.681   9.349  0.00  0.00    -0.730 N 
ATOM     25  H   LIG    1        4.323  -4.447  10.282  0.00  0.00    +0.400 HD
ATOM     26  C   LIG    1        5.079  -5.953   8.991  0.00  0.00    +0.290 C 
ATOM     27  O   LIG    1        4.187  -4.132   7.213  0.00  0.00    -0.530 OA
ENDBRANCH  21  23
ENDBRANCH  16  17
ENDBRANCH  15  16
ENDBRANCH   8  15
TORSDOF 5
