REMARK  Name = ZINCrH000004treP.0
REMARK                            x       y       z     vdW  Elec       q    Type
REMARK                         _______ _______ _______ _____ _____    ______ ____
ROOT
ATOM      1  N   LIG    1        2.099   7.080  -2.103  0.00  0.00    -0.710 N 
ATOM      2  H   LIG    1        3.019   7.369  -1.996  0.00  0.00    +0.390 HD
ATOM      3  C   LIG    1        1.672   5.953  -1.500  0.00  0.00    +0.600 C 
ATOM      4  O   LIG    1        0.498   5.639  -1.558  0.00  0.00    -0.520 OA
ENDROOT
BRANCH   3   5
ATOM      5  C   LIG    1        2.626   5.101  -0.770  0.00  0.00    -0.280 A 
ATOM      6  C   LIG    1        3.979   5.322  -0.613  0.00  0.00    +0.300 A 
ATOM      7  N   LIG    1        4.480   4.309   0.110  0.00  0.00    -0.460 N 
ATOM      8  H   LIG    1        5.411   4.212   0.365  0.00  0.00    +0.450 HD
ATOM      9  N   LIG    1        3.458   3.415   0.440  0.00  0.00    -0.280 NA
ATOM     10  C   LIG    1        2.327   3.851  -0.065  0.00  0.00    +0.180 A 
BRANCH  10  11
ATOM     11  C   LIG    1        0.999   3.200   0.052  0.00  0.00    -0.030 A 
ATOM     12  C   LIG    1        0.901   1.810   0.056  0.00  0.00    +0.060 A 
ATOM     13  C   LIG    1       -0.337   1.208   0.164  0.00  0.00    +0.020 A 
ATOM     14  C   LIG    1       -1.479   1.984   0.263  0.00  0.00    -0.020 A 
ATOM     15  C   LIG    1       -1.386   3.365   0.265  0.00  0.00    +0.020 A 
ATOM     16 CL   LIG    1       -3.034   1.222   0.391  0.00  0.00    -0.070 Cl
ATOM     17  C   LIG    1       -0.153   3.976   0.158  0.00  0.00    +0.110 A 
ENDBRANCH  10  11
ENDBRANCH   3   5
BRANCH   1  18
ATOM     18  C   LIG    1        1.174   7.869  -2.920  0.00  0.00    +0.320 C 
BRANCH  18  19
ATOM     19  C   LIG    1        0.419   8.830  -2.038  0.00  0.00    -0.090 A 
ATOM     20  C   LIG    1        1.071   9.478  -1.005  0.00  0.00    +0.040 A 
ATOM     21  C   LIG    1        0.380  10.363  -0.199  0.00  0.00    +0.020 A 
ATOM     22  C   LIG    1       -0.967  10.592  -0.419  0.00  0.00    -0.030 A 
ATOM     23  C   LIG    1       -1.620   9.939  -1.449  0.00  0.00    +0.030 A 
ATOM     24 CL   LIG    1       -1.837  11.698   0.597  0.00  0.00    -0.070 Cl
ATOM     25  C   LIG    1       -0.927   9.058  -2.258  0.00  0.00    +0.040 A 
ENDBRANCH  18  19
BRANCH  18  26
ATOM     26  C   LIG    1        1.963   8.654  -3.970  0.00  0.00    +0.060 C 
BRANCH  26  30
ATOM     27  N   LIG    1        3.282   8.162  -6.004  0.00  0.00    -0.860 N 
ATOM     28  H   LIG    1        3.697   7.543  -6.625  0.00  0.00    +0.400 HD
ATOM     29  H   LIG    1        3.353   9.118  -6.151  0.00  0.00    +0.400 HD
ATOM     30  C   LIG    1        2.607   7.693  -4.936  0.00  0.00    +0.510 C 
ATOM     31  O   LIG    1        2.518   6.497  -4.752  0.00  0.00    -0.530 OA
ENDBRANCH  26  30
ENDBRANCH  18  26
ENDBRANCH   1  18
TORSDOF 6
