REMARK  Name = ZINCpk00000y6usu.0
REMARK                            x       y       z     vdW  Elec       q    Type
REMARK                         _______ _______ _______ _____ _____    ______ ____
ROOT
ATOM      1  N   LIG    1        1.270   6.729  -1.501  0.00  0.00    -1.120 NA
ATOM      2  H   LIG    1        2.219   6.607  -1.659  0.00  0.00    +0.420 HD
ENDROOT
BRANCH   1   3
ATOM      3  S   LIG    1        0.660   6.583   0.032  0.00  0.00    +2.720 S 
ATOM      4  O   LIG    1        1.758   6.245   0.869  0.00  0.00    -0.970 OA
ATOM      5  O   LIG    1       -0.161   7.722   0.248  0.00  0.00    -0.960 OA
BRANCH   3   6
ATOM      6  C   LIG    1       -0.415   5.187   0.034  0.00  0.00    -0.800 A 
ATOM      7  C   LIG    1       -1.774   5.205   0.047  0.00  0.00    +0.380 A 
ATOM      8  N   LIG    1       -2.244   3.956   0.045  0.00  0.00    -0.550 NA
ATOM      9  C   LIG    1       -1.250   3.084   0.031  0.00  0.00    +0.280 A 
ATOM     10  N   LIG    1       -1.194   1.713   0.017  0.00  0.00    -0.490 N 
ATOM     11  H   LIG    1       -2.017   1.199   0.018  0.00  0.00    +0.430 HD
ATOM     12  C   LIG    1       -0.013   1.076   0.008  0.00  0.00    +0.340 A 
ATOM     13  C   LIG    1        1.168   1.755   0.000  0.00  0.00    -0.040 A 
ATOM     14  C   LIG    1        1.180   3.145   0.008  0.00  0.00    +0.180 A 
ATOM     15  C   LIG    1       -0.036   3.825   0.023  0.00  0.00    -0.090 A 
ENDBRANCH   3   6
ENDBRANCH   1   3
BRANCH   1  16
ATOM     16  C   LIG    1        0.375   7.044  -2.618  0.00  0.00    +0.290 C 
BRANCH  16  20
ATOM     17  C   LIG    1        2.001   9.473  -4.713  0.00  0.00    +0.290 C 
ATOM     18  C   LIG    1        0.594   9.298  -5.339  0.00  0.00    +0.040 C 
ATOM     19  C   LIG    1        0.272   7.821  -5.006  0.00  0.00    +0.030 C 
ATOM     20  C   LIG    1        1.204   7.488  -3.825  0.00  0.00    +0.160 C 
ATOM     21  O   LIG    1        1.932   8.685  -3.505  0.00  0.00    -0.350 OA
BRANCH  17  26
ATOM     22  C   LIG    1        3.685  14.188  -4.783  0.00  0.00    +0.210 C 
ATOM     23  C   LIG    1        2.966  12.917  -4.409  0.00  0.00    +0.170 A 
ATOM     24  N   LIG    1        2.161  12.757  -3.402  0.00  0.00    -0.380 NA
ATOM     25  O   LIG    1        1.742  11.619  -3.377  0.00  0.00    +0.100 OA
ATOM     26  C   LIG    1        2.263  10.922  -4.391  0.00  0.00    +0.190 A 
ATOM     27  N   LIG    1        3.041  11.741  -5.057  0.00  0.00    -0.470 NA
ENDBRANCH  17  26
ENDBRANCH  16  20
ENDBRANCH   1  16
TORSDOF 5
