REMARK  Name = ZINCpe00000MJJ8W.0
REMARK                            x       y       z     vdW  Elec       q    Type
REMARK                         _______ _______ _______ _____ _____    ______ ____
ROOT
ATOM      1  C   LIG    1        1.155   6.154  -3.247  0.00  0.00    +0.570 C 
ATOM      2  N   LIG    1        1.244   5.963  -1.916  0.00  0.00    -0.710 N 
ATOM      3  H   LIG    1        0.844   6.602  -1.306  0.00  0.00    +0.400 HD
ATOM      4  O   LIG    1        1.656   5.353  -4.011  0.00  0.00    -0.530 OA
ENDROOT
BRANCH   1  12
ATOM      5  C   LIG    1       -2.668  12.768  -5.753  0.00  0.00    +0.110 C 
ATOM      6  C   LIG    1       -2.140  11.644  -4.901  0.00  0.00    +0.520 C 
ATOM      7  N   LIG    1       -1.499  10.607  -5.475  0.00  0.00    -0.560 N 
ATOM      8  C   LIG    1       -1.349  10.409  -6.918  0.00  0.00    +0.280 C 
ATOM      9  C   LIG    1       -0.554   9.101  -7.066  0.00  0.00    +0.110 C 
ATOM     10  C   LIG    1       -0.307   8.645  -5.646  0.00  0.00    -0.150 A 
ATOM     11  C   LIG    1        0.358   7.543  -5.156  0.00  0.00    +0.130 A 
ATOM     12  C   LIG    1        0.448   7.337  -3.777  0.00  0.00    -0.160 A 
ATOM     13  C   LIG    1       -0.130   8.261  -2.903  0.00  0.00    +0.080 A 
ATOM     14  C   LIG    1       -0.786   9.361  -3.400  0.00  0.00    +0.010 A 
ATOM     15  C   LIG    1       -0.883   9.566  -4.780  0.00  0.00    +0.180 A 
ATOM     16  O   LIG    1       -2.291  11.673  -3.697  0.00  0.00    -0.520 OA
ENDBRANCH   1  12
BRANCH   2  17
ATOM     17  C   LIG    1        1.945   4.789  -1.390  0.00  0.00    +0.260 C 
ATOM     18  C   LIG    1        3.305   5.118  -0.748  0.00  0.00    +0.010 C 
ATOM     19  C   LIG    1        2.952   4.091   0.341  0.00  0.00    +0.180 C 
ATOM     20  C   LIG    1        1.476   4.368   0.013  0.00  0.00    +0.270 C 
BRANCH  20  21
ATOM     21  N   LIG    1        0.638   3.166   0.015  0.00  0.00    -0.360 N 
ATOM     22  C   LIG    1        1.080   1.891   0.004  0.00  0.00    +0.220 A 
ATOM     23  C   LIG    1       -0.003   1.079   0.012  0.00  0.00    -0.120 A 
ATOM     24  C   LIG    1       -1.145   1.886   0.021  0.00  0.00    +0.230 A 
ATOM     25  N   LIG    1       -0.762   3.137   0.029  0.00  0.00    -0.290 NA
ENDBRANCH  20  21
BRANCH  19  26
ATOM     26  O   LIG    1        3.332   4.497   1.657  0.00  0.00    -0.550 OA
ATOM     27  H   LIG    1        4.260   4.325   1.869  0.00  0.00    +0.390 HD
ENDBRANCH  19  26
ENDBRANCH   2  17
TORSDOF 4
