REMARK  Name = ZINCrD0000073nvE.0
REMARK                            x       y       z     vdW  Elec       q    Type
REMARK                         _______ _______ _______ _____ _____    ______ ____
ROOT
ATOM      1  C   LIG    1       -0.486  -4.647   4.426  0.00  0.00    +0.510 C 
ATOM      2  O   LIG    1       -1.550  -5.219   4.300  0.00  0.00    -0.500 OA
ENDROOT
BRANCH   1   3
ATOM      3  C   LIG    1        0.102  -3.918   3.284  0.00  0.00    -0.120 A 
ATOM      4  C   LIG    1       -0.562  -3.885   2.056  0.00  0.00    +0.090 A 
ATOM      5  C   LIG    1       -0.007  -3.204   0.993  0.00  0.00    +0.040 A 
ATOM      6  C   LIG    1        1.206  -2.554   1.141  0.00  0.00    -0.070 A 
ATOM      7  C   LIG    1        1.872  -2.588   2.353  0.00  0.00    +0.020 A 
ATOM      8  C   LIG    1        1.326  -3.261   3.426  0.00  0.00    +0.080 A 
BRANCH   6   9
ATOM      9  C   LIG    1        1.806  -1.812  -0.025  0.00  0.00    +0.380 C 
BRANCH   9  10
ATOM     10  N   LIG    1        1.339  -0.424  -0.013  0.00  0.00    -0.370 N 
ATOM     11  C   LIG    1        2.119   0.677  -0.015  0.00  0.00    +0.220 A 
ATOM     12  C   LIG    1        1.307   1.759  -0.001  0.00  0.00    -0.120 A 
ATOM     13  C   LIG    1       -0.016   1.304   0.009  0.00  0.00    +0.230 A 
ATOM     14  N   LIG    1        0.002  -0.004   0.002  0.00  0.00    -0.290 NA
ENDBRANCH   9  10
ENDBRANCH   6   9
ENDBRANCH   1   3
BRANCH   1  15
ATOM     15  O   LIG    1        0.158  -4.677   5.609  0.00  0.00    -0.330 OA
BRANCH  15  16
ATOM     16  C   LIG    1       -0.478  -5.412   6.688  0.00  0.00    +0.160 C 
ATOM     17  C   LIG    1       -1.394  -4.472   7.474  0.00  0.00    +0.080 C 
BRANCH  16  18
ATOM     18  C   LIG    1        0.577  -5.970   7.607  0.00  0.00    +0.400 C 
ATOM     19  O   LIG    1        1.693  -5.494   7.609  0.00  0.00    -0.430 OA
BRANCH  18  23
ATOM     20  C   LIG    1       -0.351  -9.201  10.183  0.00  0.00    +0.170 A 
ATOM     21  C   LIG    1        0.929  -8.657  10.188  0.00  0.00    -0.020 A 
ATOM     22  C   LIG    1        1.234  -7.611   9.356  0.00  0.00    +0.130 A 
ATOM     23  C   LIG    1        0.255  -7.090   8.501  0.00  0.00    -0.210 A 
ATOM     24  C   LIG    1       -1.034  -7.638   8.504  0.00  0.00    +0.110 A 
ATOM     25  C   LIG    1       -1.327  -8.688   9.336  0.00  0.00    -0.080 A 
BRANCH  20  27
ATOM     26  C   LIG    1       -1.982 -10.748  10.953  0.00  0.00    +0.250 C 
ATOM     27  O   LIG    1       -0.648 -10.236  11.008  0.00  0.00    -0.310 OA
ENDBRANCH  20  27
ENDBRANCH  18  23
ENDBRANCH  16  18
ENDBRANCH  15  16
ENDBRANCH   1  15
TORSDOF 8
