REMARK  Name = ZINCpk00000y6vi6.2
REMARK                            x       y       z     vdW  Elec       q    Type
REMARK                         _______ _______ _______ _____ _____    ______ ____
ROOT
ATOM      1  C   LIG    1        2.761  -1.918  -1.216  0.00  0.00    +0.130 C 
ATOM      2  C   LIG    1        2.035  -1.527  -2.506  0.00  0.00    -0.020 C 
ATOM      3  C   LIG    1        2.964  -1.769  -3.699  0.00  0.00    +0.040 C 
ATOM      4  C   LIG    1        3.392  -3.238  -3.716  0.00  0.00    +0.170 C 
ATOM      5  N   LIG    1        4.082  -3.563  -2.461  0.00  0.00    -0.510 NA
ATOM      6  C   LIG    1        3.195  -3.383  -1.305  0.00  0.00    +0.210 C 
ENDROOT
BRANCH   1   7
ATOM      7  O   LIG    1        3.912  -1.089  -1.046  0.00  0.00    -0.530 OA
ATOM      8  H   LIG    1        3.711  -0.145  -0.983  0.00  0.00    +0.380 HD
ENDBRANCH   1   7
BRANCH   5   9
ATOM      9  C   LIG    1        4.629  -4.926  -2.498  0.00  0.00    +0.310 C 
BRANCH   9  10
ATOM     10  C   LIG    1        3.497  -5.920  -2.552  0.00  0.00    -0.260 A 
ATOM     11  C   LIG    1        2.884  -6.486  -1.487  0.00  0.00    +0.240 A 
ATOM     12  N   LIG    1        1.924  -7.315  -1.958  0.00  0.00    -0.320 N 
ATOM     13  N   LIG    1        1.957  -7.260  -3.357  0.00  0.00    -0.290 NA
ATOM     14  C   LIG    1        2.899  -6.424  -3.712  0.00  0.00    +0.260 A 
BRANCH  12  15
ATOM     15  C   LIG    1        1.054  -8.095  -1.183  0.00  0.00    +0.160 A 
ATOM     16  C   LIG    1        1.135  -8.058   0.203  0.00  0.00    -0.010 A 
ATOM     17  C   LIG    1        0.273  -8.823   0.964  0.00  0.00    +0.040 A 
ATOM     18  C   LIG    1       -0.662  -9.633   0.347  0.00  0.00    +0.000 A 
ATOM     19  C   LIG    1       -0.741  -9.677  -1.033  0.00  0.00    +0.040 A 
ATOM     20  C   LIG    1        0.114  -8.909  -1.799  0.00  0.00    +0.020 A 
ENDBRANCH  12  15
ENDBRANCH   9  10
ENDBRANCH   5   9
BRANCH   1  21
ATOM     21  C   LIG    1        1.819  -1.736  -0.024  0.00  0.00    +0.300 C 
BRANCH  21  22
ATOM     22  N   LIG    1        1.307  -0.363  -0.012  0.00  0.00    -0.290 N 
ATOM     23  C   LIG    1        0.002  -0.004   0.002  0.00  0.00    +0.140 A 
ATOM     24  C   LIG    1       -0.016   1.349   0.009  0.00  0.00    +0.140 A 
ATOM     25  N   LIG    1        1.261   1.747  -0.001  0.00  0.00    -0.260 NA
ATOM     26  N   LIG    1        2.020   0.708  -0.013  0.00  0.00    -0.090 NA
ENDBRANCH  21  22
ENDBRANCH   1  21
TORSDOF 6
