REMARK  Name = ZINCrH000004u4xO.0
REMARK                            x       y       z     vdW  Elec       q    Type
REMARK                         _______ _______ _______ _____ _____    ______ ____
ROOT
ATOM      1  C   LIG    1        2.422   1.186  -0.015  0.00  0.00    +0.340 C 
ATOM      2  C   LIG    1        3.520   2.078   0.578  0.00  0.00    +0.020 C 
ATOM      3  C   LIG    1        4.888   1.439   0.328  0.00  0.00    +0.040 C 
ATOM      4  C   LIG    1        5.226   1.519  -1.167  0.00  0.00    +0.110 C 
ATOM      5  C   LIG    1        4.046   0.999  -1.949  0.00  0.00    +0.090 A 
ATOM      6  N   LIG    1        4.013   0.607  -3.233  0.00  0.00    -0.360 N 
ATOM      7  N   LIG    1        2.702   0.200  -3.524  0.00  0.00    -0.300 NA
ATOM      8  C   LIG    1        1.977   0.347  -2.442  0.00  0.00    +0.260 A 
ATOM      9  C   LIG    1        2.798   0.849  -1.436  0.00  0.00    -0.250 A 
ENDROOT
BRANCH   1  12
ATOM     10  O   LIG    1        0.002  -0.004   0.002  0.00  0.00    -0.580 OA
ATOM     11  C   LIG    1       -0.014   1.212   0.009  0.00  0.00    +0.710 C 
ATOM     12  N   LIG    1        1.143   1.901   0.001  0.00  0.00    -0.740 N 
ATOM     13  H   LIG    1        1.130   2.871   0.007  0.00  0.00    +0.390 HD
ATOM     14  N   LIG    1       -1.191   1.870   0.018  0.00  0.00    -0.740 N 
ATOM     15  H   LIG    1       -1.204   2.840   0.023  0.00  0.00    +0.400 HD
BRANCH  14  16
ATOM     16  C   LIG    1       -2.449   1.120   0.020  0.00  0.00    +0.320 C 
BRANCH  16  17
ATOM     17  C   LIG    1       -3.559   1.986  -0.580  0.00  0.00    -0.060 C 
ATOM     18  C   LIG    1       -4.404   1.375  -1.700  0.00  0.00    +0.030 C 
ATOM     19  C   LIG    1       -3.379   2.466  -2.021  0.00  0.00    +0.030 C 
ENDBRANCH  16  17
BRANCH  16  20
ATOM     20  C   LIG    1       -2.816   0.743   1.456  0.00  0.00    -0.060 C 
ATOM     21  C   LIG    1       -1.982   1.357   2.583  0.00  0.00    +0.000 C 
ATOM     22  C   LIG    1       -1.825  -0.125   2.234  0.00  0.00    +0.030 C 
ENDBRANCH  16  20
ENDBRANCH  14  16
ENDBRANCH   1  12
BRANCH   6  23
ATOM     23  C   LIG    1        5.144   0.605  -4.165  0.00  0.00    +0.370 C 
BRANCH  23  24
ATOM     24  C   LIG    1        5.855  -0.721  -4.088  0.00  0.00    -0.120 A 
ATOM     25  C   LIG    1        6.896  -0.897  -3.194  0.00  0.00    +0.020 A 
ATOM     26  C   LIG    1        7.545  -2.115  -3.120  0.00  0.00    +0.010 A 
ATOM     27  C   LIG    1        7.161  -3.154  -3.947  0.00  0.00    +0.010 A 
ATOM     28  C   LIG    1        6.124  -2.977  -4.844  0.00  0.00    +0.010 A 
ATOM     29  C   LIG    1        5.471  -1.761  -4.914  0.00  0.00    +0.030 A 
ENDBRANCH  23  24
ENDBRANCH   6  23
TORSDOF 6
