REMARK  Name = ZINCqH0000008ToS.0
REMARK                            x       y       z     vdW  Elec       q    Type
REMARK                         _______ _______ _______ _____ _____    ______ ____
ROOT
ATOM      1  C   LIG    1        2.519   0.038  -1.166  0.00  0.00    +0.060 C 
ATOM      2  C   LIG    1        2.490   1.047  -0.016  0.00  0.00    -0.040 C 
ATOM      3  C   LIG    1        2.722   0.332   1.335  0.00  0.00    +0.050 C 
ATOM      4  C   LIG    1        4.237   0.543   1.580  0.00  0.00    +0.270 C 
ATOM      5  N   LIG    1        4.476   1.914   1.073  0.00  0.00    -0.620 N 
ATOM      6  C   LIG    1        5.276   2.852   1.616  0.00  0.00    +0.530 C 
ATOM      7  O   LIG    1        5.377   3.941   1.091  0.00  0.00    -0.540 OA
ATOM      8  C   LIG    1        3.658   2.042  -0.148  0.00  0.00    +0.270 C 
ENDROOT
BRANCH   2   9
ATOM      9  C   LIG    1        1.175   1.783   0.000  0.00  0.00    -0.070 A 
ATOM     10  C   LIG    1        0.949   2.772   0.939  0.00  0.00    +0.030 A 
ATOM     11  C   LIG    1       -0.259   3.444   0.959  0.00  0.00    +0.020 A 
ATOM     12  C   LIG    1       -1.238   3.133   0.031  0.00  0.00    -0.040 A 
ATOM     13  C   LIG    1       -1.011   2.143  -0.908  0.00  0.00    +0.020 A 
ATOM     14 CL   LIG    1       -2.752   3.981   0.050  0.00  0.00    -0.070 Cl
ATOM     15  C   LIG    1        0.196   1.469  -0.923  0.00  0.00    +0.040 A 
ENDBRANCH   2   9
BRANCH   6  16
ATOM     16  C   LIG    1        6.045   2.549   2.876  0.00  0.00    +0.080 C 
BRANCH  16  17
ATOM     17  C   LIG    1        6.870   3.774   3.278  0.00  0.00    +0.160 C 
BRANCH  17  18
ATOM     18  C   LIG    1        7.639   3.471   4.537  0.00  0.00    +0.260 A 
ATOM     19  N   LIG    1        7.591   2.321   5.174  0.00  0.00    -0.520 NA
ATOM     20  C   LIG    1        8.394   2.395   6.251  0.00  0.00    -0.040 A 
ATOM     21  C   LIG    1        8.761   1.550   7.279  0.00  0.00    +0.370 A 
ATOM     22  N   LIG    1        9.619   1.974   8.218  0.00  0.00    -0.510 N 
ATOM     23  H   LIG    1        9.865   1.367   8.933  0.00  0.00    +0.430 HD
ATOM     24  C   LIG    1       10.156   3.219   8.207  0.00  0.00    +0.220 A 
ATOM     25  C   LIG    1        9.860   4.119   7.243  0.00  0.00    +0.070 A 
ATOM     26  C   LIG    1        8.965   3.750   6.219  0.00  0.00    +0.090 A 
ATOM     27  N   LIG    1        8.452   4.329   5.138  0.00  0.00    -0.530 NA
ENDBRANCH  17  18
ENDBRANCH  16  17
ENDBRANCH   6  16
TORSDOF 4
