REMARK  Name = ZINCAx0000000iw3.0
REMARK                            x       y       z     vdW  Elec       q    Type
REMARK                         _______ _______ _______ _____ _____    ______ ____
ROOT
ATOM      1  C   LIG    1        7.234  -8.046   2.727  0.00  0.00    +0.230 A 
ATOM      2  C   LIG    1        7.278  -6.755   2.216  0.00  0.00    -0.010 A 
ATOM      3  C   LIG    1        6.129  -6.168   1.712  0.00  0.00    +0.190 A 
ATOM      4  C   LIG    1        4.929  -6.877   1.716  0.00  0.00    +0.100 A 
ATOM      5  O   LIG    1        3.801  -6.304   1.218  0.00  0.00    -0.290 OA
ATOM      6  C   LIG    1        2.550  -6.707   1.771  0.00  0.00    +0.220 C 
ATOM      7  C   LIG    1        1.407  -6.157   0.912  0.00  0.00    +0.210 C 
ATOM      8  O   LIG    1        1.236  -4.764   1.179  0.00  0.00    -0.370 OA
ATOM      9  C   LIG    1        0.169  -4.164   0.442  0.00  0.00    +0.210 C 
ATOM     10  C   LIG    1        0.080  -2.676   0.790  0.00  0.00    +0.220 C 
ATOM     11  O   LIG    1        1.150  -1.971   0.160  0.00  0.00    -0.290 OA
ATOM     12  C   LIG    1        1.125  -0.613   0.208  0.00  0.00    +0.160 A 
ATOM     13  C   LIG    1       -0.085   0.062   0.239  0.00  0.00    -0.010 A 
ATOM     14  C   LIG    1       -0.108   1.444   0.287  0.00  0.00    +0.120 A 
ATOM     15  C   LIG    1        1.075   2.157   0.301  0.00  0.00    -0.040 A 
ATOM     16  C   LIG    1        2.286   1.491   0.267  0.00  0.00    +0.050 A 
ATOM     17  C   LIG    1        2.318   0.107   0.222  0.00  0.00    +0.110 A 
ATOM     18  O   LIG    1        3.507  -0.551   0.188  0.00  0.00    -0.290 OA
ATOM     19  C   LIG    1        4.620   0.048   0.852  0.00  0.00    +0.220 C 
ATOM     20  C   LIG    1        5.901  -0.706   0.488  0.00  0.00    +0.210 C 
ATOM     21  O   LIG    1        5.967  -1.925   1.230  0.00  0.00    -0.380 OA
ATOM     22  C   LIG    1        7.135  -2.703   0.963  0.00  0.00    +0.210 C 
ATOM     23  C   LIG    1        7.096  -3.989   1.791  0.00  0.00    +0.220 C 
ATOM     24  C   LIG    1        4.891  -8.165   2.225  0.00  0.00    +0.080 A 
ATOM     25  O   LIG    1        6.169  -4.906   1.211  0.00  0.00    -0.290 OA
ATOM     26  C   LIG    1        6.038  -8.749   2.730  0.00  0.00    -0.080 A 
ENDROOT
BRANCH   1  29
ATOM     27  C   LIG    1       10.827  -9.090   3.146  0.00  0.00    +0.130 C 
ATOM     28  C   LIG    1        9.590  -8.380   2.662  0.00  0.00    +0.520 C 
ATOM     29  N   LIG    1        8.398  -8.636   3.236  0.00  0.00    -0.670 N 
ATOM     30  H   LIG    1        8.345  -9.229   4.002  0.00  0.00    +0.430 HD
ATOM     31  O   LIG    1        9.667  -7.577   1.756  0.00  0.00    -0.520 OA
ENDBRANCH   1  29
BRANCH  15  32
ATOM     32  N   LIG    1        1.047   3.636   0.350  0.00  0.00    +0.030 N 
ATOM     33  O   LIG    1        2.091   4.264   0.362  0.00  0.00    -0.160 OA
ATOM     34  O   LIG    1       -0.018   4.225   0.379  0.00  0.00    -0.160 OA
ENDBRANCH  15  32
BRANCH  26  35
ATOM     35  N   LIG    1        5.987 -10.124   3.274  0.00  0.00    +0.050 N 
ATOM     36  O   LIG    1        6.974 -10.608   3.800  0.00  0.00    -0.180 OA
ATOM     37  O   LIG    1        4.959 -10.773   3.196  0.00  0.00    -0.150 OA
ENDBRANCH  26  35
TORSDOF 3
