REMARK  Name = ZINCpe000000YILg.0
REMARK                            x       y       z     vdW  Elec       q    Type
REMARK                         _______ _______ _______ _____ _____    ______ ____
ROOT
ATOM      1  C   LIG    1       -4.566   1.123   0.906  0.00  0.00    -0.460 C 
ATOM      2  C   LIG    1       -4.677  -0.399   0.791  0.00  0.00    +0.070 C 
ATOM      3  C   LIG    1       -3.298  -1.030   0.997  0.00  0.00    +0.030 C 
ATOM      4  C   LIG    1       -2.345  -0.531  -0.093  0.00  0.00    +0.270 C 
ATOM      5  N   LIG    1       -2.344   0.939  -0.084  0.00  0.00    -0.620 N 
ATOM      6  C   LIG    1       -1.187   1.624   0.017  0.00  0.00    +0.710 C 
ATOM      7  N   LIG    1       -0.011   0.966   0.003  0.00  0.00    -0.740 N 
ATOM      8  H   LIG    1        0.003  -0.004  -0.007  0.00  0.00    +0.400 HD
ATOM      9  O   LIG    1       -1.206   2.835   0.119  0.00  0.00    -0.590 OA
ATOM     10  C   LIG    1       -3.627   1.647  -0.179  0.00  0.00    +0.350 C 
ENDROOT
BRANCH   1  11
ATOM     11  S   LIG    1       -6.208   1.867   0.701  0.00  0.00    +2.620 S 
ATOM     12  O   LIG    1       -7.005   1.643   1.856  0.00  0.00    -0.960 OA
ATOM     13  O   LIG    1       -6.714   1.605  -0.601  0.00  0.00    -0.950 OA
BRANCH  11  14
ATOM     14  N   LIG    1       -5.926   3.498   0.708  0.00  0.00    -1.250 NA
ATOM     15  H   LIG    1       -6.665   4.119   0.611  0.00  0.00    +0.420 HD
ATOM     16  H   LIG    1       -5.021   3.834   0.810  0.00  0.00    +0.410 HD
ENDBRANCH  11  14
ENDBRANCH   1  11
BRANCH   7  17
ATOM     17  C   LIG    1        1.248   1.716  -0.004  0.00  0.00    +0.380 C 
BRANCH  17  18
ATOM     18  C   LIG    1        2.406   0.753  -0.026  0.00  0.00    -0.250 A 
ATOM     19  C   LIG    1        3.034   0.238   1.057  0.00  0.00    +0.260 A 
ATOM     20  N   LIG    1        4.013  -0.582   0.613  0.00  0.00    -0.320 N 
ATOM     21  N   LIG    1        3.990  -0.561  -0.787  0.00  0.00    -0.290 NA
ATOM     22  C   LIG    1        3.027   0.239  -1.169  0.00  0.00    +0.270 A 
BRANCH  20  23
ATOM     23  C   LIG    1        4.899  -1.318   1.413  0.00  0.00    +0.150 A 
ATOM     24  C   LIG    1        4.814  -1.242   2.796  0.00  0.00    -0.010 A 
ATOM     25  C   LIG    1        5.684  -1.972   3.582  0.00  0.00    +0.040 A 
ATOM     26  C   LIG    1        6.646  -2.771   2.991  0.00  0.00    +0.000 A 
ATOM     27  C   LIG    1        6.737  -2.845   1.613  0.00  0.00    +0.040 A 
ATOM     28  C   LIG    1        5.866  -2.121   0.823  0.00  0.00    +0.020 A 
ENDBRANCH  20  23
ENDBRANCH  17  18
ENDBRANCH   7  17
TORSDOF 5
