REMARK  Name = ZINCqH0000033j7b.2
REMARK                            x       y       z     vdW  Elec       q    Type
REMARK                         _______ _______ _______ _____ _____    ______ ____
ROOT
ATOM      1  C   LIG    1        0.488  -0.400  -0.111  0.00  0.00    +0.380 A 
ATOM      2  N   LIG    1        1.753  -0.717  -0.129  0.00  0.00    -0.460 NA
ATOM      3  C   LIG    1        2.146  -2.000  -0.166  0.00  0.00    +0.130 A 
ATOM      4  C   LIG    1        1.198  -3.018  -0.199  0.00  0.00    -0.090 A 
ATOM      5  C   LIG    1       -0.168  -2.655  -0.184  0.00  0.00    +0.570 A 
ATOM      6  O   LIG    1       -1.040  -3.507  -0.211  0.00  0.00    -0.510 OA
ATOM      7  O   LIG    1        1.834  -4.207  -0.240  0.00  0.00    -0.160 OA
ATOM      8  C   LIG    1        3.174  -4.048  -0.237  0.00  0.00    +0.090 A 
ATOM      9  C   LIG    1        4.229  -4.953  -0.270  0.00  0.00    +0.020 A 
ATOM     10  C   LIG    1        5.530  -4.498  -0.258  0.00  0.00    +0.070 A 
ATOM     11  C   LIG    1        5.804  -3.140  -0.212  0.00  0.00    +0.000 A 
ATOM     12  C   LIG    1        4.774  -2.226  -0.179  0.00  0.00    +0.100 A 
ATOM     13  C   LIG    1        3.454  -2.672  -0.192  0.00  0.00    -0.120 A 
ATOM     14  N   LIG    1       -0.485  -1.343  -0.140  0.00  0.00    -0.620 N 
ATOM     15  H   LIG    1       -1.417  -1.074  -0.129  0.00  0.00    +0.430 HD
ENDROOT
BRANCH   1  16
ATOM     16  C   LIG    1        0.098   1.055  -0.062  0.00  0.00    +0.290 C 
BRANCH  16  17
ATOM     17  N   LIG    1        1.309   1.886  -0.037  0.00  0.00    -0.520 NA
BRANCH  17  19
ATOM     18  C   LIG    1        3.481   2.227   1.042  0.00  0.00    +0.040 C 
ATOM     19  C   LIG    1        2.061   1.684   1.209  0.00  0.00    +0.170 C 
ENDBRANCH  17  19
BRANCH  17  20
ATOM     20  C   LIG    1        0.978   3.305  -0.228  0.00  0.00    +0.190 C 
BRANCH  20  21
ATOM     21  C   LIG    1        0.653   3.559  -1.701  0.00  0.00    +0.070 C 
BRANCH  21  22
ATOM     22  C   LIG    1        0.434   5.034  -1.920  0.00  0.00    -0.080 A 
ATOM     23  C   LIG    1       -0.834   5.570  -1.793  0.00  0.00    +0.000 A 
ATOM     24  C   LIG    1       -1.034   6.924  -1.989  0.00  0.00    +0.000 A 
ATOM     25  C   LIG    1        0.032   7.739  -2.323  0.00  0.00    +0.000 A 
ATOM     26  C   LIG    1        1.298   7.201  -2.455  0.00  0.00    +0.000 A 
ATOM     27  C   LIG    1        1.499   5.849  -2.254  0.00  0.00    +0.010 A 
ENDBRANCH  21  22
ENDBRANCH  20  21
ENDBRANCH  17  20
ENDBRANCH  16  17
ENDBRANCH   1  16
TORSDOF 6
