REMARK  Name = ZINCrH00000No4P8.0
REMARK                            x       y       z     vdW  Elec       q    Type
REMARK                         _______ _______ _______ _____ _____    ______ ____
ROOT
ATOM      1  N   LIG    1       -3.816   6.328   0.999  0.00  0.00    -0.620 N 
ATOM      2  C   LIG    1       -2.733   5.725   1.537  0.00  0.00    +0.520 C 
ATOM      3  C   LIG    1       -2.365   5.225   0.161  0.00  0.00    +0.150 C 
ATOM      4  O   LIG    1       -2.259   5.628   2.649  0.00  0.00    -0.470 OA
ATOM      5  C   LIG    1       -3.607   5.928  -0.398  0.00  0.00    +0.320 C 
ENDROOT
BRANCH   5   6
ATOM      6  C   LIG    1       -4.657   4.989  -0.933  0.00  0.00    -0.050 A 
ATOM      7  C   LIG    1       -5.519   4.349  -0.062  0.00  0.00    -0.010 A 
ATOM      8  C   LIG    1       -6.487   3.491  -0.551  0.00  0.00    +0.050 A 
ATOM      9  C   LIG    1       -6.589   3.263  -1.909  0.00  0.00    -0.070 A 
ATOM     10  C   LIG    1       -5.721   3.901  -2.785  0.00  0.00    +0.130 A 
ATOM     11  C   LIG    1       -4.754   4.765  -2.293  0.00  0.00    +0.000 A 
BRANCH  10  12
ATOM     12  O   LIG    1       -5.819   3.679  -4.122  0.00  0.00    -0.320 OA
ATOM     13  C   LIG    1       -6.838   2.776  -4.557  0.00  0.00    +0.250 C 
ENDBRANCH  10  12
ENDBRANCH   5   6
BRANCH   1  14
ATOM     14  C   LIG    1       -4.871   7.134   1.618  0.00  0.00    +0.280 C 
BRANCH  14  15
ATOM     15  C   LIG    1       -4.461   8.607   1.607  0.00  0.00    +0.010 C 
BRANCH  15  16
ATOM     16  C   LIG    1       -5.564   9.449   2.253  0.00  0.00    +0.020 C 
BRANCH  16  17
ATOM     17  C   LIG    1       -5.153  10.922   2.242  0.00  0.00    +0.160 C 
BRANCH  17  19
ATOM     18  C   LIG    1       -5.898  13.108   2.887  0.00  0.00    +0.200 C 
ATOM     19  O   LIG    1       -6.183  11.708   2.846  0.00  0.00    -0.390 OA
ENDBRANCH  17  19
ENDBRANCH  16  17
ENDBRANCH  15  16
ENDBRANCH  14  15
ENDBRANCH   1  14
BRANCH   3  20
ATOM     20  O   LIG    1       -2.421   3.802   0.044  0.00  0.00    -0.270 OA
BRANCH  20  21
ATOM     21  C   LIG    1       -1.300   3.111   0.376  0.00  0.00    +0.120 A 
ATOM     22  C   LIG    1       -0.206   3.777   0.910  0.00  0.00    -0.060 A 
ATOM     23  C   LIG    1        0.933   3.072   1.247  0.00  0.00    +0.040 A 
ATOM     24  C   LIG    1        0.984   1.704   1.053  0.00  0.00    -0.030 A 
ATOM     25  C   LIG    1       -0.105   1.038   0.521  0.00  0.00    +0.040 A 
ATOM     26  C   LIG    1       -1.244   1.739   0.177  0.00  0.00    -0.110 A 
ATOM     27  C   LIG    1       -2.428   1.013  -0.408  0.00  0.00    +0.090 C 
ENDBRANCH  20  21
ENDBRANCH   3  20
TORSDOF 9
