REMARK  Name = ZINCpe00000MJKEW.2
REMARK                            x       y       z     vdW  Elec       q    Type
REMARK                         _______ _______ _______ _____ _____    ______ ____
ROOT
ATOM      1  C   LIG    1        1.553   3.225   0.780  0.00  0.00    +0.300 C 
ENDROOT
BRANCH   1  10
ATOM      2  O   LIG    1        2.976  -2.620  -2.078  0.00  0.00    -0.540 OA
ATOM      3  C   LIG    1        2.475  -1.997  -1.163  0.00  0.00    +0.700 C 
ATOM      4  N   LIG    1        2.336  -2.479   0.080  0.00  0.00    -0.680 N 
ATOM      5  H   LIG    1        2.622  -3.364   0.357  0.00  0.00    +0.430 HD
ATOM      6  C   LIG    1        1.747  -1.580   0.899  0.00  0.00    +0.540 C 
ATOM      7  C   LIG    1        1.489  -0.376   0.037  0.00  0.00    +0.110 C 
ATOM      8  C   LIG    1        0.002  -0.004   0.002  0.00  0.00    +0.060 C 
ATOM      9  C   LIG    1       -0.019   1.539   0.011  0.00  0.00    +0.180 C 
ATOM     10  N   LIG    1        1.390   1.991  -0.001  0.00  0.00    -0.500 NA
ATOM     11  C   LIG    1        2.183   0.879   0.589  0.00  0.00    +0.230 C 
ATOM     12  O   LIG    1        1.484  -1.714   2.075  0.00  0.00    -0.450 OA
ATOM     13  N   LIG    1        1.995  -0.741  -1.283  0.00  0.00    -0.700 N 
ATOM     14  H   LIG    1        1.988  -0.193  -2.083  0.00  0.00    +0.450 HD
ENDBRANCH   1  10
BRANCH   1  15
ATOM     15  C   LIG    1        1.372   2.921   2.244  0.00  0.00    -0.280 A 
ATOM     16  C   LIG    1        0.205   2.964   2.928  0.00  0.00    +0.240 A 
ATOM     17  N   LIG    1        0.465   2.624   4.208  0.00  0.00    -0.360 N 
ATOM     18  N   LIG    1        1.839   2.371   4.316  0.00  0.00    -0.280 NA
ATOM     19  C   LIG    1        2.381   2.550   3.139  0.00  0.00    +0.230 A 
BRANCH  17  20
ATOM     20  C   LIG    1       -0.515   2.539   5.294  0.00  0.00    +0.390 C 
BRANCH  20  21
ATOM     21  C   LIG    1       -0.445   1.174   5.928  0.00  0.00    -0.130 A 
ATOM     22  C   LIG    1       -1.238   0.148   5.449  0.00  0.00    +0.060 A 
ATOM     23  C   LIG    1       -1.171  -1.105   6.027  0.00  0.00    -0.010 A 
ATOM     24  C   LIG    1       -0.316  -1.331   7.093  0.00  0.00    +0.110 A 
ATOM     25  C   LIG    1        0.474  -0.302   7.575  0.00  0.00    -0.020 A 
ATOM     26  F   LIG    1       -0.254  -2.555   7.662  0.00  0.00    -0.140 F 
ATOM     27  C   LIG    1        0.409   0.950   6.992  0.00  0.00    +0.080 A 
ENDBRANCH  20  21
ENDBRANCH  17  20
ENDBRANCH   1  15
TORSDOF 4
