REMARK  Name = ZINCpe00000bxoMx.0
REMARK                            x       y       z     vdW  Elec       q    Type
REMARK                         _______ _______ _______ _____ _____    ______ ____
ROOT
ATOM      1  C   LIG    1       -5.327   1.831  -2.307  0.00  0.00    +0.270 C 
ATOM      2  C   LIG    1       -4.913   2.957  -3.207  0.00  0.00    -0.030 C 
ATOM      3  C   LIG    1       -3.714   3.130  -3.664  0.00  0.00    -0.050 C 
ATOM      4  C   LIG    1       -2.569   2.211  -3.362  0.00  0.00    +0.310 C 
ATOM      5  N   LIG    1       -2.962   1.276  -2.297  0.00  0.00    -0.620 N 
ATOM      6  C   LIG    1       -2.126   0.973  -1.285  0.00  0.00    +0.520 C 
ATOM      7  O   LIG    1       -2.477   0.203  -0.417  0.00  0.00    -0.520 OA
ATOM      8  C   LIG    1       -4.311   0.688  -2.380  0.00  0.00    +0.290 C 
ENDROOT
BRANCH   1  10
ATOM      9  C   LIG    1       -7.761   1.952  -2.294  0.00  0.00    +0.600 C 
ATOM     10  N   LIG    1       -6.641   1.339  -2.727  0.00  0.00    -0.720 N 
ATOM     11  H   LIG    1       -6.706   0.571  -3.316  0.00  0.00    +0.400 HD
ATOM     12  O   LIG    1       -7.680   2.914  -1.554  0.00  0.00    -0.540 OA
BRANCH   9  14
ATOM     13  C   LIG    1      -10.309   1.976  -2.350  0.00  0.00    +0.170 A 
ATOM     14  C   LIG    1       -9.083   1.456  -2.716  0.00  0.00    -0.300 A 
ATOM     15  C   LIG    1       -9.334   0.355  -3.566  0.00  0.00    +0.270 A 
ATOM     16  N   LIG    1      -10.626   0.235  -3.699  0.00  0.00    -0.300 NA
ATOM     17  N   LIG    1      -11.255   1.238  -2.952  0.00  0.00    -0.360 N 
ATOM     18  C   LIG    1      -12.701   1.444  -2.841  0.00  0.00    +0.360 C 
BRANCH  13  20
ATOM     19  C   LIG    1      -10.654   2.676   0.003  0.00  0.00    +0.040 C 
ATOM     20  C   LIG    1      -10.541   3.158  -1.445  0.00  0.00    +0.120 C 
ENDBRANCH  13  20
ENDBRANCH   9  14
ENDBRANCH   1  10
BRANCH   6  21
ATOM     21  C   LIG    1       -0.753   1.593  -1.232  0.00  0.00    +0.020 C 
BRANCH  21  22
ATOM     22  C   LIG    1       -0.013   1.086   0.008  0.00  0.00    +0.240 C 
BRANCH  22  23
ATOM     23  C   LIG    1        1.423   1.615  -0.003  0.00  0.00    -0.050 C 
ATOM     24  C   LIG    1        2.199   1.009   1.168  0.00  0.00    +0.030 C 
ATOM     25  C   LIG    1        1.405   3.139   0.131  0.00  0.00    +0.020 C 
ENDBRANCH  22  23
BRANCH  22  26
ATOM     26  O   LIG    1       -0.682   1.547   1.184  0.00  0.00    -0.540 OA
ATOM     27  H   LIG    1       -0.732   2.510   1.256  0.00  0.00    +0.370 HD
ENDBRANCH  22  26
ENDBRANCH  21  22
ENDBRANCH   6  21
TORSDOF 7
