REMARK  Name = ZINCvU0000000CAn.0
REMARK                            x       y       z     vdW  Elec       q    Type
REMARK                         _______ _______ _______ _____ _____    ______ ____
ROOT
ATOM      1  C   LIG    1        5.886   0.826  -2.888  0.00  0.00    -0.150 A 
ATOM      2  C   LIG    1        7.250   0.670  -3.079  0.00  0.00    +0.120 A 
ATOM      3  C   LIG    1        8.107   0.670  -1.969  0.00  0.00    -0.090 A 
ATOM      4  C   LIG    1        9.496   0.509  -2.125  0.00  0.00    +0.040 A 
ATOM      5  C   LIG    1       10.302   0.513  -1.029  0.00  0.00    +0.000 A 
ATOM      6  C   LIG    1        9.774   0.676   0.250  0.00  0.00    +0.040 A 
ATOM      7  C   LIG    1        8.435   0.836   0.440  0.00  0.00    +0.000 A 
ATOM      8  C   LIG    1        7.569   0.837  -0.667  0.00  0.00    +0.010 A 
ATOM      9  C   LIG    1        6.183   0.999  -0.501  0.00  0.00    -0.080 A 
ATOM     10  C   LIG    1        5.361   0.996  -1.589  0.00  0.00    +0.190 A 
ENDROOT
BRANCH   1  13
ATOM     11  N   LIG    1        5.475   0.658  -5.293  0.00  0.00    -0.680 N 
ATOM     12  H   LIG    1        6.434   0.622  -5.431  0.00  0.00    +0.410 HD
ATOM     13  C   LIG    1        4.978   0.820  -4.051  0.00  0.00    +0.560 C 
ATOM     14  O   LIG    1        3.781   0.962  -3.888  0.00  0.00    -0.480 OA
BRANCH  11  19
ATOM     15  C   LIG    1        2.515  -0.193  -7.321  0.00  0.00    -0.150 A 
ATOM     16  C   LIG    1        2.898   0.322  -8.564  0.00  0.00    +0.050 A 
ATOM     17  C   LIG    1        4.123   0.939  -8.706  0.00  0.00    +0.030 A 
ATOM     18  C   LIG    1        4.974   1.056  -7.622  0.00  0.00    +0.010 A 
ATOM     19  C   LIG    1        4.607   0.542  -6.384  0.00  0.00    +0.140 A 
ATOM     20  C   LIG    1        3.379  -0.080  -6.228  0.00  0.00    +0.090 A 
BRANCH  15  22
ATOM     21  C   LIG    1        0.280  -0.974  -8.346  0.00  0.00    +0.070 C 
ATOM     22  C   LIG    1        1.208  -0.853  -7.166  0.00  0.00    +0.390 C 
ATOM     23  O   LIG    1        0.879  -1.300  -6.087  0.00  0.00    -0.450 OA
ENDBRANCH  15  22
ENDBRANCH  11  19
ENDBRANCH   1  13
BRANCH  10  24
ATOM     24  O   LIG    1        4.024   1.152  -1.420  0.00  0.00    -0.270 OA
BRANCH  24  25
ATOM     25  C   LIG    1        3.553   1.314  -0.081  0.00  0.00    +0.300 C 
BRANCH  25  26
ATOM     26  C   LIG    1        2.054   1.473  -0.091  0.00  0.00    -0.220 A 
ATOM     27  C   LIG    1        1.112   0.503  -0.008  0.00  0.00    +0.010 A 
ATOM     28  O   LIG    1       -0.075   1.122  -0.058  0.00  0.00    +0.100 OA
ATOM     29  N   LIG    1        0.052   2.321  -0.158  0.00  0.00    -0.360 NA
ATOM     30  C   LIG    1        1.352  -0.980   0.115  0.00  0.00    +0.200 C 
ATOM     31  C   LIG    1        1.306   2.668  -0.189  0.00  0.00    +0.040 A 
ATOM     32  C   LIG    1        1.853   4.068  -0.307  0.00  0.00    +0.160 C 
ENDBRANCH  25  26
ENDBRANCH  24  25
ENDBRANCH  10  24
TORSDOF 6
