REMARK  Name = ZINCnE000001C6Tb.0
REMARK                            x       y       z     vdW  Elec       q    Type
REMARK                         _______ _______ _______ _____ _____    ______ ____
ROOT
ATOM      1  N   LIG    1        1.213   2.064   0.095  0.00  0.00    -0.610 N 
ATOM      2  C   LIG    1        1.567   2.581  -1.098  0.00  0.00    +0.520 C 
ATOM      3  O   LIG    1        0.724   2.776  -1.949  0.00  0.00    -0.510 OA
ENDROOT
BRANCH   2   4
ATOM      4  C   LIG    1        3.010   2.916  -1.376  0.00  0.00    -0.020 C 
ATOM      5  C   LIG    1        3.453   4.058  -0.459  0.00  0.00    +0.020 C 
ATOM      6  C   LIG    1        2.584   5.289  -0.720  0.00  0.00    +0.000 C 
ATOM      7  C   LIG    1        2.735   5.720  -2.181  0.00  0.00    +0.010 C 
ATOM      8  C   LIG    1        2.291   4.579  -3.098  0.00  0.00    -0.070 C 
ATOM      9  C   LIG    1        3.161   3.347  -2.837  0.00  0.00    +0.050 C 
BRANCH   8  10
ATOM     10  C   LIG    1        2.440   5.003  -4.536  0.00  0.00    +0.500 C 
ATOM     11  O   LIG    1        3.535   4.967  -5.072  0.00  0.00    -0.710 OA
ATOM     12  O   LIG    1        1.466   5.382  -5.164  0.00  0.00    -0.710 OA
ENDBRANCH   8  10
ENDBRANCH   2   4
BRANCH   1  13
ATOM     13  C   LIG    1        2.205   1.951   1.167  0.00  0.00    +0.300 C 
BRANCH  13  15
ATOM     14  C   LIG    1        1.140   2.007   3.364  0.00  0.00    +0.010 C 
ATOM     15  C   LIG    1        1.707   2.677   2.391  0.00  0.00    -0.130 C 
ATOM     16  C   LIG    1        1.860   4.172   2.494  0.00  0.00    +0.070 C 
ENDBRANCH  13  15
ENDBRANCH   1  13
BRANCH   1  17
ATOM     17  C   LIG    1       -0.163   1.615   0.320  0.00  0.00    +0.320 C 
BRANCH  17  18
ATOM     18  C   LIG    1       -0.260   0.136   0.051  0.00  0.00    -0.100 A 
ATOM     19  C   LIG    1       -0.669  -0.316  -1.190  0.00  0.00    +0.030 A 
ATOM     20  C   LIG    1       -0.752  -1.673  -1.438  0.00  0.00    +0.000 A 
ATOM     21  C   LIG    1       -0.437  -2.579  -0.443  0.00  0.00    +0.000 A 
ATOM     22  C   LIG    1       -0.032  -2.127   0.799  0.00  0.00    -0.010 A 
ATOM     23  C   LIG    1        0.056  -0.770   1.046  0.00  0.00    +0.010 A 
ENDBRANCH  17  18
ENDBRANCH   1  17
TORSDOF 6
