REMARK  Name = ZINCpk00000KfKVk.2
REMARK                            x       y       z     vdW  Elec       q    Type
REMARK                         _______ _______ _______ _____ _____    ______ ____
ROOT
ATOM      1  N   LIG    1       -1.714   5.195   2.499  0.00  0.00    -0.500 NA
ATOM      2  C   LIG    1       -2.385   5.027   1.184  0.00  0.00    +0.160 C 
ATOM      3  C   LIG    1       -1.397   4.185   0.349  0.00  0.00    +0.000 C 
ATOM      4  C   LIG    1       -0.541   3.427   1.384  0.00  0.00    +0.180 C 
ATOM      5  C   LIG    1       -1.081   3.875   2.759  0.00  0.00    +0.190 C 
ENDROOT
BRANCH   4   6
ATOM      6  N   LIG    1       -0.706   1.976   1.219  0.00  0.00    -0.530 NA
ATOM      7  C   LIG    1       -2.128   1.608   1.194  0.00  0.00    +0.190 C 
BRANCH   6   8
ATOM      8  C   LIG    1       -0.018   1.503   0.010  0.00  0.00    +0.350 C 
BRANCH   8   9
ATOM      9  C   LIG    1        0.002  -0.004   0.002  0.00  0.00    +0.170 A 
ATOM     10  N   LIG    1       -0.905  -0.784  -0.514  0.00  0.00    -0.280 NA
ATOM     11  N   LIG    1       -0.559  -2.012  -0.342  0.00  0.00    -0.290 NA
ATOM     12  C   LIG    1        0.575  -2.057   0.298  0.00  0.00    +0.170 A 
ATOM     13  C   LIG    1        1.321  -3.301   0.704  0.00  0.00    +0.240 C 
ATOM     14  O   LIG    1        0.956  -0.789   0.530  0.00  0.00    -0.220 OA
ENDBRANCH   8   9
ENDBRANCH   6   8
ENDBRANCH   4   6
BRANCH   1  15
ATOM     15  C   LIG    1       -2.687   5.528   3.548  0.00  0.00    +0.220 C 
BRANCH  15  20
ATOM     16  C   LIG    1       -3.051   9.292   3.692  0.00  0.00    -0.140 A 
ATOM     17  C   LIG    1       -4.184   9.486   2.901  0.00  0.00    +0.040 A 
ATOM     18  C   LIG    1       -4.818   8.402   2.330  0.00  0.00    +0.000 A 
ATOM     19  C   LIG    1       -4.332   7.124   2.541  0.00  0.00    +0.030 A 
ATOM     20  C   LIG    1       -3.209   6.924   3.324  0.00  0.00    -0.080 A 
ATOM     21  C   LIG    1       -2.570   7.999   3.905  0.00  0.00    +0.100 A 
BRANCH  16  25
ATOM     22  C   LIG    1       -2.161  12.843   4.714  0.00  0.00    +0.290 C 
ATOM     23  N   LIG    1       -2.839  11.696   4.105  0.00  0.00    -0.730 N 
ATOM     24  H   LIG    1       -3.626  11.834   3.555  0.00  0.00    +0.400 HD
ATOM     25  C   LIG    1       -2.368  10.450   4.307  0.00  0.00    +0.560 C 
ATOM     26  O   LIG    1       -1.381  10.277   4.996  0.00  0.00    -0.530 OA
ENDBRANCH  16  25
ENDBRANCH  15  20
ENDBRANCH   1  15
TORSDOF 6
