REMARK  Name = ZINCpk00000y6tGh.0
REMARK                            x       y       z     vdW  Elec       q    Type
REMARK                         _______ _______ _______ _____ _____    ______ ____
ROOT
ATOM      1  C   LIG    1        2.056  -2.221  -1.449  0.00  0.00    +0.530 C 
ATOM      2  N   LIG    1        2.557  -3.446  -1.706  0.00  0.00    -0.620 N 
ATOM      3  C   LIG    1        2.970  -4.432  -0.697  0.00  0.00    +0.240 C 
ATOM      4  C   LIG    1        3.450  -5.689  -1.454  0.00  0.00    +0.060 C 
ATOM      5  C   LIG    1        2.751  -5.553  -2.832  0.00  0.00    +0.050 C 
ATOM      6  C   LIG    1        2.777  -4.021  -3.046  0.00  0.00    +0.280 C 
ATOM      7  O   LIG    1        1.748  -1.488  -2.365  0.00  0.00    -0.530 OA
ENDROOT
BRANCH   5   8
ATOM      8  C   LIG    1        3.533  -6.263  -3.907  0.00  0.00    +0.240 A 
ATOM      9  C   LIG    1        2.945  -7.260  -4.630  0.00  0.00    -0.190 A 
ATOM     10  C   LIG    1        3.695  -7.909  -5.627  0.00  0.00    +0.540 A 
ATOM     11  N   LIG    1        4.972  -7.522  -5.834  0.00  0.00    -0.650 N 
ATOM     12  H   LIG    1        5.507  -7.955  -6.517  0.00  0.00    +0.410 HD
ATOM     13  C   LIG    1        5.505  -6.522  -5.081  0.00  0.00    +0.640 A 
ATOM     14  O   LIG    1        3.201  -8.804  -6.293  0.00  0.00    -0.540 OA
ATOM     15  N   LIG    1        4.794  -5.915  -4.152  0.00  0.00    -0.590 NA
BRANCH  13  16
ATOM     16  N   LIG    1        6.801  -6.135  -5.296  0.00  0.00    -0.590 N 
ATOM     17  C   LIG    1        7.601  -6.798  -6.330  0.00  0.00    +0.310 C 
ATOM     18  C   LIG    1        7.387  -5.060  -4.493  0.00  0.00    +0.330 C 
ENDBRANCH  13  16
ENDBRANCH   5   8
BRANCH   1  19
ATOM     19  C   LIG    1        1.879  -1.764  -0.025  0.00  0.00    +0.170 C 
BRANCH  19  26
ATOM     20  C   LIG    1        3.501   1.046  -0.025  0.00  0.00    +0.160 C 
ATOM     21  C   LIG    1        2.006   0.859  -0.013  0.00  0.00    +0.030 A 
ATOM     22  N   LIG    1        1.102   1.796   0.001  0.00  0.00    -0.370 NA
ATOM     23  O   LIG    1       -0.016   1.336   0.009  0.00  0.00    +0.100 OA
ATOM     24  C   LIG    1        0.002  -0.004   0.002  0.00  0.00    -0.010 A 
ATOM     25  C   LIG    1       -1.193  -0.923   0.008  0.00  0.00    +0.190 C 
ATOM     26  C   LIG    1        1.306  -0.370  -0.012  0.00  0.00    -0.190 A 
ENDBRANCH  19  26
ENDBRANCH   1  19
TORSDOF 4
