REMARK  Name = ZINCnE000001TQp4.0
REMARK                            x       y       z     vdW  Elec       q    Type
REMARK                         _______ _______ _______ _____ _____    ______ ____
ROOT
ATOM      1  C   LIG    1       -0.055   4.246   0.017  0.00  0.00    -0.130 A 
ATOM      2  C   LIG    1        0.821   3.550   0.855  0.00  0.00    +0.080 A 
ATOM      3  C   LIG    1        0.839   2.175   0.840  0.00  0.00    +0.050 A 
ATOM      4  C   LIG    1       -0.017   1.474  -0.013  0.00  0.00    +0.030 A 
ATOM      5  C   LIG    1       -0.888   2.169  -0.855  0.00  0.00    +0.040 A 
ATOM      6  C   LIG    1       -0.911   3.545  -0.836  0.00  0.00    +0.050 A 
ENDROOT
BRANCH   1   8
ATOM      7  O   LIG    1        0.965   6.345   0.125  0.00  0.00    -0.530 OA
ATOM      8  C   LIG    1       -0.076   5.723   0.033  0.00  0.00    +0.580 C 
ATOM      9  N   LIG    1       -1.248   6.381  -0.055  0.00  0.00    -0.610 N 
ATOM     10  C   LIG    1       -2.588   5.768  -0.066  0.00  0.00    +0.240 C 
ATOM     11  C   LIG    1       -3.616   6.919  -0.139  0.00  0.00    +0.030 C 
ATOM     12  C   LIG    1       -2.811   8.134   0.414  0.00  0.00    +0.000 C 
ATOM     13  C   LIG    1       -2.828   7.993   1.923  0.00  0.00    +0.010 C 
ATOM     14  C   LIG    1       -1.749   8.871   2.553  0.00  0.00    +0.000 C 
ATOM     15  C   LIG    1       -0.379   8.401   2.052  0.00  0.00    +0.010 C 
ATOM     16  C   LIG    1       -0.322   8.607   0.538  0.00  0.00    +0.020 C 
ATOM     17  C   LIG    1       -1.415   7.833  -0.162  0.00  0.00    +0.220 C 
ENDBRANCH   1   8
BRANCH   4  18
ATOM     18  C   LIG    1        0.004  -0.004  -0.029  0.00  0.00    +0.160 A 
ATOM     19  N   LIG    1        0.777  -0.757   0.699  0.00  0.00    -0.290 NA
ATOM     20  N   LIG    1        0.487  -2.094   0.391  0.00  0.00    -0.380 NA
ATOM     21  C   LIG    1       -0.479  -2.077  -0.552  0.00  0.00    +0.350 A 
ATOM     22  S   LIG    1       -1.200  -3.445  -1.288  0.00  0.00    -0.690 S 
ATOM     23  O   LIG    1       -0.773  -0.790  -0.806  0.00  0.00    -0.260 OA
ENDBRANCH   4  18
TORSDOF 2
