REMARK  Name = ZINCrD0000073pK2.0
REMARK                            x       y       z     vdW  Elec       q    Type
REMARK                         _______ _______ _______ _____ _____    ______ ____
ROOT
ATOM      1  N   LIG    1       -1.640  -1.854   0.008  0.00  0.00    -0.730 N 
ATOM      2  H   LIG    1       -0.894  -2.474  -0.003  0.00  0.00    +0.400 HD
ATOM      3  C   LIG    1       -1.412  -0.526   0.013  0.00  0.00    +0.520 C 
ATOM      4  O   LIG    1       -2.344   0.250   0.026  0.00  0.00    -0.510 OA
ENDROOT
BRANCH   1   5
ATOM      5  C   LIG    1       -3.014  -2.361   0.018  0.00  0.00    +0.270 C 
BRANCH   5   6
ATOM      6  C   LIG    1       -2.994  -3.891   0.010  0.00  0.00    +0.070 C 
BRANCH   6  10
ATOM      7  C   LIG    1       -7.003  -5.370   0.040  0.00  0.00    +0.130 A 
ATOM      8  C   LIG    1       -6.362  -5.123  -1.166  0.00  0.00    -0.020 A 
ATOM      9  C   LIG    1       -5.066  -4.645  -1.173  0.00  0.00    +0.060 A 
ATOM     10  C   LIG    1       -4.407  -4.412   0.020  0.00  0.00    -0.120 A 
ATOM     11  C   LIG    1       -5.042  -4.663   1.223  0.00  0.00    +0.060 A 
ATOM     12  C   LIG    1       -6.340  -5.136   1.236  0.00  0.00    -0.080 A 
BRANCH   7  14
ATOM     13  C   LIG    1       -8.874  -6.073   1.327  0.00  0.00    +0.250 C 
ATOM     14  O   LIG    1       -8.277  -5.842   0.050  0.00  0.00    -0.320 OA
ENDBRANCH   7  14
ENDBRANCH   6  10
ENDBRANCH   5   6
ENDBRANCH   1   5
BRANCH   3  15
ATOM     15  C   LIG    1        0.002  -0.004   0.002  0.00  0.00    +0.250 C 
BRANCH  15  16
ATOM     16  O   LIG    1       -0.018   1.448   0.010  0.00  0.00    -0.330 OA
BRANCH  16  17
ATOM     17  C   LIG    1        1.175   2.076   0.002  0.00  0.00    +0.530 C 
ATOM     18  O   LIG    1        2.203   1.428  -0.011  0.00  0.00    -0.500 OA
BRANCH  17  19
ATOM     19  C   LIG    1        1.232   3.545   0.009  0.00  0.00    -0.150 A 
ATOM     20  C   LIG    1        0.126   4.332   0.025  0.00  0.00    +0.000 A 
ATOM     21  S   LIG    1        0.555   5.980   0.030  0.00  0.00    +0.210 S 
ATOM     22  C   LIG    1        2.273   5.616   0.011  0.00  0.00    -0.210 A 
ATOM     23  C   LIG    1        3.381   6.650   0.006  0.00  0.00    +0.120 C 
ATOM     24  C   LIG    1        4.691   5.967   0.419  0.00  0.00    -0.010 C 
ATOM     25  C   LIG    1        5.863   6.923   0.184  0.00  0.00    +0.030 C 
ATOM     26  C   LIG    1        4.880   4.707  -0.430  0.00  0.00    +0.020 C 
ATOM     27  C   LIG    1        3.855   3.654  -0.003  0.00  0.00    +0.110 C 
ATOM     28  C   LIG    1        2.475   4.291   0.007  0.00  0.00    -0.050 A 
ENDBRANCH  17  19
ENDBRANCH  16  17
ENDBRANCH  15  16
ENDBRANCH   3  15
TORSDOF 8
