REMARK  Name = ZINCpe00000zc0W5.0
REMARK                            x       y       z     vdW  Elec       q    Type
REMARK                         _______ _______ _______ _____ _____    ______ ____
ROOT
ATOM      1  C   LIG    1       -6.394   3.141   0.045  0.00  0.00    +0.570 C 
ATOM      2  N   LIG    1       -6.099   1.826   0.038  0.00  0.00    -0.630 N 
ATOM      3  H   LIG    1       -6.812   1.169   0.038  0.00  0.00    +0.430 HD
ATOM      4  O   LIG    1       -5.500   3.965   0.045  0.00  0.00    -0.470 OA
ENDROOT
BRANCH   1   9
ATOM      5  C   LIG    1      -10.626  -0.509   0.050  0.00  0.00    +0.220 C 
ATOM      6  C   LIG    1      -10.120   0.911   0.052  0.00  0.00    +0.290 A 
ATOM      7  N   LIG    1       -8.855   1.264   0.048  0.00  0.00    -0.360 NA
ATOM      8  N   LIG    1       -8.821   2.664   0.048  0.00  0.00    -0.320 N 
ATOM      9  C   LIG    1       -7.803   3.581   0.053  0.00  0.00    +0.150 A 
ATOM     10  C   LIG    1       -8.118   4.915   0.061  0.00  0.00    +0.050 A 
ATOM     11  C   LIG    1       -9.466   5.295   0.069  0.00  0.00    +0.420 A 
ATOM     12  N   LIG    1      -10.414   4.387   0.068  0.00  0.00    -0.430 NA
ATOM     13  C   LIG    1      -10.122   3.082   0.061  0.00  0.00    +0.450 A 
ATOM     14  N   LIG    1      -10.884   1.993   0.060  0.00  0.00    -0.510 NA
ENDBRANCH   1   9
BRANCH   2  15
ATOM     15  C   LIG    1       -4.769   1.410   0.030  0.00  0.00    +0.300 A 
ATOM     16  C   LIG    1       -3.676   2.219   0.036  0.00  0.00    -0.080 A 
ATOM     17  C   LIG    1       -2.534   1.398   0.021  0.00  0.00    +0.170 A 
ATOM     18  N   LIG    1       -2.930   0.143   0.017  0.00  0.00    -0.280 NA
ATOM     19  N   LIG    1       -4.331   0.124   0.023  0.00  0.00    -0.390 N 
ATOM     20  C   LIG    1       -5.175  -1.073   0.020  0.00  0.00    +0.360 C 
BRANCH  17  21
ATOM     21  C   LIG    1       -1.124   1.866   0.017  0.00  0.00    -0.170 A 
ATOM     22  C   LIG    1       -0.013   1.076   0.008  0.00  0.00    +0.270 A 
ATOM     23  N   LIG    1        1.065   1.887   0.002  0.00  0.00    -0.370 N 
ATOM     24  N   LIG    1        0.614   3.213   0.013  0.00  0.00    -0.290 NA
ATOM     25  C   LIG    1        2.465   1.456  -0.013  0.00  0.00    +0.360 C 
ATOM     26  C   LIG    1       -0.693   3.207   0.025  0.00  0.00    +0.270 A 
ENDBRANCH  17  21
ENDBRANCH   2  15
TORSDOF 3
