REMARK  Name = ZINCrH000004mOMt.0
REMARK                            x       y       z     vdW  Elec       q    Type
REMARK                         _______ _______ _______ _____ _____    ______ ____
ROOT
ATOM      1  C   LIG    1       -3.279  -5.289  -1.559  0.00  0.00    +0.210 A 
ATOM      2  C   LIG    1       -2.227  -4.541  -2.066  0.00  0.00    -0.070 A 
ATOM      3  C   LIG    1       -2.245  -3.164  -1.960  0.00  0.00    +0.120 A 
ATOM      4  C   LIG    1       -3.310  -2.530  -1.335  0.00  0.00    +0.100 A 
ATOM      5  C   LIG    1       -4.363  -3.280  -0.828  0.00  0.00    +0.130 A 
ATOM      6  C   LIG    1       -4.347  -4.656  -0.940  0.00  0.00    -0.690 A 
ENDROOT
BRANCH   4   7
ATOM      7  N   LIG    1       -3.325  -1.133  -1.222  0.00  0.00    -0.670 N 
ATOM      8  H   LIG    1       -4.168  -0.653  -1.257  0.00  0.00    +0.410 HD
ATOM      9  C   LIG    1       -2.171  -0.457  -1.063  0.00  0.00    +0.520 C 
ATOM     10  O   LIG    1       -1.128  -1.062  -0.922  0.00  0.00    -0.510 OA
BRANCH   9  11
ATOM     11  C   LIG    1       -2.174   1.050  -1.060  0.00  0.00    -0.010 C 
ATOM     12  C   LIG    1       -0.746   1.562  -0.864  0.00  0.00    +0.040 C 
ATOM     13  C   LIG    1       -0.199   1.051   0.470  0.00  0.00    +0.030 C 
ATOM     14  C   LIG    1       -1.083   1.557   1.611  0.00  0.00    +0.000 C 
ATOM     15  C   LIG    1       -2.511   1.044   1.416  0.00  0.00    +0.010 C 
ATOM     16  C   LIG    1       -3.058   1.556   0.082  0.00  0.00    +0.040 C 
BRANCH  14  17
ATOM     17  C   LIG    1       -0.535   1.046   2.945  0.00  0.00    -0.060 C 
ATOM     18  C   LIG    1       -0.532  -0.484   2.942  0.00  0.00    +0.010 C 
ATOM     19  C   LIG    1       -1.420   1.551   4.087  0.00  0.00    +0.020 C 
ATOM     20  C   LIG    1        0.893   1.558   3.141  0.00  0.00    +0.020 C 
ENDBRANCH  14  17
ENDBRANCH   9  11
ENDBRANCH   4   7
BRANCH   6  21
ATOM     21  S   LIG    1       -5.683  -5.608  -0.296  0.00  0.00    +2.700 S 
ATOM     22  O   LIG    1       -6.618  -4.679   0.235  0.00  0.00    -0.960 OA
ATOM     23  O   LIG    1       -5.099  -6.649   0.474  0.00  0.00    -0.940 OA
BRANCH  21  24
ATOM     24  N   LIG    1       -6.428  -6.338  -1.582  0.00  0.00    -1.000 NA
ATOM     25  C   LIG    1       -7.529  -5.662  -2.272  0.00  0.00    +0.290 C 
ATOM     26  C   LIG    1       -5.987  -7.662  -2.029  0.00  0.00    +0.300 C 
ENDBRANCH  21  24
ENDBRANCH   6  21
BRANCH   1  28
ATOM     27  C   LIG    1       -2.134  -7.230  -2.320  0.00  0.00    +0.250 C 
ATOM     28  O   LIG    1       -3.264  -6.644  -1.670  0.00  0.00    -0.310 OA
ENDBRANCH   1  28
TORSDOF 6
