REMARK  Name = ZINCrH000004vDLa.0
REMARK                            x       y       z     vdW  Elec       q    Type
REMARK                         _______ _______ _______ _____ _____    ______ ____
ROOT
ATOM      1  O   LIG    1        3.732  -1.882  -0.129  0.00  0.00    -0.510 OA
ATOM      2  C   LIG    1        3.706  -0.672  -0.236  0.00  0.00    +0.570 C 
ATOM      3  N   LIG    1        4.849   0.037  -0.146  0.00  0.00    -0.590 N 
ENDROOT
BRANCH   2   4
ATOM      4  C   LIG    1        2.419   0.024  -0.467  0.00  0.00    -0.060 A 
ATOM      5  C   LIG    1        2.198   1.311   0.035  0.00  0.00    -0.010 A 
ATOM      6  C   LIG    1        0.984   1.926  -0.202  0.00  0.00    +0.320 A 
ATOM      7  N   LIG    1        0.038   1.318  -0.890  0.00  0.00    -0.480 NA
ATOM      8  C   LIG    1        0.203   0.102  -1.383  0.00  0.00    +0.350 A 
ATOM      9  C   LIG    1        1.393  -0.587  -1.191  0.00  0.00    +0.020 A 
BRANCH   8  10
ATOM     10  N   LIG    1       -0.834  -0.497  -2.106  0.00  0.00    -0.410 N 
ATOM     11  C   LIG    1       -2.026   0.084  -2.455  0.00  0.00    +0.150 A 
ATOM     12  C   LIG    1       -2.724  -0.840  -3.142  0.00  0.00    +0.150 A 
ATOM     13  N   LIG    1       -1.987  -1.959  -3.206  0.00  0.00    -0.470 NA
ATOM     14  C   LIG    1       -0.854  -1.767  -2.589  0.00  0.00    +0.400 A 
ENDBRANCH   8  10
ENDBRANCH   2   4
BRANCH   3  15
ATOM     15  C   LIG    1        4.803   1.502  -0.138  0.00  0.00    +0.390 C 
BRANCH  15  16
ATOM     16  C   LIG    1        5.048   2.003   1.262  0.00  0.00    -0.050 A 
ATOM     17  C   LIG    1        6.248   2.295   1.795  0.00  0.00    -0.030 A 
ATOM     18  C   LIG    1        6.013   2.731   3.119  0.00  0.00    -0.060 A 
ATOM     19  C   LIG    1        4.684   2.671   3.319  0.00  0.00    +0.190 A 
ATOM     20  O   LIG    1        4.105   2.230   2.191  0.00  0.00    -0.180 OA
ENDBRANCH  15  16
ENDBRANCH   3  15
BRANCH   3  21
ATOM     21  C   LIG    1        6.136  -0.656  -0.057  0.00  0.00    +0.340 C 
BRANCH  21  22
ATOM     22  C   LIG    1        6.682  -0.882  -1.443  0.00  0.00    -0.110 A 
ATOM     23  C   LIG    1        6.373  -2.043  -2.127  0.00  0.00    +0.030 A 
ATOM     24  C   LIG    1        6.870  -2.248  -3.400  0.00  0.00    +0.000 A 
ATOM     25  C   LIG    1        7.685  -1.298  -3.986  0.00  0.00    +0.010 A 
ATOM     26  C   LIG    1        7.999  -0.139  -3.300  0.00  0.00    +0.000 A 
ATOM     27  C   LIG    1        7.497   0.069  -2.028  0.00  0.00    +0.010 A 
ENDBRANCH  21  22
ENDBRANCH   3  21
TORSDOF 6
