REMARK  Name = ZINCpe00000zfLq2.0
REMARK                            x       y       z     vdW  Elec       q    Type
REMARK                         _______ _______ _______ _____ _____    ______ ____
ROOT
ATOM      1  C   LIG    1       -1.451   4.940   0.013  0.00  0.00    +0.590 C 
ATOM      2  N   LIG    1       -2.793   4.879  -0.088  0.00  0.00    -0.710 N 
ATOM      3  H   LIG    1       -3.241   4.019  -0.087  0.00  0.00    +0.400 HD
ATOM      4  O   LIG    1       -0.896   6.019   0.105  0.00  0.00    -0.540 OA
ENDROOT
BRANCH   1   7
ATOM      5  C   LIG    1        1.645   4.757   0.022  0.00  0.00    +0.320 C 
ATOM      6  N   LIG    1        0.718   3.622   0.017  0.00  0.00    -0.390 N 
ATOM      7  C   LIG    1       -0.658   3.706   0.012  0.00  0.00    -0.060 A 
ATOM      8  C   LIG    1       -1.156   2.417   0.011  0.00  0.00    +0.030 A 
ATOM      9  C   LIG    1       -0.062   1.560   0.011  0.00  0.00    -0.220 A 
ATOM     10  C   LIG    1       -0.043   0.052   0.009  0.00  0.00    +0.300 C 
ATOM     11  O   LIG    1        1.280  -0.373  -0.346  0.00  0.00    -0.380 OA
ATOM     12  C   LIG    1        2.321   0.242   0.417  0.00  0.00    +0.230 C 
ATOM     13  C   LIG    1        2.454   1.718   0.016  0.00  0.00    +0.090 C 
ATOM     14  C   LIG    1        1.069   2.320   0.013  0.00  0.00    +0.050 A 
ENDBRANCH   1   7
BRANCH   2  15
ATOM     15  C   LIG    1       -3.576   6.112  -0.199  0.00  0.00    +0.260 C 
ATOM     16  C   LIG    1       -5.011   5.876   0.315  0.00  0.00    +0.050 C 
ATOM     17  C   LIG    1       -5.826   5.563  -0.965  0.00  0.00    -0.020 C 
ATOM     18  C   LIG    1       -5.207   6.526  -2.008  0.00  0.00    +0.020 C 
ATOM     19  C   LIG    1       -3.701   6.526  -1.676  0.00  0.00    +0.150 C 
BRANCH  19  20
ATOM     20  O   LIG    1       -3.158   7.834  -1.866  0.00  0.00    -0.560 OA
ATOM     21  H   LIG    1       -3.207   8.152  -2.778  0.00  0.00    +0.380 HD
ENDBRANCH  19  20
BRANCH  17  22
ATOM     22  C   LIG    1       -7.309   5.874  -0.752  0.00  0.00    +0.330 C 
BRANCH  22  23
ATOM     23  N   LIG    1       -8.069   5.458  -1.934  0.00  0.00    -0.370 N 
ATOM     24  C   LIG    1       -9.124   4.617  -1.943  0.00  0.00    +0.220 A 
ATOM     25  C   LIG    1       -9.543   4.494  -3.224  0.00  0.00    -0.120 A 
ATOM     26  C   LIG    1       -8.709   5.280  -4.026  0.00  0.00    +0.220 A 
ATOM     27  N   LIG    1       -7.825   5.858  -3.254  0.00  0.00    -0.290 NA
ENDBRANCH  22  23
ENDBRANCH  17  22
ENDBRANCH   2  15
TORSDOF 5
