REMARK  Name = ZINCpk000000orv8.0
REMARK                            x       y       z     vdW  Elec       q    Type
REMARK                         _______ _______ _______ _____ _____    ______ ____
ROOT
ATOM      1  C   LIG    1        2.998   3.860  -0.006  0.00  0.00    +0.320 C 
ENDROOT
BRANCH   1   2
ATOM      2  N   LIG    1        2.978   5.325   0.002  0.00  0.00    -0.740 N 
ATOM      3  H   LIG    1        2.132   5.798   0.013  0.00  0.00    +0.410 HD
ATOM      4  C   LIG    1        4.136   6.014  -0.005  0.00  0.00    +0.710 C 
ATOM      5  N   LIG    1        4.118   7.362   0.002  0.00  0.00    -0.740 N 
ATOM      6  H   LIG    1        3.271   7.835   0.013  0.00  0.00    +0.400 HD
ATOM      7  O   LIG    1        5.197   5.421  -0.018  0.00  0.00    -0.590 OA
BRANCH   5   8
ATOM      8  C   LIG    1        5.377   8.112  -0.006  0.00  0.00    +0.340 C 
BRANCH   8   9
ATOM      9  C   LIG    1        5.081   9.589   0.005  0.00  0.00    -0.120 A 
ATOM     10  C   LIG    1        4.940  10.274  -1.188  0.00  0.00    +0.070 A 
ATOM     11  C   LIG    1        4.663  11.628  -1.179  0.00  0.00    -0.020 A 
ATOM     12  C   LIG    1        4.539  12.301   0.025  0.00  0.00    +0.110 A 
ATOM     13  C   LIG    1        4.687  11.615   1.218  0.00  0.00    -0.020 A 
ATOM     14  F   LIG    1        4.275  13.626   0.034  0.00  0.00    -0.140 F 
ATOM     15  C   LIG    1        4.957  10.260   1.207  0.00  0.00    +0.070 A 
ENDBRANCH   8   9
ENDBRANCH   5   8
ENDBRANCH   1   2
BRANCH   1  18
ATOM     16  N   LIG    1        1.356   2.010  -0.000  0.00  0.00    -0.720 N 
ATOM     17  H   LIG    1        2.102   1.390  -0.011  0.00  0.00    +0.410 HD
ATOM     18  C   LIG    1        1.584   3.338   0.005  0.00  0.00    +0.520 C 
ATOM     19  O   LIG    1        0.652   4.114   0.018  0.00  0.00    -0.530 OA
BRANCH  16  20
ATOM     20  C   LIG    1       -0.018   1.503   0.010  0.00  0.00    +0.200 C 
ATOM     21  C   LIG    1       -0.758   2.010  -1.229  0.00  0.00    +0.080 C 
BRANCH  20  22
ATOM     22  C   LIG    1        0.002  -0.004   0.002  0.00  0.00    +0.460 C 
ATOM     23  O   LIG    1       -0.841  -0.623   0.607  0.00  0.00    -0.480 OA
BRANCH  22  24
ATOM     24  O   LIG    1        0.957  -0.659  -0.677  0.00  0.00    -0.360 OA
ATOM     25  C   LIG    1        0.915  -2.110  -0.641  0.00  0.00    +0.280 C 
ENDBRANCH  22  24
ENDBRANCH  20  22
BRANCH  20  26
ATOM     26  C   LIG    1       -0.735   1.996   1.269  0.00  0.00    +0.060 C 
BRANCH  26  28
ATOM     27  C   LIG    1       -0.643   2.089   3.764  0.00  0.00    +0.020 C 
ATOM     28  C   LIG    1        0.073   1.595   2.505  0.00  0.00    +0.000 C 
ENDBRANCH  26  28
ENDBRANCH  20  26
ENDBRANCH  16  20
ENDBRANCH   1  18
TORSDOF 9
