REMARK  Name = ZINCvU00000004PV.0
REMARK                            x       y       z     vdW  Elec       q    Type
REMARK                         _______ _______ _______ _____ _____    ______ ____
ROOT
ATOM      1  N   LIG    1        0.020  -0.170  -0.760  0.00  0.00    -0.430 N 
ATOM      2  C   LIG    1       -1.331  -0.758  -0.984  0.00  0.00    +0.220 C 
ATOM      3  C   LIG    1       -2.194  -0.084   0.086  0.00  0.00    +0.010 C 
ATOM      4  C   LIG    1       -3.687  -0.007  -0.166  0.00  0.00    +0.030 C 
ATOM      5  C   LIG    1       -4.302   0.779   1.004  0.00  0.00    +0.020 C 
ATOM      6  C   LIG    1       -3.682   2.167   1.138  0.00  0.00    +0.000 C 
ATOM      7  C   LIG    1       -2.168   2.102   1.232  0.00  0.00    +0.260 C 
ATOM      8  C   LIG    1       -1.652   1.372   0.009  0.00  0.00    -0.040 C 
ATOM      9  C   LIG    1       -0.149   1.147  -0.091  0.00  0.00    +0.220 C 
ENDROOT
BRANCH   1  13
ATOM     10  C   LIG    1        1.665   0.416  -4.191  0.00  0.00    +0.060 A 
ATOM     11  N   LIG    1        2.330  -0.358  -3.397  0.00  0.00    -0.260 NA
ATOM     12  N   LIG    1        1.850  -0.587  -2.253  0.00  0.00    -0.240 NA
ATOM     13  C   LIG    1        0.708  -0.035  -1.957  0.00  0.00    +0.210 A 
ATOM     14  S   LIG    1        0.198   0.921  -3.350  0.00  0.00    -0.030 S 
BRANCH  10  15
ATOM     15  C   LIG    1        2.069   0.815  -5.586  0.00  0.00    +0.150 C 
BRANCH  15  17
ATOM     16  C   LIG    1        1.919   0.209  -8.006  0.00  0.00    +0.030 C 
ATOM     17  C   LIG    1        1.508  -0.196  -6.588  0.00  0.00    +0.020 C 
ENDBRANCH  15  17
ENDBRANCH  10  15
ENDBRANCH   1  13
BRANCH   7  18
ATOM     18  N   LIG    1       -1.609   3.455   1.278  0.00  0.00    -0.730 N 
ATOM     19  H   LIG    1       -1.319   3.889   0.460  0.00  0.00    +0.400 HD
ATOM     20  C   LIG    1       -1.498   4.098   2.458  0.00  0.00    +0.520 C 
ATOM     21  O   LIG    1       -1.943   3.595   3.467  0.00  0.00    -0.520 OA
BRANCH  20  22
ATOM     22  C   LIG    1       -0.820   5.443   2.522  0.00  0.00    +0.030 C 
BRANCH  22  23
ATOM     23  C   LIG    1       -0.719   5.886   3.959  0.00  0.00    -0.070 A 
ATOM     24  C   LIG    1       -1.829   5.822   4.781  0.00  0.00    +0.050 A 
ATOM     25  C   LIG    1       -1.735   6.225   6.100  0.00  0.00    -0.010 A 
ATOM     26  C   LIG    1       -0.535   6.701   6.594  0.00  0.00    +0.000 A 
ATOM     27  C   LIG    1        0.573   6.769   5.770  0.00  0.00    -0.010 A 
ATOM     28  C   LIG    1        0.481   6.363   4.452  0.00  0.00    +0.010 A 
ENDBRANCH  22  23
BRANCH  22  29
ATOM     29  C   LIG    1       -1.638   6.464   1.729  0.00  0.00    +0.000 C 
ATOM     30  C   LIG    1       -3.050   6.550   2.312  0.00  0.00    +0.030 C 
BRANCH  29  31
ATOM     31  C   LIG    1       -0.966   7.836   1.818  0.00  0.00    +0.020 C 
ATOM     32  C   LIG    1        0.389   7.787   1.108  0.00  0.00    +0.000 C 
ENDBRANCH  29  31
ENDBRANCH  22  29
ENDBRANCH  20  22
ENDBRANCH   7  18
TORSDOF 8
