REMARK  Name = ZINCtV00000oU0ku.0
REMARK                            x       y       z     vdW  Elec       q    Type
REMARK                         _______ _______ _______ _____ _____    ______ ____
ROOT
ATOM      1  C   LIG    1        5.784   2.583  -0.041  0.00  0.00    +0.300 A 
ATOM      2  N   LIG    1        4.886   1.633  -0.036  0.00  0.00    -0.520 NA
ATOM      3  C   LIG    1        3.659   2.170  -0.022  0.00  0.00    +0.280 A 
ATOM      4  N   LIG    1        3.772   3.480  -0.022  0.00  0.00    -0.300 NA
ATOM      5  N   LIG    1        5.146   3.767  -0.028  0.00  0.00    -0.390 N 
ENDROOT
BRANCH   3   6
ATOM      6  C   LIG    1        2.384   1.412  -0.014  0.00  0.00    -0.050 A 
ATOM      7  C   LIG    1        1.167   2.092   0.002  0.00  0.00    +0.080 A 
ATOM      8  C   LIG    1       -0.017   1.386   0.010  0.00  0.00    -0.020 A 
ATOM      9  C   LIG    1        0.002  -0.004   0.002  0.00  0.00    +0.130 A 
ATOM     10  C   LIG    1        1.214  -0.685  -0.013  0.00  0.00    -0.050 A 
ATOM     11  C   LIG    1        2.400   0.018  -0.021  0.00  0.00    +0.100 A 
BRANCH   9  12
ATOM     12  N   LIG    1       -1.198  -0.717   0.010  0.00  0.00    -0.490 N 
ATOM     13  C   LIG    1       -2.033  -0.330   1.154  0.00  0.00    +0.190 C 
ATOM     14  C   LIG    1       -3.394  -1.021   1.050  0.00  0.00    +0.020 C 
ATOM     15  C   LIG    1       -3.191  -2.538   1.034  0.00  0.00    +0.010 C 
ATOM     16  C   LIG    1       -2.279  -2.910  -0.139  0.00  0.00    +0.020 C 
ATOM     17  C   LIG    1       -0.949  -2.165  -0.001  0.00  0.00    +0.180 C 
ENDBRANCH   9  12
ENDBRANCH   3   6
BRANCH   5  18
ATOM     18  C   LIG    1        5.764   5.096  -0.028  0.00  0.00    +0.270 C 
ATOM     19  C   LIG    1        5.313   5.868  -1.269  0.00  0.00    +0.100 C 
BRANCH  18  20
ATOM     20  C   LIG    1        5.338   5.856   1.229  0.00  0.00    +0.450 C 
ATOM     21  F   LIG    1        3.946   5.990   1.244  0.00  0.00    -0.160 F 
ATOM     22  F   LIG    1        5.928   7.125   1.230  0.00  0.00    -0.170 F 
ATOM     23  F   LIG    1        5.751   5.150   2.364  0.00  0.00    -0.180 F 
ENDBRANCH  18  20
ENDBRANCH   5  18
BRANCH   1  24
ATOM     24  C   LIG    1        7.278   2.386  -0.055  0.00  0.00    +0.150 C 
BRANCH  24  25
ATOM     25  C   LIG    1        7.770   2.326  -1.503  0.00  0.00    -0.020 C 
ATOM     26  C   LIG    1        7.191   1.087  -2.188  0.00  0.00    +0.030 C 
BRANCH  25  27
ATOM     27  C   LIG    1        9.298   2.251  -1.519  0.00  0.00    +0.020 C 
BRANCH  27  29
ATOM     28  C   LIG    1       11.325   2.241  -2.981  0.00  0.00    +0.000 C 
ATOM     29  C   LIG    1        9.797   2.317  -2.964  0.00  0.00    +0.000 C 
ENDBRANCH  27  29
ENDBRANCH  25  27
ENDBRANCH  24  25
ENDBRANCH   1  24
TORSDOF 8
