REMARK  Name = ZINCrH000004j5Ie.0
REMARK                            x       y       z     vdW  Elec       q    Type
REMARK                         _______ _______ _______ _____ _____    ______ ____
ROOT
ATOM      1  N   LIG    1       -7.303  -3.745   1.294  0.00  0.00    -0.530 NA
ATOM      2  C   LIG    1       -8.341  -2.706   1.327  0.00  0.00    +0.170 C 
ATOM      3  C   LIG    1       -8.164  -1.773   0.124  0.00  0.00    +0.280 C 
ATOM      4  N   LIG    1       -6.782  -1.272   0.120  0.00  0.00    -0.610 N 
ATOM      5  C   LIG    1       -5.687  -2.249   0.217  0.00  0.00    +0.300 C 
ATOM      6  C   LIG    1       -6.524   0.048   0.025  0.00  0.00    +0.560 C 
ATOM      7  O   LIG    1       -5.376   0.440  -0.046  0.00  0.00    -0.530 OA
ATOM      8  C   LIG    1       -5.961  -3.162   1.423  0.00  0.00    +0.180 C 
ENDROOT
BRANCH   6   9
ATOM      9  C   LIG    1       -7.638   1.017   0.007  0.00  0.00    -0.110 A 
ATOM     10  C   LIG    1       -7.614   2.126   0.858  0.00  0.00    +0.070 A 
ATOM     11  C   LIG    1       -8.652   3.028   0.840  0.00  0.00    +0.050 A 
ATOM     12  C   LIG    1       -9.729   2.837  -0.026  0.00  0.00    +0.000 A 
ATOM     13  C   LIG    1       -9.757   1.728  -0.873  0.00  0.00    +0.030 A 
ATOM     14  C   LIG    1       -8.717   0.827  -0.861  0.00  0.00    +0.050 A 
BRANCH  12  15
ATOM     15  C   LIG    1      -10.848   3.810  -0.043  0.00  0.00    +0.060 A 
ATOM     16  C   LIG    1      -11.940   3.703  -0.857  0.00  0.00    -0.090 A 
ATOM     17  S   LIG    1      -12.899   5.074  -0.455  0.00  0.00    +0.450 S 
ATOM     18  N   LIG    1      -11.923   5.647   0.625  0.00  0.00    -0.280 NA
ATOM     19  N   LIG    1      -10.904   4.887   0.726  0.00  0.00    -0.230 NA
ENDBRANCH  12  15
ENDBRANCH   6   9
BRANCH   1  20
ATOM     20  C   LIG    1       -7.540  -4.758   2.331  0.00  0.00    +0.270 C 
BRANCH  20  24
ATOM     21  C   LIG    1       -4.552  -7.418   2.287  0.00  0.00    -0.170 A 
ATOM     22  C   LIG    1       -4.303  -6.431   3.149  0.00  0.00    +0.000 A 
ATOM     23  C   LIG    1       -5.287  -5.461   3.225  0.00  0.00    +0.000 A 
ATOM     24  C   LIG    1       -6.339  -5.664   2.431  0.00  0.00    -0.190 A 
ATOM     25  S   LIG    1       -6.108  -7.146   1.513  0.00  0.00    +0.130 S 
BRANCH  21  27
ATOM     26  C   LIG    1       -3.983  -9.732   2.973  0.00  0.00    +0.030 C 
ATOM     27  C   LIG    1       -3.640  -8.588   2.017  0.00  0.00    +0.090 C 
ENDBRANCH  21  27
ENDBRANCH  20  24
ENDBRANCH   1  20
TORSDOF 5
