REMARK  Name = ZINCrD00000l16zu.0
REMARK                            x       y       z     vdW  Elec       q    Type
REMARK                         _______ _______ _______ _____ _____    ______ ____
ROOT
ATOM      1  N   LIG    1       -1.766  -3.424  -3.313  0.00  0.00    -0.480 N 
ATOM      2  C   LIG    1       -2.039  -3.971  -1.977  0.00  0.00    +0.210 C 
ATOM      3  C   LIG    1       -2.271  -2.820  -0.995  0.00  0.00    +0.200 C 
ATOM      4  N   LIG    1       -1.085  -1.952  -0.973  0.00  0.00    -0.530 NA
ATOM      5  C   LIG    1       -0.812  -1.405  -2.309  0.00  0.00    +0.190 C 
ATOM      6  C   LIG    1       -0.580  -2.556  -3.291  0.00  0.00    +0.210 C 
ENDROOT
BRANCH   1  12
ATOM      7  C   LIG    1       -2.553  -4.563  -5.289  0.00  0.00    -0.150 A 
ATOM      8  C   LIG    1       -2.383  -5.594  -6.221  0.00  0.00    +0.130 A 
ATOM      9  C   LIG    1       -1.307  -6.450  -6.065  0.00  0.00    -0.040 A 
ATOM     10  C   LIG    1       -0.435  -6.264  -5.007  0.00  0.00    +0.310 A 
ATOM     11  N   LIG    1       -0.610  -5.284  -4.142  0.00  0.00    -0.510 NA
ATOM     12  C   LIG    1       -1.621  -4.436  -4.243  0.00  0.00    +0.360 A 
BRANCH   7  13
ATOM     13  C   LIG    1       -3.683  -3.627  -5.404  0.00  0.00    +0.500 C 
ATOM     14  O   LIG    1       -3.767  -2.679  -4.649  0.00  0.00    -0.460 OA
BRANCH  13  16
ATOM     15  C   LIG    1       -5.711  -2.858  -6.404  0.00  0.00    +0.260 C 
ATOM     16  O   LIG    1       -4.626  -3.821  -6.348  0.00  0.00    -0.360 OA
ENDBRANCH  13  16
ENDBRANCH   7  13
ENDBRANCH   1  12
BRANCH   4  17
ATOM     17  C   LIG    1       -1.239  -0.876   0.016  0.00  0.00    +0.230 C 
ATOM     18  C   LIG    1       -1.428  -1.485   1.407  0.00  0.00    +0.070 C 
BRANCH  17  19
ATOM     19  C   LIG    1       -0.006  -0.009   0.010  0.00  0.00    +0.100 A 
ATOM     20  N   LIG    1       -0.026   1.270   0.019  0.00  0.00    -0.470 NA
ATOM     21  C   LIG    1        1.154   1.918   0.011  0.00  0.00    +0.080 A 
ATOM     22  C   LIG    1        1.422   3.301   0.019  0.00  0.00    +0.070 A 
ATOM     23  C   LIG    1        2.706   3.755   0.009  0.00  0.00    +0.030 A 
ATOM     24  C   LIG    1        3.773   2.868  -0.008  0.00  0.00    +0.040 A 
ATOM     25  C   LIG    1        3.541   1.511  -0.015  0.00  0.00    +0.060 A 
ATOM     26  C   LIG    1        2.235   1.028  -0.006  0.00  0.00    -0.190 A 
ATOM     27  S   LIG    1        1.591  -0.611  -0.010  0.00  0.00    +0.140 S 
ENDBRANCH  17  19
ENDBRANCH   4  17
TORSDOF 5
