REMARK  Name = ZINCvU00000007iW.0
REMARK                            x       y       z     vdW  Elec       q    Type
REMARK                         _______ _______ _______ _____ _____    ______ ____
ROOT
ATOM      1  C   LIG    1        2.642   1.246  -0.988  0.00  0.00    +0.260 C 
ATOM      2  C   LIG    1        3.718   2.015  -0.201  0.00  0.00    +0.010 C 
ATOM      3  C   LIG    1        4.686   1.698  -1.356  0.00  0.00    +0.260 C 
ATOM      4  C   LIG    1        3.447   1.576  -2.245  0.00  0.00    -0.120 C 
ATOM      5  C   LIG    1        3.028   2.714  -3.176  0.00  0.00    +0.060 C 
ATOM      6  C   LIG    1        3.675   1.905  -4.314  0.00  0.00    +0.010 C 
ATOM      7  C   LIG    1        3.434   0.647  -3.459  0.00  0.00    +0.030 C 
ENDROOT
BRANCH   1   9
ATOM      8  C   LIG    1        0.329   1.330  -0.225  0.00  0.00    +0.520 C 
ATOM      9  N   LIG    1        1.322   1.880  -0.952  0.00  0.00    -0.720 N 
ATOM     10  H   LIG    1        1.162   2.696  -1.451  0.00  0.00    +0.400 HD
ATOM     11  O   LIG    1        0.502   0.264   0.329  0.00  0.00    -0.530 OA
BRANCH   8  12
ATOM     12  C   LIG    1       -0.997   2.035  -0.105  0.00  0.00    -0.020 C 
BRANCH  12  14
ATOM     13  C   LIG    1       -2.310   3.690   1.228  0.00  0.00    +0.030 C 
ATOM     14  C   LIG    1       -1.007   2.892   1.162  0.00  0.00    +0.020 C 
ENDBRANCH  12  14
BRANCH  12  15
ATOM     15  C   LIG    1       -2.120   0.999  -0.028  0.00  0.00    +0.050 C 
BRANCH  15  16
ATOM     16  C   LIG    1       -2.176   0.208  -1.336  0.00  0.00    -0.020 C 
ATOM     17  C   LIG    1       -2.557   1.146  -2.483  0.00  0.00    +0.010 C 
ATOM     18  C   LIG    1       -2.612   0.355  -3.792  0.00  0.00    +0.000 C 
ATOM     19  C   LIG    1       -3.658  -0.756  -3.673  0.00  0.00    +0.000 C 
ATOM     20  C   LIG    1       -3.276  -1.694  -2.526  0.00  0.00    +0.000 C 
ATOM     21  C   LIG    1       -3.221  -0.903  -1.217  0.00  0.00    +0.010 C 
ENDBRANCH  15  16
ENDBRANCH  12  15
ENDBRANCH   8  12
ENDBRANCH   1   9
BRANCH   3  22
ATOM     22  N   LIG    1        5.412   0.437  -1.185  0.00  0.00    -0.690 N 
ATOM     23  H   LIG    1        4.948  -0.408  -1.287  0.00  0.00    +0.410 HD
BRANCH  22  24
ATOM     24  C   LIG    1        6.768   0.453  -0.875  0.00  0.00    +0.430 A 
ATOM     25  C   LIG    1        7.427   1.669  -0.730  0.00  0.00    -0.100 A 
ATOM     26  C   LIG    1        8.776   1.670  -0.422  0.00  0.00    +0.170 A 
ATOM     27  C   LIG    1        9.422   0.450  -0.269  0.00  0.00    -0.300 A 
ATOM     28  C   LIG    1        8.705  -0.719  -0.428  0.00  0.00    +0.380 A 
ATOM     29  N   LIG    1        7.418  -0.690  -0.717  0.00  0.00    -0.540 NA
BRANCH  27  30
ATOM     30  C   LIG    1       10.890   0.403   0.067  0.00  0.00    +0.520 C 
ATOM     31  F   LIG    1       11.527   1.527  -0.468  0.00  0.00    -0.180 F 
ATOM     32  F   LIG    1       11.456  -0.756  -0.475  0.00  0.00    -0.180 F 
ATOM     33  F   LIG    1       11.050   0.394   1.457  0.00  0.00    -0.180 F 
ENDBRANCH  27  30
ENDBRANCH  22  24
ENDBRANCH   3  22
TORSDOF 8
