REMARK  Name = ZINCpe000000ZpFW.0
REMARK                            x       y       z     vdW  Elec       q    Type
REMARK                         _______ _______ _______ _____ _____    ______ ____
ROOT
ATOM      1  C   LIG    1        5.615   4.786  -0.636  0.00  0.00    -0.150 A 
ATOM      2  C   LIG    1        5.083   5.016  -1.906  0.00  0.00    +0.110 A 
ATOM      3  C   LIG    1        4.559   3.966  -2.631  0.00  0.00    +0.010 A 
ATOM      4  C   LIG    1        4.566   2.686  -2.106  0.00  0.00    +0.160 A 
ATOM      5  C   LIG    1        5.088   2.452  -0.845  0.00  0.00    -0.690 A 
ATOM      6  C   LIG    1        5.614   3.493  -0.109  0.00  0.00    +0.210 A 
ENDROOT
BRANCH   1   8
ATOM      7  O   LIG    1        6.642   5.703   1.252  0.00  0.00    -0.490 OA
ATOM      8  C   LIG    1        6.178   5.906   0.146  0.00  0.00    +0.560 C 
ATOM      9  N   LIG    1        6.178   7.153  -0.365  0.00  0.00    -0.620 N 
ATOM     10  H   LIG    1        5.808   7.316  -1.247  0.00  0.00    +0.420 HD
BRANCH   9  11
ATOM     11  C   LIG    1        6.707   8.206   0.370  0.00  0.00    +0.230 A 
ATOM     12  N   LIG    1        6.755   9.439  -0.027  0.00  0.00    -0.510 NA
ATOM     13  C   LIG    1        7.294  10.313   0.802  0.00  0.00    +0.240 A 
ATOM     14  C   LIG    1        7.721   9.794   1.955  0.00  0.00    -0.130 A 
ATOM     15  S   LIG    1        7.382   8.066   1.935  0.00  0.00    +0.250 S 
ENDBRANCH   9  11
ENDBRANCH   1   8
BRANCH   5  16
ATOM     16  S   LIG    1        5.086   0.820  -0.182  0.00  0.00    +2.690 S 
ATOM     17  O   LIG    1        5.024  -0.064  -1.293  0.00  0.00    -0.940 OA
ATOM     18  O   LIG    1        6.124   0.779   0.787  0.00  0.00    -0.940 OA
BRANCH  16  19
ATOM     19  N   LIG    1        3.664   0.629   0.646  0.00  0.00    -1.100 NA
ATOM     20  H   LIG    1        3.677   0.499   1.607  0.00  0.00    +0.430 HD
BRANCH  19  21
ATOM     21  C   LIG    1        2.388   0.658  -0.072  0.00  0.00    +0.280 C 
ATOM     22  C   LIG    1        1.403  -0.326   0.583  0.00  0.00    +0.080 C 
ATOM     23  C   LIG    1        0.002  -0.004   0.002  0.00  0.00    -0.300 C 
ATOM     24  S   LIG    1       -0.023   1.829   0.012  0.00  0.00    +2.390 S 
ATOM     25  O   LIG    1       -0.550   2.286   1.250  0.00  0.00    -0.930 OA
ATOM     26  O   LIG    1       -0.573   2.299  -1.211  0.00  0.00    -0.930 OA
ATOM     27  C   LIG    1        1.789   2.077  -0.004  0.00  0.00    -0.350 C 
ENDBRANCH  19  21
ENDBRANCH  16  19
ENDBRANCH   5  16
TORSDOF 5
