REMARK  Name = ZINCnE000004TooJ.0
REMARK                            x       y       z     vdW  Elec       q    Type
REMARK                         _______ _______ _______ _____ _____    ______ ____
ROOT
ATOM      1  C   LIG    1       -3.598   2.611  -0.248  0.00  0.00    +0.220 C 
ENDROOT
BRANCH   1   2
ATOM      2  C   LIG    1       -4.170   2.550  -1.640  0.00  0.00    -0.040 A 
ATOM      3  C   LIG    1       -4.114   1.372  -2.360  0.00  0.00    +0.030 A 
ATOM      4  C   LIG    1       -4.639   1.315  -3.638  0.00  0.00    +0.020 A 
ATOM      5  C   LIG    1       -5.222   2.437  -4.196  0.00  0.00    +0.020 A 
ATOM      6  C   LIG    1       -5.280   3.617  -3.478  0.00  0.00    -0.030 A 
ATOM      7 CL   LIG    1       -6.012   5.026  -4.179  0.00  0.00    -0.060 Cl
ATOM      8  C   LIG    1       -4.758   3.673  -2.196  0.00  0.00    -0.010 A 
ATOM      9 CL   LIG    1       -4.836   5.151  -1.290  0.00  0.00    -0.030 Cl
ENDBRANCH   1   2
BRANCH   1  11
ATOM     10  C   LIG    1       -1.280   1.928   0.067  0.00  0.00    +0.600 C 
ATOM     11  N   LIG    1       -2.571   1.577  -0.096  0.00  0.00    -0.570 N 
ATOM     12  C   LIG    1       -2.948   0.162  -0.122  0.00  0.00    +0.310 C 
ATOM     13  O   LIG    1       -0.978   3.101   0.181  0.00  0.00    -0.520 OA
BRANCH  10  18
ATOM     14  C   LIG    1        1.025  -2.513   0.141  0.00  0.00    +0.220 C 
ATOM     15  C   LIG    1        0.773  -1.027   0.138  0.00  0.00    +0.200 A 
ATOM     16  N   LIG    1        1.695  -0.102   0.176  0.00  0.00    -0.490 NA
ATOM     17  C   LIG    1        1.108   1.099   0.159  0.00  0.00    +0.070 A 
ATOM     18  C   LIG    1       -0.239   0.895   0.107  0.00  0.00    -0.100 A 
ATOM     19  C   LIG    1        1.807   2.433   0.189  0.00  0.00    +0.160 C 
ATOM     20  O   LIG    1       -0.430  -0.445   0.095  0.00  0.00    -0.180 OA
ENDBRANCH  10  18
ENDBRANCH   1  11
BRANCH   1  21
ATOM     21  C   LIG    1       -4.696   2.380   0.758  0.00  0.00    +0.500 C 
ATOM     22  O   LIG    1       -5.653   3.135   0.799  0.00  0.00    -0.660 OA
ATOM     23  O   LIG    1       -4.628   1.439   1.529  0.00  0.00    -0.680 OA
ENDBRANCH   1  21
TORSDOF 4
