REMARK  Name = ZINCpk00000e9yLY.0
REMARK                            x       y       z     vdW  Elec       q    Type
REMARK                         _______ _______ _______ _____ _____    ______ ____
ROOT
ATOM      1  N   LIG    1       -5.146   0.631  -2.856  0.00  0.00    -0.750 N 
ATOM      2  H   LIG    1       -4.623   1.066  -3.548  0.00  0.00    +0.400 HD
ATOM      3  C   LIG    1       -4.761   0.716  -1.567  0.00  0.00    +0.700 C 
ATOM      4  N   LIG    1       -3.650   1.405  -1.240  0.00  0.00    -0.730 N 
ATOM      5  H   LIG    1       -3.127   1.839  -1.932  0.00  0.00    +0.390 HD
ATOM      6  O   LIG    1       -5.416   0.171  -0.700  0.00  0.00    -0.590 OA
ENDROOT
BRANCH   1   7
ATOM      7  C   LIG    1       -6.354  -0.118  -3.212  0.00  0.00    +0.300 C 
BRANCH   7   8
ATOM      8  C   LIG    1       -6.477  -0.192  -4.735  0.00  0.00    +0.100 C 
ATOM      9  C   LIG    1       -6.359   1.215  -5.325  0.00  0.00    +0.010 C 
BRANCH   8  10
ATOM     10  N   LIG    1       -5.406  -1.040  -5.273  0.00  0.00    -0.520 NA
ATOM     11  C   LIG    1       -4.089  -0.587  -4.803  0.00  0.00    +0.140 C 
ATOM     12  C   LIG    1       -3.009  -1.532  -5.337  0.00  0.00    +0.220 C 
ATOM     13  O   LIG    1       -3.088  -1.580  -6.765  0.00  0.00    -0.390 OA
ATOM     14  C   LIG    1       -4.358  -2.018  -7.256  0.00  0.00    +0.220 C 
ATOM     15  C   LIG    1       -5.451  -1.078  -6.742  0.00  0.00    +0.150 C 
ENDBRANCH   8  10
BRANCH   8  17
ATOM     16  C   LIG    1       -7.900  -2.243  -4.639  0.00  0.00    +0.020 C 
ATOM     17  C   LIG    1       -7.836  -0.788  -5.108  0.00  0.00    +0.030 C 
ENDBRANCH   8  17
ENDBRANCH   7   8
ENDBRANCH   1   7
BRANCH   4  18
ATOM     18  C   LIG    1       -3.231   1.497   0.161  0.00  0.00    +0.360 C 
BRANCH  18  19
ATOM     19  C   LIG    1       -2.041   2.415   0.271  0.00  0.00    -0.130 A 
ATOM     20  C   LIG    1       -0.775   1.900   0.483  0.00  0.00    +0.090 A 
ATOM     21  C   LIG    1        0.293   2.782   0.572  0.00  0.00    -0.040 A 
ATOM     22  C   LIG    1        0.063   4.138   0.452  0.00  0.00    +0.280 A 
ATOM     23  N   LIG    1       -1.157   4.602   0.255  0.00  0.00    -0.510 NA
ATOM     24  C   LIG    1       -2.201   3.793   0.165  0.00  0.00    +0.310 A 
BRANCH  24  25
ATOM     25  N   LIG    1       -3.469   4.325  -0.043  0.00  0.00    -0.490 N 
ATOM     26  C   LIG    1       -3.517   5.096  -1.292  0.00  0.00    +0.210 C 
ATOM     27  C   LIG    1       -3.889   5.147   1.100  0.00  0.00    +0.220 C 
ENDBRANCH  24  25
ENDBRANCH  18  19
ENDBRANCH   4  18
TORSDOF 7
