REMARK  Name = ZINCpe00000VVGbQ.0
REMARK                            x       y       z     vdW  Elec       q    Type
REMARK                         _______ _______ _______ _____ _____    ______ ____
ROOT
ATOM      1  C   LIG    1       -6.925  -0.970  -2.498  0.00  0.00    +0.350 C 
ATOM      2  N   LIG    1       -6.427  -0.531  -1.192  0.00  0.00    -0.520 N 
ATOM      3  C   LIG    1       -6.993  -1.034  -0.064  0.00  0.00    +0.460 A 
ATOM      4  C   LIG    1       -6.526  -0.621   1.169  0.00  0.00    -0.330 A 
ATOM      5  C   LIG    1       -5.425   0.355   1.201  0.00  0.00    +0.570 A 
ATOM      6  N   LIG    1       -4.923   0.800   0.029  0.00  0.00    -0.540 N 
ATOM      7  O   LIG    1       -4.976   0.751   2.260  0.00  0.00    -0.500 OA
ATOM      8  C   LIG    1       -5.427   0.362  -1.137  0.00  0.00    +0.700 A 
ATOM      9  O   LIG    1       -4.958   0.784  -2.176  0.00  0.00    -0.520 OA
ENDROOT
BRANCH   4  10
ATOM     10  C   LIG    1       -7.112  -1.142   2.413  0.00  0.00    +0.600 C 
ATOM     11  O   LIG    1       -8.087  -1.867   2.369  0.00  0.00    -0.550 OA
ATOM     12  N   LIG    1       -6.568  -0.815   3.602  0.00  0.00    -0.840 N 
ATOM     13  H   LIG    1       -6.908  -1.216   4.417  0.00  0.00    +0.400 HD
ATOM     14  H   LIG    1       -5.837  -0.179   3.643  0.00  0.00    +0.410 HD
ENDBRANCH   4  10
BRANCH   6  15
ATOM     15  C   LIG    1       -3.827   1.772   0.029  0.00  0.00    +0.340 C 
BRANCH  15  16
ATOM     16  C   LIG    1       -2.509   1.042   0.029  0.00  0.00    +0.390 C 
ATOM     17  O   LIG    1       -2.487  -0.171   0.028  0.00  0.00    -0.440 OA
BRANCH  16  18
ATOM     18  C   LIG    1       -1.248   1.800   0.028  0.00  0.00    -0.170 A 
ATOM     19  C   LIG    1       -0.022   1.127   0.028  0.00  0.00    +0.080 A 
ATOM     20  C   LIG    1        1.155   1.844   0.022  0.00  0.00    +0.000 A 
ATOM     21  C   LIG    1        1.126   3.228   0.022  0.00  0.00    -0.030 A 
ATOM     22  C   LIG    1       -0.083   3.902   0.028  0.00  0.00    +0.010 A 
ATOM     23  C   LIG    1       -1.268   3.199   0.034  0.00  0.00    +0.060 A 
BRANCH  21  24
ATOM     24  C   LIG    1        2.418   4.005   0.015  0.00  0.00    -0.040 C 
ATOM     25  C   LIG    1        3.233   3.650   1.260  0.00  0.00    +0.040 C 
ATOM     26  C   LIG    1        2.111   5.504   0.016  0.00  0.00    +0.030 C 
ATOM     27  C   LIG    1        3.220   3.650  -1.239  0.00  0.00    +0.040 C 
ENDBRANCH  21  24
ENDBRANCH  16  18
ENDBRANCH  15  16
ENDBRANCH   6  15
TORSDOF 5
