REMARK  Name = ZINCrH000004u6xo.0
REMARK                            x       y       z     vdW  Elec       q    Type
REMARK                         _______ _______ _______ _____ _____    ______ ____
ROOT
ATOM      1  C   LIG    1       -2.445   0.899  -0.142  0.00  0.00    -0.110 A 
ATOM      2  C   LIG    1       -2.414  -0.487  -0.261  0.00  0.00    +0.040 A 
ATOM      3  C   LIG    1       -3.578  -1.220  -0.116  0.00  0.00    +0.030 A 
ATOM      4  C   LIG    1       -4.778  -0.584   0.146  0.00  0.00    +0.050 A 
ATOM      5  C   LIG    1       -4.829   0.792   0.267  0.00  0.00    +0.050 A 
ATOM      6  C   LIG    1       -3.666   1.546   0.131  0.00  0.00    -0.090 A 
ENDROOT
BRANCH   1   8
ATOM      7  O   LIG    1       -1.250   2.902  -0.297  0.00  0.00    -0.510 OA
ATOM      8  C   LIG    1       -1.203   1.687  -0.295  0.00  0.00    +0.550 C 
ATOM      9  N   LIG    1       -0.019   1.059  -0.434  0.00  0.00    -0.720 N 
ATOM     10  H   LIG    1        0.019   0.090  -0.433  0.00  0.00    +0.400 HD
BRANCH   9  11
ATOM     11  C   LIG    1        1.210   1.840  -0.592  0.00  0.00    +0.240 C 
ATOM     12  C   LIG    1        1.394   2.209  -2.065  0.00  0.00    +0.000 C 
ATOM     13  C   LIG    1        2.678   3.025  -2.231  0.00  0.00    +0.010 C 
ATOM     14  C   LIG    1        3.874   2.194  -1.761  0.00  0.00    +0.000 C 
ATOM     15  C   LIG    1        3.690   1.824  -0.287  0.00  0.00    +0.020 C 
ATOM     16  C   LIG    1        2.406   1.009  -0.122  0.00  0.00    +0.010 C 
ENDBRANCH   9  11
ENDBRANCH   1   8
BRANCH   6  17
ATOM     17  C   LIG    1       -3.713   3.018   0.267  0.00  0.00    +0.460 C 
ATOM     18  O   LIG    1       -4.147   3.698  -0.643  0.00  0.00    -0.440 OA
BRANCH  17  19
ATOM     19  C   LIG    1       -3.235   3.660   1.505  0.00  0.00    -0.130 A 
ATOM     20  C   LIG    1       -2.663   2.887   2.520  0.00  0.00    +0.070 A 
ATOM     21  C   LIG    1       -2.214   3.491   3.673  0.00  0.00    +0.010 A 
ATOM     22  C   LIG    1       -2.335   4.866   3.838  0.00  0.00    +0.080 A 
ATOM     23  O   LIG    1       -1.895   5.438   4.989  0.00  0.00    -0.300 OA
ATOM     24  C   LIG    1       -1.684   6.854   4.965  0.00  0.00    +0.230 C 
ATOM     25  C   LIG    1       -2.902   7.510   4.302  0.00  0.00    +0.230 C 
ATOM     26  O   LIG    1       -3.023   6.991   2.973  0.00  0.00    -0.300 OA
ATOM     27  C   LIG    1       -2.906   5.642   2.831  0.00  0.00    +0.040 A 
ATOM     28  C   LIG    1       -3.356   5.044   1.669  0.00  0.00    +0.100 A 
ENDBRANCH  17  19
ENDBRANCH   6  17
TORSDOF 4
