REMARK  Name = ZINCqH0000050r0l.0
REMARK                            x       y       z     vdW  Elec       q    Type
REMARK                         _______ _______ _______ _____ _____    ______ ____
ROOT
ATOM      1  C   LIG    1        5.371   3.309   0.381  0.00  0.00    -0.690 A 
ATOM      2  C   LIG    1        5.825   4.230  -0.545  0.00  0.00    +0.150 A 
ATOM      3  C   LIG    1        4.964   4.746  -1.497  0.00  0.00    +0.000 A 
ATOM      4  C   LIG    1        3.646   4.340  -1.531  0.00  0.00    +0.020 A 
ATOM      5  C   LIG    1        3.179   3.414  -0.596  0.00  0.00    -0.150 A 
ATOM      6  C   LIG    1        2.710   4.898  -2.573  0.00  0.00    +0.110 C 
ATOM      7  C   LIG    1        4.054   2.898   0.361  0.00  0.00    +0.160 A 
ENDROOT
BRANCH   5   8
ATOM      8  C   LIG    1        1.767   2.978  -0.624  0.00  0.00    +0.560 C 
ATOM      9  N   LIG    1        1.467   1.664  -0.621  0.00  0.00    -0.610 N 
ATOM     10  C   LIG    1        0.071   1.215  -0.529  0.00  0.00    +0.280 C 
ATOM     11  C   LIG    1       -0.218   0.262  -1.693  0.00  0.00    +0.020 C 
ATOM     12  C   LIG    1        0.809  -0.872  -1.685  0.00  0.00    +0.020 C 
ATOM     13  C   LIG    1        2.213  -0.293  -1.873  0.00  0.00    +0.020 C 
ATOM     14  C   LIG    1        2.530   0.654  -0.711  0.00  0.00    +0.270 C 
ATOM     15  O   LIG    1        0.876   3.805  -0.648  0.00  0.00    -0.520 OA
ENDBRANCH   5   8
BRANCH   1  16
ATOM     16  S   LIG    1        6.476   2.658   1.589  0.00  0.00    +2.690 S 
ATOM     17  O   LIG    1        5.667   2.121   2.626  0.00  0.00    -0.950 OA
ATOM     18  O   LIG    1        7.461   3.658   1.812  0.00  0.00    -0.940 OA
BRANCH  16  19
ATOM     19  N   LIG    1        7.261   1.376   0.896  0.00  0.00    -1.060 N 
ATOM     20  H   LIG    1        7.126   0.480   1.242  0.00  0.00    +0.430 HD
BRANCH  19  25
ATOM     21  C   LIG    1       10.735   2.220  -3.506  0.00  0.00    +0.090 C 
ATOM     22  C   LIG    1        9.812   1.995  -2.336  0.00  0.00    -0.070 A 
ATOM     23  C   LIG    1       10.214   2.351  -1.062  0.00  0.00    +0.020 A 
ATOM     24  C   LIG    1        9.370   2.147   0.012  0.00  0.00    +0.040 A 
ATOM     25  C   LIG    1        8.117   1.584  -0.189  0.00  0.00    +0.110 A 
ATOM     26  C   LIG    1        7.718   1.222  -1.469  0.00  0.00    +0.020 A 
ATOM     27  C   LIG    1        8.565   1.434  -2.540  0.00  0.00    +0.010 A 
ENDBRANCH  19  25
ENDBRANCH  16  19
ENDBRANCH   1  16
TORSDOF 4
