REMARK  Name = ZINCqH0000006SXr.0
REMARK                            x       y       z     vdW  Elec       q    Type
REMARK                         _______ _______ _______ _____ _____    ______ ____
ROOT
ATOM      1  N   LIG    1       -0.011   0.966   0.007  0.00  0.00    -0.630 N 
ATOM      2  H   LIG    1       -0.094  -0.001   0.017  0.00  0.00    +0.430 HD
ATOM      3  C   LIG    1       -1.116   1.737   0.016  0.00  0.00    +0.510 C 
ATOM      4  O   LIG    1       -1.016   2.943  -0.077  0.00  0.00    -0.500 OA
ENDROOT
BRANCH   1   8
ATOM      5  C   LIG    1        3.767   2.735  -0.080  0.00  0.00    +0.170 A 
ATOM      6  C   LIG    1        3.575   1.552   0.618  0.00  0.00    -0.120 A 
ATOM      7  C   LIG    1        2.322   0.963   0.649  0.00  0.00    +0.160 A 
ATOM      8  C   LIG    1        1.256   1.560  -0.022  0.00  0.00    +0.080 A 
ATOM      9  C   LIG    1        1.455   2.741  -0.724  0.00  0.00    +0.140 A 
ATOM     10  C   LIG    1        2.705   3.329  -0.748  0.00  0.00    -0.090 A 
ATOM     11 CL   LIG    1        2.949   4.810  -1.621  0.00  0.00    -0.050 Cl
BRANCH   5  13
ATOM     12  C   LIG    1        6.045   2.649   0.599  0.00  0.00    +0.250 C 
ATOM     13  O   LIG    1        4.997   3.314  -0.110  0.00  0.00    -0.300 OA
ENDBRANCH   5  13
BRANCH   7  14
ATOM     14  O   LIG    1        2.132  -0.197   1.333  0.00  0.00    -0.310 OA
ATOM     15  C   LIG    1        3.269  -0.752   1.997  0.00  0.00    +0.260 C 
ENDBRANCH   7  14
ENDBRANCH   1   8
BRANCH   3  16
ATOM     16  C   LIG    1       -2.465   1.108   0.142  0.00  0.00    +0.530 C 
ATOM     17  N   LIG    1       -3.570   1.879   0.151  0.00  0.00    -0.590 N 
ATOM     18  C   LIG    1       -3.592   3.350   0.052  0.00  0.00    +0.280 C 
ATOM     19  C   LIG    1       -4.927   3.774   0.709  0.00  0.00    +0.030 C 
ATOM     20  C   LIG    1       -5.875   2.631   0.261  0.00  0.00    +0.050 C 
ATOM     21  C   LIG    1       -4.953   1.393   0.268  0.00  0.00    +0.310 C 
ATOM     22  O   LIG    1       -2.565  -0.098   0.236  0.00  0.00    -0.500 OA
BRANCH  21  23
ATOM     23  C   LIG    1       -5.283   0.501  -0.900  0.00  0.00    -0.190 A 
ATOM     24  C   LIG    1       -6.013  -0.614  -0.834  0.00  0.00    +0.020 A 
ATOM     25  C   LIG    1       -6.187  -1.269  -2.041  0.00  0.00    +0.010 A 
ATOM     26  C   LIG    1       -5.591  -0.692  -3.085  0.00  0.00    -0.050 A 
ATOM     27  S   LIG    1       -4.759   0.765  -2.558  0.00  0.00    +0.110 S 
ENDBRANCH  21  23
ENDBRANCH   3  16
TORSDOF 5
