REMARK  Name = ZINCrH000004t5ln.0
REMARK                            x       y       z     vdW  Elec       q    Type
REMARK                         _______ _______ _______ _____ _____    ______ ____
ROOT
ATOM      1  N   LIG    1       -2.763   4.066  -0.929  0.00  0.00    -0.720 N 
ATOM      2  H   LIG    1       -3.607   3.688  -0.637  0.00  0.00    +0.400 HD
ATOM      3  C   LIG    1       -2.582   4.390  -2.225  0.00  0.00    +0.710 C 
ATOM      4  N   LIG    1       -3.573   4.188  -3.115  0.00  0.00    -0.740 N 
ATOM      5  H   LIG    1       -4.417   3.810  -2.824  0.00  0.00    +0.400 HD
ATOM      6  O   LIG    1       -1.523   4.864  -2.590  0.00  0.00    -0.580 OA
ENDROOT
BRANCH   1   7
ATOM      7  C   LIG    1       -1.686   4.285   0.039  0.00  0.00    +0.410 C 
BRANCH   7   8
ATOM      8  C   LIG    1       -2.273   4.444   1.417  0.00  0.00    -0.110 A 
ATOM      9  C   LIG    1       -3.333   3.649   1.812  0.00  0.00    +0.080 A 
ATOM     10  C   LIG    1       -3.870   3.790   3.078  0.00  0.00    -0.010 A 
ATOM     11  C   LIG    1       -3.352   4.735   3.947  0.00  0.00    +0.110 A 
ATOM     12  C   LIG    1       -2.293   5.534   3.549  0.00  0.00    -0.010 A 
ATOM     13  F   LIG    1       -3.879   4.878   5.183  0.00  0.00    -0.140 F 
ATOM     14  C   LIG    1       -1.755   5.387   2.285  0.00  0.00    +0.060 A 
ENDBRANCH   7   8
BRANCH   7  20
ATOM     15  C   LIG    1        1.411   4.388   0.011  0.00  0.00    +0.320 C 
ATOM     16  N   LIG    1        0.599   3.169   0.013  0.00  0.00    -0.450 N 
ATOM     17  C   LIG    1        1.066   1.882   0.002  0.00  0.00    +0.130 A 
ATOM     18  C   LIG    1       -0.013   1.076   0.008  0.00  0.00    +0.140 A 
ATOM     19  N   LIG    1       -1.108   1.849   0.017  0.00  0.00    -0.470 NA
ATOM     20  C   LIG    1       -0.750   3.104   0.025  0.00  0.00    +0.190 A 
ENDBRANCH   7  20
ENDBRANCH   1   7
BRANCH   4  21
ATOM     21  C   LIG    1       -3.376   4.540  -4.523  0.00  0.00    +0.320 C 
BRANCH  21  22
ATOM     22  C   LIG    1       -4.644   4.213  -5.314  0.00  0.00    +0.070 C 
BRANCH  22  23
ATOM     23  S   LIG    1       -4.400   4.649  -7.057  0.00  0.00    -0.090 S 
BRANCH  23  24
ATOM     24  C   LIG    1       -5.938   4.210  -7.795  0.00  0.00    -0.090 A 
ATOM     25  C   LIG    1       -6.953   3.665  -7.018  0.00  0.00    -0.010 A 
ATOM     26  C   LIG    1       -8.159   3.326  -7.599  0.00  0.00    +0.030 A 
ATOM     27  C   LIG    1       -8.354   3.519  -8.954  0.00  0.00    +0.010 A 
ATOM     28  C   LIG    1       -7.345   4.056  -9.732  0.00  0.00    +0.030 A 
ATOM     29  C   LIG    1       -6.138   4.402  -9.157  0.00  0.00    +0.030 A 
ENDBRANCH  23  24
ENDBRANCH  22  23
ENDBRANCH  21  22
ENDBRANCH   4  21
TORSDOF 7
