REMARK  Name = ZINCrg000000oKYO.0
REMARK                            x       y       z     vdW  Elec       q    Type
REMARK                         _______ _______ _______ _____ _____    ______ ____
ROOT
ATOM      1  C   LIG    1       -2.056   5.720  -1.592  0.00  0.00    +0.470 A 
ATOM      2  C   LIG    1       -1.656   6.895  -2.260  0.00  0.00    -0.130 A 
ATOM      3  N   LIG    1       -2.306   7.976  -2.724  0.00  0.00    -0.180 NA
ATOM      4  N   LIG    1       -1.474   8.792  -3.272  0.00  0.00    +0.010 NA
ATOM      5  N   LIG    1       -0.178   8.260  -3.188  0.00  0.00    -0.370 N 
ATOM      6  C   LIG    1       -0.289   7.058  -2.548  0.00  0.00    +0.330 A 
ATOM      7  N   LIG    1        0.567   6.108  -2.183  0.00  0.00    -0.540 NA
ATOM      8  C   LIG    1        0.146   5.028  -1.560  0.00  0.00    +0.590 A 
ATOM      9  N   LIG    1       -1.127   4.827  -1.272  0.00  0.00    -0.570 NA
ENDROOT
BRANCH   1  16
ATOM     10  C   LIG    1       -7.972   3.576   2.690  0.00  0.00    +0.310 C 
ATOM     11  N   LIG    1       -7.154   3.772   1.490  0.00  0.00    -0.630 N 
ATOM     12  C   LIG    1       -6.460   4.915   1.326  0.00  0.00    +0.710 C 
ATOM     13  N   LIG    1       -5.682   5.081   0.238  0.00  0.00    -0.650 N 
ATOM     14  C   LIG    1       -5.054   3.928  -0.424  0.00  0.00    +0.290 C 
ATOM     15  C   LIG    1       -3.558   4.217  -0.589  0.00  0.00    +0.220 C 
ATOM     16  N   LIG    1       -3.384   5.501  -1.281  0.00  0.00    -0.460 N 
ATOM     17  C   LIG    1       -3.929   6.612  -0.488  0.00  0.00    +0.220 C 
ATOM     18  C   LIG    1       -5.440   6.421  -0.319  0.00  0.00    +0.320 C 
ATOM     19  O   LIG    1       -6.535   5.797   2.160  0.00  0.00    -0.580 OA
ATOM     20  C   LIG    1       -7.091   2.724   0.468  0.00  0.00    +0.280 C 
ENDBRANCH   1  16
BRANCH   5  21
ATOM     21  C   LIG    1        1.054   8.874  -3.690  0.00  0.00    +0.410 C 
BRANCH  21  22
ATOM     22  C   LIG    1        1.291   8.436  -5.112  0.00  0.00    -0.130 A 
ATOM     23  C   LIG    1        2.033   7.298  -5.370  0.00  0.00    +0.040 A 
ATOM     24  C   LIG    1        2.246   6.894  -6.675  0.00  0.00    +0.010 A 
ATOM     25  C   LIG    1        1.726   7.632  -7.721  0.00  0.00    +0.030 A 
ATOM     26  C   LIG    1        0.989   8.773  -7.463  0.00  0.00    +0.010 A 
ATOM     27  C   LIG    1        0.771   9.174  -6.159  0.00  0.00    +0.040 A 
ENDBRANCH  21  22
ENDBRANCH   5  21
TORSDOF 3
