REMARK  Name = ZINCtV000002NTh3.0
REMARK                            x       y       z     vdW  Elec       q    Type
REMARK                         _______ _______ _______ _____ _____    ______ ____
ROOT
ATOM      1  O   LIG    1        1.274   5.829  -0.096  0.00  0.00    -0.500 OA
ATOM      2  C   LIG    1        2.334   5.235  -0.095  0.00  0.00    +0.570 C 
ATOM      3  N   LIG    1        2.355   3.892   0.015  0.00  0.00    -0.660 N 
ATOM      4  H   LIG    1        3.202   3.424   0.080  0.00  0.00    +0.420 HD
ENDROOT
BRANCH   2   5
ATOM      5  C   LIG    1        3.602   5.987  -0.215  0.00  0.00    -0.070 A 
ATOM      6  C   LIG    1        4.819   5.333  -0.330  0.00  0.00    +0.020 A 
ATOM      7  C   LIG    1        6.000   6.088  -0.448  0.00  0.00    +0.230 A 
ATOM      8  N   LIG    1        5.995   7.407  -0.441  0.00  0.00    -0.440 NA
ATOM      9  C   LIG    1        4.869   8.114  -0.329  0.00  0.00    +0.130 A 
ATOM     10  C   LIG    1        4.894   9.521  -0.325  0.00  0.00    +0.050 A 
ATOM     11  C   LIG    1        3.730  10.217  -0.210  0.00  0.00    +0.050 A 
ATOM     12  C   LIG    1        2.508   9.559  -0.094  0.00  0.00    +0.020 A 
ATOM     13  C   LIG    1        2.445   8.197  -0.094  0.00  0.00    +0.060 A 
ATOM     14  C   LIG    1        3.622   7.450  -0.211  0.00  0.00    -0.060 A 
BRANCH   7  15
ATOM     15  C   LIG    1        7.288   5.380  -0.576  0.00  0.00    -0.170 A 
ATOM     16  C   LIG    1        8.495   5.974  -0.695  0.00  0.00    +0.070 A 
ATOM     17  C   LIG    1        9.557   5.103  -0.797  0.00  0.00    +0.010 A 
ATOM     18  C   LIG    1        9.231   3.805  -0.772  0.00  0.00    -0.020 A 
ATOM     19  S   LIG    1        7.489   3.633  -0.604  0.00  0.00    +0.130 S 
ENDBRANCH   7  15
ENDBRANCH   2   5
BRANCH   3  20
ATOM     20  C   LIG    1        1.155   3.173   0.036  0.00  0.00    +0.150 A 
ATOM     21  C   LIG    1        0.030   3.716   0.642  0.00  0.00    +0.100 A 
ATOM     22  C   LIG    1       -1.154   3.004   0.661  0.00  0.00    -0.160 A 
ATOM     23  C   LIG    1       -1.221   1.755   0.073  0.00  0.00    +0.080 A 
ATOM     24  C   LIG    1       -0.101   1.208  -0.527  0.00  0.00    +0.060 A 
ATOM     25  C   LIG    1        1.086   1.915  -0.550  0.00  0.00    -0.030 A 
ATOM     26 CL   LIG    1        2.490   1.231  -1.309  0.00  0.00    -0.040 Cl
BRANCH  22  27
ATOM     27  C   LIG    1       -2.376   3.593   1.318  0.00  0.00    +0.510 C 
ATOM     28  F   LIG    1       -1.982   4.435   2.363  0.00  0.00    -0.170 F 
ATOM     29  F   LIG    1       -3.175   2.562   1.825  0.00  0.00    -0.170 F 
ATOM     30  F   LIG    1       -3.104   4.327   0.376  0.00  0.00    -0.170 F 
ENDBRANCH  22  27
ENDBRANCH   3  20
TORSDOF 4
