REMARK  Name = ZINCkj000005h9sg.0
REMARK                            x       y       z     vdW  Elec       q    Type
REMARK                         _______ _______ _______ _____ _____    ______ ____
ROOT
ATOM      1  C   LIG    1       -0.769   1.730  -1.228  0.00  0.00    +0.160 C 
ATOM      2  C   LIG    1       -1.184   3.090  -0.612  0.00  0.00    +0.290 C 
ATOM      3  N   LIG    1       -1.584   2.771   0.772  0.00  0.00    -0.600 N 
ATOM      4  C   LIG    1       -0.912   1.528   1.180  0.00  0.00    +0.170 C 
ATOM      5  C   LIG    1        0.012   1.792   2.369  0.00  0.00    +0.000 C 
ATOM      6  C   LIG    1       -0.832   2.197   3.581  0.00  0.00    +0.220 C 
ATOM      7  O   LIG    1       -1.786   1.171   3.860  0.00  0.00    -0.370 OA
ATOM      8  C   LIG    1       -2.712   0.930   2.799  0.00  0.00    +0.210 C 
ATOM      9  C   LIG    1       -1.950   0.469   1.554  0.00  0.00    -0.010 C 
ATOM     10  C   LIG    1       -2.423   3.498   1.536  0.00  0.00    +0.520 C 
ATOM     11  O   LIG    1       -2.650   3.160   2.678  0.00  0.00    -0.430 OA
ATOM     12  C   LIG    1       -0.082   1.037  -0.021  0.00  0.00    +0.080 C 
ENDROOT
BRANCH  10  13
ATOM     13  C   LIG    1       -3.079   4.731   0.971  0.00  0.00    -0.050 C 
ATOM     14  C   LIG    1       -4.590   4.682   0.733  0.00  0.00    +0.120 C 
ATOM     15  C   LIG    1       -4.022   5.513   1.887  0.00  0.00    +0.240 C 
ATOM     16  F   LIG    1       -4.046   6.905   1.754  0.00  0.00    -0.150 F 
ATOM     17  F   LIG    1       -4.210   5.028   3.186  0.00  0.00    -0.130 F 
ENDBRANCH  10  13
BRANCH   1  19
ATOM     18  C   LIG    1        0.692   0.616  -2.771  0.00  0.00    +0.320 C 
ATOM     19  N   LIG    1        0.178   1.922  -2.335  0.00  0.00    -0.380 N 
ATOM     20  C   LIG    1       -0.505   2.579  -3.457  0.00  0.00    +0.330 C 
ATOM     21  H   LIG    1        0.946   2.498  -2.024  0.00  0.00    +0.430 HD
ENDBRANCH   1  19
TORSDOF 2
