REMARK  Name = ZINCrg00000A27he.0
REMARK                            x       y       z     vdW  Elec       q    Type
REMARK                         _______ _______ _______ _____ _____    ______ ____
ROOT
ATOM      1  C   LIG    1        0.042   2.030   0.186  0.00  0.00    +0.230 C 
ATOM      2  C   LIG    1       -0.644   2.537  -1.084  0.00  0.00    +0.010 C 
ATOM      3  C   LIG    1       -0.173   1.706  -2.281  0.00  0.00    +0.280 C 
ATOM      4  N   LIG    1        1.294   1.742  -2.334  0.00  0.00    -0.610 N 
ATOM      5  C   LIG    1        2.054   1.359  -1.135  0.00  0.00    +0.300 C 
ATOM      6  C   LIG    1        1.933   2.117  -3.460  0.00  0.00    +0.570 C 
ATOM      7  O   LIG    1        3.141   2.244  -3.460  0.00  0.00    -0.530 OA
ATOM      8  C   LIG    1        1.558   2.195   0.050  0.00  0.00    +0.030 C 
ENDROOT
BRANCH   6   9
ATOM      9  C   LIG    1        1.162   2.374  -4.695  0.00  0.00    -0.190 A 
ATOM     10  C   LIG    1        1.482   3.452  -5.521  0.00  0.00    +0.330 A 
ATOM     11  N   LIG    1        0.800   3.676  -6.623  0.00  0.00    -0.480 NA
ATOM     12  C   LIG    1       -0.215   2.911  -6.994  0.00  0.00    +0.140 A 
ATOM     13  C   LIG    1       -1.115   3.010  -8.209  0.00  0.00    +0.110 C 
ATOM     14  C   LIG    1       -2.348   2.145  -7.871  0.00  0.00    +0.050 C 
ATOM     15  C   LIG    1       -1.774   1.127  -6.863  0.00  0.00    +0.090 C 
ATOM     16  C   LIG    1       -0.596   1.827  -6.222  0.00  0.00    -0.160 A 
ATOM     17  C   LIG    1        0.094   1.545  -5.056  0.00  0.00    +0.110 A 
ENDBRANCH   6   9
BRANCH   1  19
ATOM     18  C   LIG    1       -1.569   2.445   1.966  0.00  0.00    +0.500 C 
ATOM     19  N   LIG    1       -0.431   2.801   1.338  0.00  0.00    -0.720 N 
ATOM     20  H   LIG    1        0.075   3.568   1.649  0.00  0.00    +0.410 HD
ATOM     21  O   LIG    1       -2.202   1.487   1.577  0.00  0.00    -0.520 OA
BRANCH  18  23
ATOM     22  C   LIG    1       -1.369   2.734   4.421  0.00  0.00    +0.090 C 
ATOM     23  C   LIG    1       -2.056   3.239   3.151  0.00  0.00    +0.060 C 
ATOM     24  C   LIG    1       -3.572   3.074   3.289  0.00  0.00    +0.240 C 
ATOM     25  O   LIG    1       -4.213   3.648   2.146  0.00  0.00    -0.370 OA
ATOM     26  C   LIG    1       -3.907   5.033   1.953  0.00  0.00    +0.200 C 
ATOM     27  C   LIG    1       -2.391   5.197   1.815  0.00  0.00    +0.190 C 
ATOM     28  O   LIG    1       -1.750   4.623   2.958  0.00  0.00    -0.360 OA
ENDBRANCH  18  23
ENDBRANCH   1  19
TORSDOF 3
