REMARK  Name = ZINCpk00000e9yN5.0
REMARK                            x       y       z     vdW  Elec       q    Type
REMARK                         _______ _______ _______ _____ _____    ______ ____
ROOT
ATOM      1  N   LIG    1        2.075  -0.128  -1.183  0.00  0.00    -0.730 N 
ATOM      2  H   LIG    1        2.433   0.436  -0.479  0.00  0.00    +0.400 HD
ATOM      3  C   LIG    1        2.857  -0.490  -2.220  0.00  0.00    +0.560 C 
ATOM      4  O   LIG    1        2.408  -1.197  -3.101  0.00  0.00    -0.530 OA
ENDROOT
BRANCH   3   5
ATOM      5  C   LIG    1        4.257  -0.026  -2.285  0.00  0.00    -0.140 A 
ATOM      6  C   LIG    1        4.772   0.792  -1.277  0.00  0.00    +0.070 A 
ATOM      7  C   LIG    1        6.081   1.217  -1.338  0.00  0.00    +0.000 A 
ATOM      8  C   LIG    1        6.886   0.843  -2.409  0.00  0.00    +0.180 A 
ATOM      9  C   LIG    1        6.374   0.034  -3.418  0.00  0.00    +0.030 A 
ATOM     10  C   LIG    1        5.069  -0.400  -3.360  0.00  0.00    +0.120 A 
BRANCH   8  11
ATOM     11  N   LIG    1        8.212   1.282  -2.471  0.00  0.00    -0.340 N 
ATOM     12  C   LIG    1        8.846   2.070  -1.580  0.00  0.00    +0.500 A 
ATOM     13  N   LIG    1       10.073   2.246  -1.996  0.00  0.00    -0.530 NA
ATOM     14  C   LIG    1       10.258   1.600  -3.147  0.00  0.00    +0.440 A 
ATOM     15  N   LIG    1        9.148   0.995  -3.479  0.00  0.00    -0.310 NA
ENDBRANCH   8  11
ENDBRANCH   3   5
BRANCH   1  16
ATOM     16  C   LIG    1        0.686  -0.588  -1.117  0.00  0.00    +0.300 C 
BRANCH  16  17
ATOM     17  C   LIG    1       -0.020   0.088   0.060  0.00  0.00    +0.100 C 
ATOM     18  C   LIG    1        0.818  -0.090   1.328  0.00  0.00    +0.000 C 
BRANCH  17  19
ATOM     19  N   LIG    1       -0.181   1.521  -0.223  0.00  0.00    -0.520 NA
ATOM     20  C   LIG    1        1.125   2.176  -0.384  0.00  0.00    +0.130 C 
ATOM     21  C   LIG    1        0.909   3.651  -0.736  0.00  0.00    +0.220 C 
ATOM     22  O   LIG    1        0.116   4.267   0.281  0.00  0.00    -0.380 OA
ATOM     23  C   LIG    1       -1.163   3.654   0.464  0.00  0.00    +0.220 C 
ATOM     24  C   LIG    1       -0.969   2.180   0.828  0.00  0.00    +0.150 C 
ENDBRANCH  17  19
BRANCH  17  26
ATOM     25  C   LIG    1       -2.273  -0.272  -0.959  0.00  0.00    +0.030 C 
ATOM     26  C   LIG    1       -1.396  -0.549   0.264  0.00  0.00    +0.030 C 
ENDBRANCH  17  26
ENDBRANCH  16  17
ENDBRANCH   1  16
TORSDOF 6
