REMARK  Name = ZINCpe000000XZ3i.0
REMARK                            x       y       z     vdW  Elec       q    Type
REMARK                         _______ _______ _______ _____ _____    ______ ____
ROOT
ATOM      1  N   LIG    1        3.759   7.762   0.004  0.00  0.00    -0.680 N 
ATOM      2  H   LIG    1        4.725   7.703   0.061  0.00  0.00    +0.410 HD
ATOM      3  C   LIG    1        3.161   8.966  -0.087  0.00  0.00    +0.510 C 
ATOM      4  O   LIG    1        1.950   9.045  -0.074  0.00  0.00    -0.490 OA
ENDROOT
BRANCH   1   8
ATOM      5  C   LIG    1        1.453   4.289   0.036  0.00  0.00    -0.030 A 
ATOM      6  C   LIG    1        0.977   5.448   0.646  0.00  0.00    +0.090 A 
ATOM      7  C   LIG    1        1.744   6.594   0.639  0.00  0.00    +0.030 A 
ATOM      8  C   LIG    1        2.986   6.597   0.015  0.00  0.00    +0.160 A 
ATOM      9  C   LIG    1        3.460   5.444  -0.599  0.00  0.00    -0.020 A 
ATOM     10  C   LIG    1        2.699   4.294  -0.590  0.00  0.00    +0.080 A 
BRANCH   5  14
ATOM     11  C   LIG    1       -2.341   1.168   0.913  0.00  0.00    +0.200 C 
ATOM     12  C   LIG    1       -1.018   1.706   0.432  0.00  0.00    +0.290 A 
ATOM     13  N   LIG    1       -0.575   2.922   0.612  0.00  0.00    -0.530 NA
ATOM     14  C   LIG    1        0.633   3.053   0.047  0.00  0.00    +0.270 A 
ATOM     15  N   LIG    1        0.970   1.904  -0.498  0.00  0.00    -0.310 NA
ATOM     16  N   LIG    1       -0.090   1.015  -0.254  0.00  0.00    -0.480 N 
ATOM     17  H   LIG    1       -0.144   0.087  -0.529  0.00  0.00    +0.440 HD
ENDBRANCH   5  14
ENDBRANCH   1   8
BRANCH   3  18
ATOM     18  C   LIG    1        3.996  10.215  -0.203  0.00  0.00    +0.210 C 
BRANCH  18  19
ATOM     19  N   LIG    1        3.115  11.388  -0.286  0.00  0.00    -0.510 NA
ATOM     20  C   LIG    1        2.334  11.372  -1.531  0.00  0.00    +0.210 C 
BRANCH  19  21
ATOM     21  C   LIG    1        3.883  12.634  -0.163  0.00  0.00    +0.200 C 
ATOM     22  C   LIG    1        4.726  12.850  -1.432  0.00  0.00    +0.040 C 
ATOM     23  C   LIG    1        5.238  14.312  -1.380  0.00  0.00    -0.310 C 
ATOM     24  S   LIG    1        3.760  15.233  -0.810  0.00  0.00    +2.390 S 
ATOM     25  O   LIG    1        4.146  16.180   0.177  0.00  0.00    -0.930 OA
ATOM     26  O   LIG    1        3.002  15.651  -1.937  0.00  0.00    -0.930 OA
ATOM     27  C   LIG    1        2.917  13.825  -0.002  0.00  0.00    -0.290 C 
ENDBRANCH  19  21
ENDBRANCH  18  19
ENDBRANCH   3  18
TORSDOF 5
