REMARK  Name = ZINCtV00000L6kli.0
REMARK                            x       y       z     vdW  Elec       q    Type
REMARK                         _______ _______ _______ _____ _____    ______ ____
ROOT
ATOM      1  C   LIG    1        8.013  -2.870   1.375  0.00  0.00    +0.160 C 
ATOM      2  C   LIG    1        7.505  -2.602  -0.018  0.00  0.00    +0.220 A 
ATOM      3  N   LIG    1        8.219  -2.977  -1.059  0.00  0.00    -0.470 NA
ATOM      4  C   LIG    1        7.795  -2.753  -2.307  0.00  0.00    +0.290 A 
ATOM      5  C   LIG    1        8.348  -3.044  -3.560  0.00  0.00    -0.200 A 
ATOM      6  C   LIG    1        7.453  -2.572  -4.528  0.00  0.00    +0.140 A 
ATOM      7  N   LIG    1        6.424  -2.031  -3.924  0.00  0.00    -0.310 NA
ATOM      8  C   LIG    1        7.642  -2.672  -6.020  0.00  0.00    +0.180 C 
ATOM      9  N   LIG    1        6.600  -2.125  -2.540  0.00  0.00    -0.300 N 
ATOM     10  C   LIG    1        5.829  -1.720  -1.481  0.00  0.00    +0.180 A 
ATOM     11  C   LIG    1        6.285  -1.953  -0.199  0.00  0.00    -0.080 A 
ENDROOT
BRANCH   5  12
ATOM     12  C   LIG    1        9.640  -3.722  -3.814  0.00  0.00    +0.010 A 
ATOM     13  C   LIG    1        9.822  -5.050  -3.427  0.00  0.00    +0.020 A 
ATOM     14  C   LIG    1       11.026  -5.678  -3.671  0.00  0.00    +0.000 A 
ATOM     15  C   LIG    1       12.056  -4.990  -4.288  0.00  0.00    +0.000 A 
ATOM     16  C   LIG    1       11.883  -3.671  -4.670  0.00  0.00    +0.000 A 
ATOM     17  C   LIG    1       10.682  -3.034  -4.436  0.00  0.00    +0.010 A 
ENDBRANCH   5  12
BRANCH  10  18
ATOM     18  S   LIG    1        4.289  -0.909  -1.751  0.00  0.00    +0.020 S 
BRANCH  18  19
ATOM     19  C   LIG    1        3.771  -0.637  -0.038  0.00  0.00    +0.130 C 
BRANCH  19  20
ATOM     20  C   LIG    1        2.438   0.064  -0.021  0.00  0.00    -0.080 A 
ATOM     21  C   LIG    1        2.380   1.424  -0.013  0.00  0.00    +0.050 A 
ATOM     22  C   LIG    1        1.156   2.091   0.002  0.00  0.00    +0.010 A 
ATOM     23  C   LIG    1       -0.017   1.401   0.010  0.00  0.00    +0.040 A 
ATOM     24  C   LIG    1        0.002  -0.004   0.002  0.00  0.00    -0.050 A 
ATOM     25  C   LIG    1       -1.188  -0.750   0.009  0.00  0.00    +0.030 A 
ATOM     26  C   LIG    1       -1.131  -2.110   0.001  0.00  0.00    +0.010 A 
ATOM     27  C   LIG    1        0.092  -2.776  -0.015  0.00  0.00    +0.020 A 
ATOM     28  C   LIG    1        1.266  -2.087  -0.021  0.00  0.00    +0.020 A 
ATOM     29  C   LIG    1        1.247  -0.682  -0.013  0.00  0.00    -0.030 A 
ENDBRANCH  19  20
ENDBRANCH  18  19
ENDBRANCH  10  18
TORSDOF 4
