REMARK  Name = ZINCqH0000038JGx.0
REMARK                            x       y       z     vdW  Elec       q    Type
REMARK                         _______ _______ _______ _____ _____    ______ ____
ROOT
ATOM      1  C   LIG    1       -2.122  -0.919   1.328  0.00  0.00    +0.620 C 
ATOM      2  N   LIG    1       -0.798  -1.169   1.315  0.00  0.00    -0.610 N 
ATOM      3  C   LIG    1        0.308  -0.200   1.137  0.00  0.00    +0.270 C 
ATOM      4  C   LIG    1        1.329  -0.935   0.242  0.00  0.00    +0.080 C 
ATOM      5  C   LIG    1        1.048  -2.436   0.466  0.00  0.00    -0.070 C 
ATOM      6  C   LIG    1        2.282  -3.128   1.048  0.00  0.00    +0.040 C 
ATOM      7  C   LIG    1        0.636  -3.101  -0.849  0.00  0.00    +0.040 C 
ATOM      8  C   LIG    1       -0.118  -2.475   1.483  0.00  0.00    +0.280 C 
ATOM      9  O   LIG    1       -2.908  -1.814   1.575  0.00  0.00    -0.510 OA
ENDROOT
BRANCH   1  14
ATOM     10  C   LIG    1       -3.748   3.291  -0.987  0.00  0.00    +0.170 C 
ATOM     11  C   LIG    1       -3.328   2.281   0.050  0.00  0.00    +0.060 A 
ATOM     12  N   LIG    1       -3.316   2.466   1.345  0.00  0.00    -0.270 NA
ATOM     13  N   LIG    1       -2.903   1.414   1.955  0.00  0.00    -0.250 N 
ATOM     14  C   LIG    1       -2.617   0.436   1.044  0.00  0.00    +0.020 A 
ATOM     15  C   LIG    1       -2.886   0.979  -0.202  0.00  0.00    -0.170 A 
ATOM     16 BR   LIG    1       -2.697   0.137  -1.885  0.00  0.00    +0.000 Br
BRANCH  13  17
ATOM     17  C   LIG    1       -2.765   1.280   3.408  0.00  0.00    +0.170 C 
ATOM     18  C   LIG    1       -3.124   2.608   4.078  0.00  0.00    +0.080 C 
ATOM     19  C   LIG    1       -3.707   0.184   3.910  0.00  0.00    +0.070 C 
ATOM     20  C   LIG    1       -1.321   0.909   3.751  0.00  0.00    +0.060 C 
ENDBRANCH  13  17
ENDBRANCH   1  14
BRANCH   4  21
ATOM     21  C   LIG    1        2.736  -0.595   0.664  0.00  0.00    -0.220 A 
ATOM     22  C   LIG    1        3.740  -0.204  -0.154  0.00  0.00    +0.230 A 
ATOM     23  N   LIG    1        4.834   0.003   0.607  0.00  0.00    -0.370 N 
ATOM     24  N   LIG    1        4.492  -0.271   1.938  0.00  0.00    -0.290 NA
ATOM     25  C   LIG    1        6.149   0.437   0.127  0.00  0.00    +0.360 C 
ATOM     26  C   LIG    1        3.232  -0.623   1.971  0.00  0.00    +0.240 A 
ENDBRANCH   4  21
TORSDOF 3
