REMARK  Name = ZINCtV00000rEKbu.0
REMARK                            x       y       z     vdW  Elec       q    Type
REMARK                         _______ _______ _______ _____ _____    ______ ____
ROOT
ATOM      1  C   LIG    1       -1.412  -2.088   0.098  0.00  0.00    +0.290 C 
ENDROOT
BRANCH   1   2
ATOM      2  C   LIG    1       -2.822  -2.603  -0.040  0.00  0.00    -0.090 A 
ATOM      3  C   LIG    1       -3.626  -2.720   1.079  0.00  0.00    +0.040 A 
ATOM      4  C   LIG    1       -4.920  -3.187   0.954  0.00  0.00    +0.000 A 
ATOM      5  C   LIG    1       -5.409  -3.548  -0.293  0.00  0.00    +0.090 A 
ATOM      6  C   LIG    1       -4.598  -3.434  -1.413  0.00  0.00    +0.010 A 
ATOM      7  C   LIG    1       -3.306  -2.961  -1.284  0.00  0.00    +0.040 A 
BRANCH   5   8
ATOM      8  O   LIG    1       -6.680  -4.012  -0.418  0.00  0.00    -0.260 OA
BRANCH   8   9
ATOM      9  C   LIG    1       -7.701  -3.147  -0.180  0.00  0.00    +0.120 A 
ATOM     10  C   LIG    1       -7.435  -1.807   0.059  0.00  0.00    -0.060 A 
ATOM     11  C   LIG    1       -8.475  -0.929   0.296  0.00  0.00    +0.050 A 
ATOM     12  C   LIG    1       -9.780  -1.387   0.305  0.00  0.00    -0.020 A 
ATOM     13  C   LIG    1      -10.047  -2.724   0.072  0.00  0.00    +0.050 A 
ATOM     14  C   LIG    1       -9.011  -3.605  -0.170  0.00  0.00    -0.020 A 
ENDBRANCH   8   9
ENDBRANCH   5   8
ENDBRANCH   1   2
BRANCH   1  15
ATOM     15  N   LIG    1       -0.807  -2.643   1.312  0.00  0.00    -0.740 N 
ATOM     16  H   LIG    1       -1.370  -2.926   2.049  0.00  0.00    +0.400 HD
BRANCH  15  17
ATOM     17  C   LIG    1        0.593  -2.764   1.409  0.00  0.00    +0.070 A 
ATOM     18  C   LIG    1        1.493  -2.414   0.456  0.00  0.00    +0.140 A 
ATOM     19  N   LIG    1        2.733  -2.688   0.942  0.00  0.00    -0.380 N 
ATOM     20  N   LIG    1        2.581  -3.228   2.225  0.00  0.00    -0.270 NA
ATOM     21  C   LIG    1        4.002  -2.464   0.245  0.00  0.00    +0.350 C 
ATOM     22  C   LIG    1        1.303  -3.274   2.505  0.00  0.00    +0.050 A 
BRANCH  22  23
ATOM     23  C   LIG    1        0.699  -3.787   3.787  0.00  0.00    +0.070 C 
ATOM     24  C   LIG    1        1.256  -2.995   4.988  0.00  0.00    +0.020 C 
ATOM     25  C   LIG    1        1.401  -4.057   6.107  0.00  0.00    +0.020 C 
ATOM     26  C   LIG    1        1.882  -5.309   5.332  0.00  0.00    +0.010 C 
ATOM     27  C   LIG    1        1.096  -5.257   4.005  0.00  0.00    +0.020 C 
ENDBRANCH  22  23
ENDBRANCH  15  17
ENDBRANCH   1  15
BRANCH   1  28
ATOM     28  C   LIG    1       -1.433  -0.561   0.190  0.00  0.00    +0.010 C 
BRANCH  28  30
ATOM     29  C   LIG    1       -0.018   1.495   0.297  0.00  0.00    +0.000 C 
ATOM     30  C   LIG    1        0.003  -0.032   0.205  0.00  0.00    +0.010 C 
ENDBRANCH  28  30
ENDBRANCH   1  28
TORSDOF 8
