REMARK  Name = ZINCpe00000xUdxe.0
REMARK                            x       y       z     vdW  Elec       q    Type
REMARK                         _______ _______ _______ _____ _____    ______ ____
ROOT
ATOM      1  C   LIG    1        2.784  -3.717   6.129  0.00  0.00    +0.260 C 
ATOM      2  C   LIG    1        4.232  -3.328   6.109  0.00  0.00    -0.040 C 
ATOM      3  C   LIG    1        4.671  -2.145   5.819  0.00  0.00    -0.040 C 
ATOM      4  C   LIG    1        3.778  -0.985   5.478  0.00  0.00    +0.320 C 
ATOM      5  N   LIG    1        2.408  -1.475   5.273  0.00  0.00    -0.610 N 
ATOM      6  C   LIG    1        1.648  -1.030   4.252  0.00  0.00    +0.580 C 
ATOM      7  O   LIG    1        0.495  -1.401   4.145  0.00  0.00    -0.530 OA
ATOM      8  C   LIG    1        1.896  -2.468   6.234  0.00  0.00    +0.300 C 
ENDROOT
BRANCH   6   9
ATOM      9  C   LIG    1        2.216  -0.093   3.264  0.00  0.00    -0.250 A 
ATOM     10  C   LIG    1        2.993   0.990   3.681  0.00  0.00    +0.340 A 
ATOM     11  N   LIG    1        3.500   1.827   2.800  0.00  0.00    -0.540 NA
ATOM     12  C   LIG    1        3.300   1.672   1.498  0.00  0.00    +0.430 A 
ATOM     13  C   LIG    1        2.531   0.617   1.012  0.00  0.00    -0.250 A 
ATOM     14  C   LIG    1        1.984  -0.277   1.893  0.00  0.00    +0.180 A 
BRANCH  12  15
ATOM     15  N   LIG    1        3.860   2.575   0.610  0.00  0.00    -0.840 N 
ATOM     16  H   LIG    1        4.396   3.312   0.941  0.00  0.00    +0.410 HD
ATOM     17  H   LIG    1        3.715   2.470  -0.344  0.00  0.00    +0.410 HD
ENDBRANCH  12  15
BRANCH  13  18
ATOM     18  C   LIG    1        2.308   0.457  -0.470  0.00  0.00    +0.290 C 
BRANCH  18  19
ATOM     19  O   LIG    1        1.497  -0.695  -0.709  0.00  0.00    -0.560 OA
ATOM     20  H   LIG    1        1.884  -1.521  -0.388  0.00  0.00    +0.380 HD
ENDBRANCH  18  19
ENDBRANCH  13  18
ENDBRANCH   6   9
BRANCH   1  22
ATOM     21  C   LIG    1        2.754  -5.909   7.193  0.00  0.00    +0.520 C 
ATOM     22  N   LIG    1        2.530  -4.583   7.283  0.00  0.00    -0.730 N 
ATOM     23  H   LIG    1        2.202  -4.202   8.113  0.00  0.00    +0.400 HD
ATOM     24  O   LIG    1        3.165  -6.385   6.156  0.00  0.00    -0.530 OA
BRANCH  21  25
ATOM     25  C   LIG    1        2.494  -6.799   8.381  0.00  0.00    +0.070 C 
BRANCH  25  26
ATOM     26  C   LIG    1        2.826  -8.247   8.015  0.00  0.00    +0.030 C 
ATOM     27  C   LIG    1        1.865  -8.732   6.927  0.00  0.00    +0.030 C 
BRANCH  26  29
ATOM     28  C   LIG    1        3.715  -9.792   9.684  0.00  0.00    +0.010 C 
ATOM     29  C   LIG    1        2.684  -9.119   9.236  0.00  0.00    -0.040 C 
ENDBRANCH  26  29
ENDBRANCH  25  26
ENDBRANCH  21  25
ENDBRANCH   1  22
TORSDOF 8
