REMARK  Name = ZINCkj00000dEkWI.0
REMARK                            x       y       z     vdW  Elec       q    Type
REMARK                         _______ _______ _______ _____ _____    ______ ____
ROOT
ATOM      1  N   LIG    1       -2.900   1.551  -2.409  0.00  0.00    -0.500 N 
ATOM      2  H   LIG    1       -2.384   1.291  -3.236  0.00  0.00    +0.430 HD
ATOM      3  H   LIG    1       -2.982   2.556  -2.366  0.00  0.00    +0.430 HD
ENDROOT
BRANCH   1   4
ATOM      4  C   LIG    1       -2.190   1.067  -1.218  0.00  0.00    +0.180 C 
ATOM      5  C   LIG    1       -0.753   1.593  -1.231  0.00  0.00    +0.050 C 
ATOM      6  C   LIG    1       -0.013   1.086   0.008  0.00  0.00    +0.070 C 
ATOM      7  C   LIG    1       -0.729   1.579   1.266  0.00  0.00    +0.250 C 
ATOM      8  O   LIG    1       -0.740   3.016   1.277  0.00  0.00    -0.370 OA
ATOM      9  C   LIG    1       -0.590   3.377   2.671  0.00  0.00    +0.220 C 
ATOM     10  C   LIG    1        0.374   2.275   3.179  0.00  0.00    +0.210 C 
ATOM     11  C   LIG    1       -2.168   1.060   1.281  0.00  0.00    +0.050 C 
ATOM     12  O   LIG    1       -0.036   1.113   2.430  0.00  0.00    -0.370 OA
ATOM     13  C   LIG    1       -2.905   1.567   0.039  0.00  0.00    +0.050 C 
ENDBRANCH   1   4
BRANCH   1  20
ATOM     14  C   LIG    1       -3.516  -2.606  -2.484  0.00  0.00    +0.440 A 
ATOM     15  N   LIG    1       -4.465  -2.586  -3.386  0.00  0.00    -0.270 NA
ATOM     16  N   LIG    1       -4.874  -1.255  -3.506  0.00  0.00    -0.340 N 
ATOM     17  C   LIG    1       -5.908  -0.699  -4.379  0.00  0.00    +0.340 C 
ATOM     18  C   LIG    1       -6.290   0.694  -3.866  0.00  0.00    +0.080 C 
ATOM     19  C   LIG    1       -5.020   1.524  -3.649  0.00  0.00    +0.070 C 
ATOM     20  C   LIG    1       -4.240   0.951  -2.458  0.00  0.00    +0.290 C 
ATOM     21  C   LIG    1       -4.122  -0.542  -2.646  0.00  0.00    +0.210 A 
ATOM     22  N   LIG    1       -3.313  -1.364  -2.039  0.00  0.00    -0.520 NA
ENDBRANCH   1  20
TORSDOF 2
