REMARK  Name = ZINCrH000004kWr2.0
REMARK                            x       y       z     vdW  Elec       q    Type
REMARK                         _______ _______ _______ _____ _____    ______ ____
ROOT
ATOM      1  N   LIG    1       -0.698   1.558   1.213  0.00  0.00    -0.730 N 
ATOM      2  H   LIG    1       -1.495   2.106   1.135  0.00  0.00    +0.400 HD
ATOM      3  C   LIG    1       -0.222   1.232   2.431  0.00  0.00    +0.520 C 
ATOM      4  O   LIG    1        0.774   0.548   2.529  0.00  0.00    -0.510 OA
ENDROOT
BRANCH   1   5
ATOM      5  C   LIG    1       -0.013   1.086   0.008  0.00  0.00    +0.320 C 
BRANCH   5   9
ATOM      6  C   LIG    1       -2.081   2.502  -3.457  0.00  0.00    -0.120 A 
ATOM      7  C   LIG    1       -1.058   3.265  -2.890  0.00  0.00    +0.090 A 
ATOM      8  C   LIG    1       -0.395   2.802  -1.772  0.00  0.00    +0.030 A 
ATOM      9  C   LIG    1       -0.742   1.585  -1.213  0.00  0.00    -0.070 A 
ATOM     10  C   LIG    1       -1.750   0.821  -1.773  0.00  0.00    +0.030 A 
ATOM     11  C   LIG    1       -2.425   1.275  -2.887  0.00  0.00    +0.080 A 
BRANCH   6  12
ATOM     12  C   LIG    1       -2.795   2.991  -4.654  0.00  0.00    +0.510 C 
ATOM     13  O   LIG    1       -2.492   4.059  -5.148  0.00  0.00    -0.500 OA
BRANCH  12  15
ATOM     14  C   LIG    1       -4.439   2.795  -6.374  0.00  0.00    +0.290 C 
ATOM     15  O   LIG    1       -3.781   2.253  -5.199  0.00  0.00    -0.350 OA
ENDBRANCH  12  15
ENDBRANCH   6  12
ENDBRANCH   5   9
ENDBRANCH   1   5
BRANCH   3  16
ATOM     16  C   LIG    1       -0.927   1.718   3.671  0.00  0.00    +0.150 C 
BRANCH  16  17
ATOM     17  C   LIG    1       -0.198   1.219   4.892  0.00  0.00    +0.090 A 
ATOM     18  C   LIG    1        0.237   2.047   5.847  0.00  0.00    -0.070 A 
ATOM     19  S   LIG    1        1.030   1.084   7.092  0.00  0.00    +0.090 S 
ATOM     20  C   LIG    1        0.685  -0.379   6.173  0.00  0.00    +0.120 A 
ATOM     21  N   LIG    1        0.044  -0.057   5.086  0.00  0.00    -0.440 NA
BRANCH  20  22
ATOM     22  C   LIG    1        1.060  -1.752   6.574  0.00  0.00    -0.020 A 
ATOM     23  C   LIG    1        0.730  -2.834   5.757  0.00  0.00    +0.070 A 
ATOM     24  C   LIG    1        1.082  -4.113   6.136  0.00  0.00    +0.010 A 
ATOM     25  C   LIG    1        1.762  -4.324   7.323  0.00  0.00    +0.030 A 
ATOM     26  C   LIG    1        2.092  -3.254   8.137  0.00  0.00    -0.080 A 
ATOM     27  C   LIG    1        2.833  -3.493   9.428  0.00  0.00    +0.090 C 
ATOM     28  C   LIG    1        1.749  -1.970   7.767  0.00  0.00    +0.020 A 
ENDBRANCH  20  22
ENDBRANCH  16  17
ENDBRANCH   3  16
TORSDOF 7
