REMARK  Name = ZINCkj000005j8ry.0
REMARK                            x       y       z     vdW  Elec       q    Type
REMARK                         _______ _______ _______ _____ _____    ______ ____
ROOT
ATOM      1  N   LIG    1        1.114   0.943   3.366  0.00  0.00    -0.750 N 
ATOM      2  H   LIG    1        0.440   0.249   3.288  0.00  0.00    +0.390 HD
ATOM      3  C   LIG    1        2.286   0.677   3.976  0.00  0.00    +0.710 C 
ATOM      4  N   LIG    1        2.572  -0.580   4.367  0.00  0.00    -0.630 N 
ATOM      5  C   LIG    1        1.571  -1.648   4.248  0.00  0.00    +0.260 C 
ATOM      6  C   LIG    1        2.184  -2.814   3.466  0.00  0.00    +0.020 C 
ATOM      7  C   LIG    1        3.486  -3.247   4.142  0.00  0.00    +0.020 C 
ATOM      8  C   LIG    1        4.480  -2.083   4.132  0.00  0.00    -0.020 C 
ATOM      9  C   LIG    1        3.895  -0.910   4.916  0.00  0.00    +0.310 C 
ATOM     10  O   LIG    1        3.085   1.572   4.172  0.00  0.00    -0.580 OA
ENDROOT
BRANCH   1  12
ATOM     11  C   LIG    1        0.318   3.186   3.930  0.00  0.00    +0.020 C 
ATOM     12  C   LIG    1        0.857   2.278   2.822  0.00  0.00    +0.280 C 
BRANCH  12  13
ATOM     13  C   LIG    1       -0.175   2.181   1.696  0.00  0.00    -0.090 C 
ATOM     14  C   LIG    1       -1.477   1.595   2.247  0.00  0.00    +0.060 C 
ATOM     15  C   LIG    1        0.364   1.274   0.588  0.00  0.00    +0.040 C 
BRANCH  13  16
ATOM     16  C   LIG    1       -0.443   3.576   1.128  0.00  0.00    +0.270 C 
BRANCH  16  17
ATOM     17  N   LIG    1       -1.570   3.513   0.188  0.00  0.00    -0.390 N 
ATOM     18  C   LIG    1       -1.086   3.078  -1.129  0.00  0.00    +0.310 C 
ATOM     19  C   LIG    1       -2.183   4.843   0.069  0.00  0.00    +0.320 C 
ATOM     20  H   LIG    1       -2.256   2.856   0.528  0.00  0.00    +0.420 HD
ENDBRANCH  16  17
ENDBRANCH  13  16
ENDBRANCH  12  13
ENDBRANCH   1  12
BRANCH   8  21
ATOM     21  C   LIG    1        5.794  -2.528   4.778  0.00  0.00    +0.180 C 
BRANCH  21  22
ATOM     22  O   LIG    1        6.759  -1.480   4.664  0.00  0.00    -0.570 OA
ATOM     23  H   LIG    1        7.618  -1.693   5.053  0.00  0.00    +0.390 HD
ENDBRANCH  21  22
ENDBRANCH   8  21
TORSDOF 6
