REMARK  Name = ZINCvU00000007xJ.0
REMARK                            x       y       z     vdW  Elec       q    Type
REMARK                         _______ _______ _______ _____ _____    ______ ____
ROOT
ATOM      1  C   LIG    1       -2.607   3.955   0.160  0.00  0.00    +0.120 A 
ATOM      2  N   LIG    1       -3.741   3.293   0.094  0.00  0.00    -0.470 NA
ATOM      3  C   LIG    1       -3.787   1.960   0.011  0.00  0.00    +0.130 A 
ATOM      4  C   LIG    1       -5.015   1.279  -0.057  0.00  0.00    +0.050 A 
ATOM      5  C   LIG    1       -5.029  -0.079  -0.159  0.00  0.00    +0.030 A 
ATOM      6  C   LIG    1       -3.845  -0.810  -0.178  0.00  0.00    +0.020 A 
ATOM      7  C   LIG    1       -2.635  -0.183  -0.107  0.00  0.00    +0.050 A 
ATOM      8  C   LIG    1       -2.585   1.211  -0.014  0.00  0.00    -0.070 A 
ATOM      9  C   LIG    1       -1.310   1.927   0.063  0.00  0.00    -0.090 A 
ATOM     10  C   LIG    1       -1.361   3.311   0.147  0.00  0.00    +0.120 A 
ENDROOT
BRANCH   9  11
ATOM     11  C   LIG    1       -0.020   1.205   0.047  0.00  0.00    +0.500 C 
ATOM     12  O   LIG    1       -0.003  -0.011   0.077  0.00  0.00    -0.440 OA
BRANCH  11  13
ATOM     13  C   LIG    1        1.243   1.957  -0.013  0.00  0.00    +0.100 A 
ATOM     14  N   LIG    1        1.360   3.269  -0.056  0.00  0.00    -0.430 NA
ATOM     15  C   LIG    1        2.650   3.590  -0.099  0.00  0.00    +0.170 A 
ATOM     16  C   LIG    1        3.376   2.444  -0.093  0.00  0.00    +0.180 A 
ATOM     17  N   LIG    1        2.498   1.415  -0.039  0.00  0.00    -0.410 N 
ATOM     18  C   LIG    1        2.830  -0.012  -0.013  0.00  0.00    +0.350 C 
ENDBRANCH  11  13
ENDBRANCH   9  11
BRANCH   1  19
ATOM     19  S   LIG    1       -2.654   5.713   0.267  0.00  0.00    +0.050 S 
BRANCH  19  20
ATOM     20  C   LIG    1       -4.444   5.982   0.244  0.00  0.00    +0.110 C 
BRANCH  20  23
ATOM     21  N   LIG    1       -6.005   7.898   0.328  0.00  0.00    -0.660 N 
ATOM     22  H   LIG    1       -6.738   7.262   0.331  0.00  0.00    +0.420 HD
ATOM     23  C   LIG    1       -4.731   7.458   0.329  0.00  0.00    +0.530 C 
ATOM     24  O   LIG    1       -3.816   8.252   0.397  0.00  0.00    -0.500 OA
BRANCH  21  32
ATOM     25  C   LIG    1       -8.477   8.785  -0.767  0.00  0.00    +0.110 C 
ATOM     26  C   LIG    1       -7.466   9.748  -0.200  0.00  0.00    -0.110 A 
ATOM     27  C   LIG    1       -7.728  11.104  -0.199  0.00  0.00    +0.070 A 
ATOM     28  C   LIG    1       -6.797  11.989   0.316  0.00  0.00    -0.100 A 
ATOM     29  C   LIG    1       -5.604  11.518   0.835  0.00  0.00    +0.070 A 
ATOM     30  C   LIG    1       -5.339  10.163   0.840  0.00  0.00    +0.040 A 
ATOM     31 BR   LIG    1       -7.156  13.845   0.310  0.00  0.00    -0.050 Br
ATOM     32  C   LIG    1       -6.271   9.272   0.325  0.00  0.00    +0.160 A 
ENDBRANCH  21  32
ENDBRANCH  20  23
ENDBRANCH  19  20
ENDBRANCH   1  19
TORSDOF 6
