REMARK  Name = ZINCrg000000nPD9.0
REMARK                            x       y       z     vdW  Elec       q    Type
REMARK                         _______ _______ _______ _____ _____    ______ ____
ROOT
ATOM      1  C   LIG    1       -0.132   1.427  -0.332  0.00  0.00    -0.610 A 
ATOM      2  C   LIG    1        1.042   2.146  -0.443  0.00  0.00    +0.050 A 
ATOM      3  C   LIG    1        2.233   1.490  -0.729  0.00  0.00    +0.210 A 
ATOM      4  C   LIG    1        2.239   0.113  -0.902  0.00  0.00    +0.000 A 
ATOM      5  C   LIG    1        1.062  -0.602  -0.790  0.00  0.00    +0.080 A 
ATOM      6  C   LIG    1       -0.122   0.054  -0.506  0.00  0.00    -0.010 A 
ATOM      7 CL   LIG    1       -1.599  -0.847  -0.367  0.00  0.00    -0.050 Cl
ENDROOT
BRANCH   1   8
ATOM      8  S   LIG    1       -1.644   2.259   0.023  0.00  0.00    +2.680 S 
ATOM      9  O   LIG    1       -2.227   1.578   1.125  0.00  0.00    -0.940 OA
ATOM     10  O   LIG    1       -2.307   2.434  -1.222  0.00  0.00    -0.940 OA
BRANCH   8  11
ATOM     11  N   LIG    1       -1.254   3.775   0.562  0.00  0.00    -1.000 NA
BRANCH  11  13
ATOM     12  C   LIG    1       -2.309   5.675  -0.559  0.00  0.00    +0.030 C 
ATOM     13  C   LIG    1       -1.026   4.858  -0.398  0.00  0.00    +0.270 C 
ENDBRANCH  11  13
BRANCH  11  14
ATOM     14  C   LIG    1       -1.137   4.034   2.000  0.00  0.00    +0.300 C 
ATOM     15  C   LIG    1        0.327   3.904   2.424  0.00  0.00    +0.010 C 
ENDBRANCH  11  14
ENDBRANCH   8  11
ENDBRANCH   1   8
BRANCH   3  16
ATOM     16  N   LIG    1        3.422   2.216  -0.841  0.00  0.00    -0.730 N 
ATOM     17  H   LIG    1        3.416   3.178  -0.719  0.00  0.00    +0.420 HD
BRANCH  16  18
ATOM     18  C   LIG    1        4.677   1.523  -1.142  0.00  0.00    +0.300 C 
BRANCH  18  19
ATOM     19  C   LIG    1        5.801   2.525  -1.208  0.00  0.00    +0.510 C 
ATOM     20  N   LIG    1        7.056   2.113  -1.474  0.00  0.00    -0.720 N 
ATOM     21  H   LIG    1        7.236   1.171  -1.623  0.00  0.00    +0.410 HD
ATOM     22  O   LIG    1        5.575   3.702  -1.023  0.00  0.00    -0.520 OA
BRANCH  20  23
ATOM     23  C   LIG    1        8.148   3.087  -1.539  0.00  0.00    +0.270 C 
ATOM     24  C   LIG    1        9.276   2.541  -2.433  0.00  0.00    +0.080 C 
ATOM     25  C   LIG    1       10.511   3.447  -2.192  0.00  0.00    -0.300 C 
ATOM     26  S   LIG    1       10.491   3.674  -0.373  0.00  0.00    +2.400 S 
ATOM     27  O   LIG    1       10.754   5.036  -0.065  0.00  0.00    -0.930 OA
ATOM     28  O   LIG    1       11.259   2.647   0.238  0.00  0.00    -0.930 OA
ATOM     29  C   LIG    1        8.714   3.326  -0.125  0.00  0.00    -0.330 C 
ENDBRANCH  20  23
ENDBRANCH  18  19
ENDBRANCH  16  18
ENDBRANCH   3  16
TORSDOF 8
