REMARK  Name = ZINCkj000005iCEA.0
REMARK                            x       y       z     vdW  Elec       q    Type
REMARK                         _______ _______ _______ _____ _____    ______ ____
ROOT
ATOM      1  C   LIG    1       -0.856   3.105   5.471  0.00  0.00    +0.170 A 
ATOM      2  C   LIG    1       -0.209   2.657   4.331  0.00  0.00    +0.000 A 
ATOM      3  C   LIG    1       -0.695   1.559   3.647  0.00  0.00    -0.060 A 
ATOM      4  C   LIG    1       -1.830   0.909   4.094  0.00  0.00    -0.060 A 
ATOM      5  C   LIG    1       -2.478   1.348   5.234  0.00  0.00    +0.140 A 
ATOM      6  C   LIG    1       -1.996   2.448   5.925  0.00  0.00    +0.120 A 
ENDROOT
BRANCH   4   7
ATOM      7  N   LIG    1       -2.350  -0.262   3.353  0.00  0.00    +0.030 N 
ATOM      8  O   LIG    1       -1.778  -0.652   2.351  0.00  0.00    -0.210 OA
ATOM      9  O   LIG    1       -3.350  -0.836   3.746  0.00  0.00    -0.090 OA
ENDBRANCH   4   7
BRANCH   1  11
ATOM     10  C   LIG    1        0.796   4.810   5.623  0.00  0.00    +0.270 C 
ATOM     11  O   LIG    1       -0.378   4.185   6.146  0.00  0.00    -0.280 OA
ENDBRANCH   1  11
BRANCH   6  12
ATOM     12  O   LIG    1       -2.634   2.883   7.043  0.00  0.00    -0.460 OA
ATOM     13  H   LIG    1       -3.322   3.541   6.873  0.00  0.00    +0.410 HD
ENDBRANCH   6  12
BRANCH   3  14
ATOM     14  C   LIG    1        0.010   1.073   2.407  0.00  0.00    +0.350 C 
BRANCH  14  15
ATOM     15  N   LIG    1       -0.700   1.560   1.217  0.00  0.00    -0.500 N 
ATOM     16  H   LIG    1       -1.647   1.210   1.224  0.00  0.00    +0.430 HD
ATOM     17  H   LIG    1       -0.714   2.568   1.222  0.00  0.00    +0.420 HD
BRANCH  15  18
ATOM     18  C   LIG    1       -0.013   1.086   0.008  0.00  0.00    +0.260 C 
BRANCH  18  19
ATOM     19  C   LIG    1       -0.753   1.593  -1.232  0.00  0.00    +0.070 C 
ATOM     20  C   LIG    1       -2.033   0.803  -1.550  0.00  0.00    +0.010 C 
ATOM     21  C   LIG    1       -1.638   0.913  -3.033  0.00  0.00    +0.050 C 
ATOM     22  C   LIG    1       -0.183   1.051  -2.553  0.00  0.00    +0.080 C 
BRANCH  19  23
ATOM     23  O   LIG    1       -0.938   3.010  -1.226  0.00  0.00    -0.520 OA
ATOM     24  H   LIG    1       -1.318   3.353  -0.406  0.00  0.00    +0.370 HD
ENDBRANCH  19  23
ENDBRANCH  18  19
ENDBRANCH  15  18
ENDBRANCH  14  15
ENDBRANCH   3  14
TORSDOF 8
