REMARK  Name = ZINCrH00000No4LV.0
REMARK                            x       y       z     vdW  Elec       q    Type
REMARK                         _______ _______ _______ _____ _____    ______ ____
ROOT
ATOM      1  N   LIG    1        1.143   1.902   0.001  0.00  0.00    -0.700 N 
ATOM      2  H   LIG    1        1.130   2.872   0.007  0.00  0.00    +0.400 HD
ATOM      3  C   LIG    1       -0.014   1.212   0.009  0.00  0.00    +0.600 C 
ATOM      4  O   LIG    1        0.002  -0.004   0.002  0.00  0.00    -0.530 OA
ENDROOT
BRANCH   3   5
ATOM      5  C   LIG    1       -1.296   1.930   0.019  0.00  0.00    -0.230 A 
ATOM      6  C   LIG    1       -1.476   3.281   0.033  0.00  0.00    +0.330 A 
ATOM      7  N   LIG    1       -2.800   3.569   0.035  0.00  0.00    -0.570 N 
ATOM      8  H   LIG    1       -3.172   4.464   0.041  0.00  0.00    +0.430 HD
ATOM      9  C   LIG    1       -3.544   2.407   0.032  0.00  0.00    +0.080 A 
ATOM     10  C   LIG    1       -4.911   2.153   0.038  0.00  0.00    +0.110 A 
ATOM     11  C   LIG    1       -5.369   0.853   0.034  0.00  0.00    -0.020 A 
ATOM     12  C   LIG    1       -4.478  -0.210   0.024  0.00  0.00    +0.080 A 
ATOM     13  C   LIG    1       -3.120   0.021   0.017  0.00  0.00    +0.100 A 
ATOM     14  C   LIG    1       -2.643   1.330   0.022  0.00  0.00    -0.020 A 
BRANCH  11  15
ATOM     15  N   LIG    1       -6.825   0.589   0.039  0.00  0.00    +0.030 N 
ATOM     16  O   LIG    1       -7.236  -0.558   0.035  0.00  0.00    -0.150 OA
ATOM     17  O   LIG    1       -7.613   1.518   0.048  0.00  0.00    -0.160 OA
ENDBRANCH  11  15
ENDBRANCH   3   5
BRANCH   1  20
ATOM     18  C   LIG    1        3.645   1.913   0.549  0.00  0.00    +0.000 C 
ATOM     19  C   LIG    1        3.508   1.703  -0.961  0.00  0.00    +0.030 C 
ATOM     20  C   LIG    1        2.422   1.187  -0.015  0.00  0.00    +0.250 C 
BRANCH  18  25
ATOM     21  C   LIG    1        3.539   4.880   2.887  0.00  0.00    +0.140 A 
ATOM     22  C   LIG    1        3.068   5.877   2.045  0.00  0.00    -0.080 A 
ATOM     23  C   LIG    1        2.785   5.587   0.724  0.00  0.00    +0.060 A 
ATOM     24  C   LIG    1        2.977   4.306   0.240  0.00  0.00    -0.050 A 
ATOM     25  C   LIG    1        3.442   3.310   1.079  0.00  0.00    -0.010 A 
ATOM     26  C   LIG    1        3.726   3.595   2.400  0.00  0.00    -0.010 A 
BRANCH  21  27
ATOM     27  O   LIG    1        3.818   5.163   4.187  0.00  0.00    -0.310 OA
BRANCH  27  29
ATOM     28  C   LIG    1        3.967   6.633   6.099  0.00  0.00    +0.070 C 
ATOM     29  C   LIG    1        3.602   6.508   4.619  0.00  0.00    +0.170 C 
ENDBRANCH  27  29
ENDBRANCH  21  27
ENDBRANCH  18  25
ENDBRANCH   1  20
TORSDOF 6
