REMARK  Name = ZINCqH0000002a3Z.0
REMARK                            x       y       z     vdW  Elec       q    Type
REMARK                         _______ _______ _______ _____ _____    ______ ____
ROOT
ATOM      1  C   LIG    1       -3.879   0.759  -2.979  0.00  0.00    +0.560 C 
ATOM      2  N   LIG    1       -2.921   1.480  -2.362  0.00  0.00    -0.720 N 
ATOM      3  H   LIG    1       -2.775   2.406  -2.610  0.00  0.00    +0.400 HD
ATOM      4  O   LIG    1       -4.061  -0.402  -2.668  0.00  0.00    -0.530 OA
ENDROOT
BRANCH   1  11
ATOM      5  C   LIG    1       -7.185   4.173  -7.577  0.00  0.00    +0.520 C 
ATOM      6  N   LIG    1       -7.147   2.944  -7.026  0.00  0.00    -0.550 N 
ATOM      7  C   LIG    1       -8.023   1.830  -7.398  0.00  0.00    +0.280 C 
ATOM      8  C   LIG    1       -7.593   0.660  -6.498  0.00  0.00    +0.110 C 
ATOM      9  C   LIG    1       -6.469   1.222  -5.657  0.00  0.00    -0.140 A 
ATOM     10  C   LIG    1       -5.700   0.638  -4.675  0.00  0.00    +0.130 A 
ATOM     11  C   LIG    1       -4.705   1.380  -4.032  0.00  0.00    -0.160 A 
ATOM     12  C   LIG    1       -4.504   2.716  -4.389  0.00  0.00    +0.080 A 
ATOM     13  C   LIG    1       -5.272   3.289  -5.374  0.00  0.00    -0.020 A 
ATOM     14  C   LIG    1       -6.268   2.548  -6.019  0.00  0.00    +0.180 A 
ATOM     15  O   LIG    1       -7.989   4.421  -8.451  0.00  0.00    -0.510 OA
BRANCH   5  17
ATOM     16  C   LIG    1       -6.481   6.530  -7.889  0.00  0.00    +0.050 C 
ATOM     17  C   LIG    1       -6.229   5.239  -7.107  0.00  0.00    +0.050 C 
ENDBRANCH   5  17
ENDBRANCH   1  11
BRANCH   2  18
ATOM     18  C   LIG    1       -2.100   0.863  -1.317  0.00  0.00    +0.290 C 
ATOM     19  C   LIG    1       -0.765   1.599  -1.226  0.00  0.00    +0.020 C 
ATOM     20  C   LIG    1       -0.013   1.086   0.008  0.00  0.00    +0.030 C 
ATOM     21  C   LIG    1       -0.738   1.584   1.257  0.00  0.00    +0.080 C 
ATOM     22  C   LIG    1       -2.208   1.258   1.179  0.00  0.00    -0.070 A 
ATOM     23  C   LIG    1       -2.941   1.298   2.358  0.00  0.00    -0.010 A 
ATOM     24  C   LIG    1       -4.293   1.022   2.352  0.00  0.00    +0.010 A 
ATOM     25  C   LIG    1       -4.923   0.702   1.164  0.00  0.00    -0.010 A 
ATOM     26  C   LIG    1       -4.195   0.658  -0.007  0.00  0.00    +0.020 A 
ATOM     27  C   LIG    1       -2.834   0.934  -0.003  0.00  0.00    -0.100 A 
ENDBRANCH   2  18
TORSDOF 3
