REMARK  Name = ZINCpk000004ANOM.0
REMARK                            x       y       z     vdW  Elec       q    Type
REMARK                         _______ _______ _______ _____ _____    ______ ____
ROOT
ATOM      1  C   LIG    1       -2.964   1.635  -2.440  0.00  0.00    +0.520 C 
ATOM      2  N   LIG    1       -4.278   1.372  -2.589  0.00  0.00    -0.670 N 
ATOM      3  H   LIG    1       -4.771   0.944  -1.872  0.00  0.00    +0.420 HD
ATOM      4  O   LIG    1       -2.370   2.259  -3.294  0.00  0.00    -0.500 OA
ENDROOT
BRANCH   2   5
ATOM      5  C   LIG    1       -4.931   1.717  -3.780  0.00  0.00    +0.090 A 
ATOM      6  C   LIG    1       -4.207   1.834  -4.953  0.00  0.00    +0.170 A 
ATOM      7  C   LIG    1       -4.865   2.173  -6.133  0.00  0.00    -0.200 A 
ATOM      8  C   LIG    1       -6.254   2.403  -6.127  0.00  0.00    +0.180 A 
ATOM      9  N   LIG    1       -6.868   2.742  -7.317  0.00  0.00    -0.630 N 
ATOM     10  H   LIG    1       -7.824   2.905  -7.336  0.00  0.00    +0.430 HD
ATOM     11  C   LIG    1       -6.151   2.847  -8.449  0.00  0.00    +0.640 A 
ATOM     12  N   LIG    1       -4.864   2.644  -8.506  0.00  0.00    -0.600 NA
ATOM     13  C   LIG    1       -6.966   2.287  -4.941  0.00  0.00    -0.020 A 
ATOM     14  C   LIG    1       -4.151   2.308  -7.414  0.00  0.00    +0.530 A 
ATOM     15  O   LIG    1       -2.948   2.122  -7.484  0.00  0.00    -0.470 OA
ATOM     16  C   LIG    1       -6.308   1.946  -3.777  0.00  0.00    +0.130 A 
ATOM     17  F   LIG    1       -7.003   1.833  -2.623  0.00  0.00    -0.120 F 
ENDBRANCH   2   5
BRANCH   1  22
ATOM     18  C   LIG    1       -0.051   2.191   2.112  0.00  0.00    +0.550 C 
ATOM     19  N   LIG    1       -0.717   1.524   1.149  0.00  0.00    -0.610 N 
ATOM     20  C   LIG    1       -0.020   1.062  -0.059  0.00  0.00    +0.280 C 
ATOM     21  C   LIG    1       -0.767   1.582  -1.292  0.00  0.00    +0.050 C 
ATOM     22  C   LIG    1       -2.234   1.154  -1.213  0.00  0.00    +0.010 C 
ATOM     23  C   LIG    1       -2.879   1.762   0.035  0.00  0.00    +0.030 C 
ATOM     24  C   LIG    1       -2.156   1.244   1.282  0.00  0.00    +0.290 C 
ATOM     25  O   LIG    1        1.153   2.337   2.030  0.00  0.00    -0.540 OA
BRANCH  18  27
ATOM     26  C   LIG    1       -0.143   3.487   4.162  0.00  0.00    +0.150 C 
ATOM     27  C   LIG    1       -0.782   2.744   3.264  0.00  0.00    -0.090 C 
ENDBRANCH  18  27
ENDBRANCH   1  22
TORSDOF 3
