REMARK  Name = ZINCrD000006VtyM.0
REMARK                            x       y       z     vdW  Elec       q    Type
REMARK                         _______ _______ _______ _____ _____    ______ ____
ROOT
ATOM      1  O   LIG    1        1.914  -4.536  -0.734  0.00  0.00    -0.520 OA
ATOM      2  C   LIG    1        0.851  -4.160  -0.279  0.00  0.00    +0.570 C 
ATOM      3  N   LIG    1       -0.067  -5.062   0.122  0.00  0.00    -0.610 N 
ATOM      4  C   LIG    1       -1.404  -4.635   0.562  0.00  0.00    +0.290 C 
ATOM      5  C   LIG    1       -2.450  -5.454  -0.210  0.00  0.00    +0.200 C 
ATOM      6  N   LIG    1       -2.169  -6.885  -0.037  0.00  0.00    -0.490 N 
ATOM      7  C   LIG    1       -0.866  -7.245  -0.613  0.00  0.00    +0.190 C 
ATOM      8  C   LIG    1        0.243  -6.500   0.136  0.00  0.00    +0.310 C 
ENDROOT
BRANCH   2   9
ATOM      9  C   LIG    1        0.565  -2.716  -0.166  0.00  0.00    -0.130 A 
ATOM     10  C   LIG    1        0.956  -1.843  -1.183  0.00  0.00    +0.100 A 
ATOM     11  C   LIG    1        0.689  -0.496  -1.076  0.00  0.00    +0.040 A 
ATOM     12  C   LIG    1        0.031  -0.001   0.042  0.00  0.00    +0.060 A 
ATOM     13  O   LIG    1       -0.342   1.266   0.381  0.00  0.00    -0.300 OA
ATOM     14  C   LIG    1       -1.327   1.113   1.420  0.00  0.00    +0.440 C 
ATOM     15  O   LIG    1       -0.982  -0.141   2.038  0.00  0.00    -0.300 OA
ATOM     16  C   LIG    1       -0.362  -0.869   1.063  0.00  0.00    +0.030 A 
ATOM     17  C   LIG    1       -0.097  -2.220   0.960  0.00  0.00    +0.070 A 
ENDBRANCH   2   9
BRANCH   6  18
ATOM     18  C   LIG    1       -3.190  -7.666  -0.583  0.00  0.00    +0.110 A 
ATOM     19  C   LIG    1       -2.895  -8.628  -1.541  0.00  0.00    +0.000 A 
ATOM     20  C   LIG    1       -3.908  -9.399  -2.078  0.00  0.00    +0.050 A 
ATOM     21  C   LIG    1       -5.214  -9.213  -1.664  0.00  0.00    +0.040 A 
ATOM     22  C   LIG    1       -5.511  -8.256  -0.711  0.00  0.00    -0.160 A 
ATOM     23  C   LIG    1       -4.503  -7.486  -0.166  0.00  0.00    +0.050 A 
BRANCH  22  24
ATOM     24  C   LIG    1       -6.936  -8.058  -0.262  0.00  0.00    +0.510 C 
ATOM     25  F   LIG    1       -7.333  -6.745  -0.538  0.00  0.00    -0.180 F 
ATOM     26  F   LIG    1       -7.029  -8.294   1.113  0.00  0.00    -0.170 F 
ATOM     27  F   LIG    1       -7.769  -8.950  -0.946  0.00  0.00    -0.180 F 
ENDBRANCH  22  24
ENDBRANCH   6  18
TORSDOF 3
