REMARK  Name = ZINCpk000000ohWp.0
REMARK                            x       y       z     vdW  Elec       q    Type
REMARK                         _______ _______ _______ _____ _____    ______ ____
ROOT
ATOM      1  N   LIG    1       -0.020   1.094   2.454  0.00  0.00    -0.510 N 
ATOM      2  C   LIG    1       -0.359  -0.088   3.003  0.00  0.00    +0.710 A 
ATOM      3  N   LIG    1        0.271  -0.569   4.088  0.00  0.00    -0.650 N 
ATOM      4  H   LIG    1        0.004  -1.426   4.455  0.00  0.00    +0.440 HD
ATOM      5  C   LIG    1        1.267   0.126   4.678  0.00  0.00    +0.600 A 
ATOM      6  C   LIG    1        1.651   1.372   4.138  0.00  0.00    -0.150 A 
ATOM      7  N   LIG    1        2.596   2.322   4.470  0.00  0.00    -0.410 N 
ATOM      8  C   LIG    1        3.537   2.260   5.591  0.00  0.00    +0.340 C 
ATOM      9  C   LIG    1        2.488   3.317   3.568  0.00  0.00    +0.300 A 
ATOM     10  N   LIG    1        1.541   3.035   2.711  0.00  0.00    -0.470 NA
ATOM     11  O   LIG    1        1.828  -0.318   5.663  0.00  0.00    -0.510 OA
ATOM     12  O   LIG    1       -1.256  -0.739   2.501  0.00  0.00    -0.530 OA
ATOM     13  C   LIG    1        0.994   1.854   3.013  0.00  0.00    +0.320 A 
ENDROOT
BRANCH   1  14
ATOM     14  C   LIG    1       -0.729   1.579   1.267  0.00  0.00    +0.320 C 
BRANCH  14  15
ATOM     15  C   LIG    1       -0.013   1.086   0.008  0.00  0.00    +0.010 C 
BRANCH  15  17
ATOM     16  C   LIG    1       -0.037   1.099  -2.490  0.00  0.00    +0.010 C 
ATOM     17  C   LIG    1       -0.753   1.593  -1.232  0.00  0.00    +0.020 C 
ENDBRANCH  15  17
ENDBRANCH  14  15
ENDBRANCH   1  14
BRANCH   9  18
ATOM     18  C   LIG    1        3.331   4.566   3.550  0.00  0.00    +0.320 C 
BRANCH  18  19
ATOM     19  N   LIG    1        4.529   4.337   2.732  0.00  0.00    -0.530 NA
ATOM     20  C   LIG    1        5.405   3.334   3.352  0.00  0.00    +0.200 C 
BRANCH  19  21
ATOM     21  C   LIG    1        5.253   5.593   2.494  0.00  0.00    +0.310 C 
BRANCH  21  22
ATOM     22  C   LIG    1        6.326   5.366   1.461  0.00  0.00    -0.020 A 
ATOM     23  C   LIG    1        6.180   5.505   0.131  0.00  0.00    -0.030 A 
ATOM     24  C   LIG    1        7.429   5.196  -0.454  0.00  0.00    -0.070 A 
ATOM     25  C   LIG    1        8.265   4.886   0.554  0.00  0.00    +0.160 A 
ATOM     26  O   LIG    1        7.593   4.997   1.712  0.00  0.00    -0.180 OA
ENDBRANCH  21  22
ENDBRANCH  19  21
ENDBRANCH  18  19
ENDBRANCH   9  18
TORSDOF 7
