REMARK  Name = ZINCrD0000075RB7.0
REMARK                            x       y       z     vdW  Elec       q    Type
REMARK                         _______ _______ _______ _____ _____    ______ ____
ROOT
ATOM      1  O   LIG    1        4.278  -1.608   1.059  0.00  0.00    -0.330 OA
ENDROOT
BRANCH   1   2
ATOM      2  C   LIG    1        3.989  -0.619   0.036  0.00  0.00    +0.190 C 
ATOM      3  C   LIG    1        4.741   0.700   0.330  0.00  0.00    +0.100 C 
ATOM      4  C   LIG    1        3.713   1.757  -0.129  0.00  0.00    +0.280 C 
ATOM      5  N   LIG    1        2.403   1.106  -0.015  0.00  0.00    -0.550 N 
ATOM      6  C   LIG    1        2.528  -0.229   0.080  0.00  0.00    +0.510 C 
ATOM      7  O   LIG    1        1.604  -1.008   0.183  0.00  0.00    -0.480 OA
BRANCH   5   8
ATOM      8  C   LIG    1        1.180   1.787   0.000  0.00  0.00    +0.170 A 
ATOM      9  C   LIG    1        1.158   3.175   0.023  0.00  0.00    +0.000 A 
ATOM     10  C   LIG    1       -0.050   3.845   0.043  0.00  0.00    +0.060 A 
ATOM     11  C   LIG    1       -1.237   3.134   0.029  0.00  0.00    -0.060 A 
ATOM     12  C   LIG    1       -1.218   1.751   0.006  0.00  0.00    +0.060 A 
ATOM     13 CL   LIG    1       -2.753   3.979   0.045  0.00  0.00    -0.070 Cl
ATOM     14  C   LIG    1       -0.013   1.076  -0.008  0.00  0.00    +0.020 A 
ENDBRANCH   5   8
ENDBRANCH   1   2
BRANCH   1  16
ATOM     15  O   LIG    1        3.994  -3.196  -0.465  0.00  0.00    -0.480 OA
ATOM     16  C   LIG    1        4.252  -2.902   0.685  0.00  0.00    +0.510 C 
BRANCH  16  17
ATOM     17  C   LIG    1        4.536  -3.963   1.673  0.00  0.00    -0.120 A 
ATOM     18  C   LIG    1        4.833  -3.627   2.996  0.00  0.00    +0.110 A 
ATOM     19  C   LIG    1        5.099  -4.617   3.920  0.00  0.00    +0.020 A 
ATOM     20  C   LIG    1        5.073  -5.946   3.544  0.00  0.00    +0.090 A 
ATOM     21  C   LIG    1        4.778  -6.296   2.224  0.00  0.00    -0.040 A 
ATOM     22  C   LIG    1        4.503  -5.302   1.288  0.00  0.00    +0.160 A 
BRANCH  21  23
ATOM     23  C   LIG    1        4.752  -7.719   1.824  0.00  0.00    +0.210 A 
ATOM     24  N   LIG    1        4.485  -8.186   0.627  0.00  0.00    -0.270 NA
ATOM     25  N   LIG    1        4.556  -9.471   0.647  0.00  0.00    -0.290 NA
ATOM     26  C   LIG    1        4.860  -9.871   1.850  0.00  0.00    +0.420 A 
ATOM     27  O   LIG    1        4.991  -8.779   2.622  0.00  0.00    -0.220 OA
ENDBRANCH  21  23
ENDBRANCH  16  17
ENDBRANCH   1  16
TORSDOF 5
