REMARK  Name = ZINCrD00000rJRID.0
REMARK                            x       y       z     vdW  Elec       q    Type
REMARK                         _______ _______ _______ _____ _____    ______ ____
ROOT
ATOM      1  C   LIG    1       -2.691   8.221  -0.707  0.00  0.00    -0.010 C 
ATOM      2  C   LIG    1       -3.933   7.334  -0.815  0.00  0.00    +0.060 C 
ATOM      3  C   LIG    1       -3.878   6.252   0.268  0.00  0.00    +0.280 C 
ATOM      4  N   LIG    1       -2.607   5.526   0.146  0.00  0.00    -0.610 N 
ATOM      5  C   LIG    1       -1.353   6.292   0.152  0.00  0.00    +0.280 C 
ATOM      6  C   LIG    1       -2.590   4.183   0.037  0.00  0.00    +0.550 C 
ATOM      7  O   LIG    1       -3.636   3.567  -0.058  0.00  0.00    -0.540 OA
ATOM      8  C   LIG    1       -1.436   7.374  -0.934  0.00  0.00    +0.030 C 
ENDROOT
BRANCH   1  10
ATOM      9  O   LIG    1       -3.706   9.367  -2.503  0.00  0.00    -0.530 OA
ATOM     10  C   LIG    1       -2.758   9.308  -1.749  0.00  0.00    +0.520 C 
ATOM     11  N   LIG    1       -1.764  10.214  -1.843  0.00  0.00    -0.730 N 
ATOM     12  H   LIG    1       -1.006  10.166  -1.240  0.00  0.00    +0.400 HD
BRANCH  11  13
ATOM     13  C   LIG    1       -1.829  11.270  -2.856  0.00  0.00    +0.320 C 
BRANCH  13  14
ATOM     14  C   LIG    1       -0.606  12.144  -2.750  0.00  0.00    -0.110 A 
ATOM     15  C   LIG    1       -0.620  13.256  -1.930  0.00  0.00    +0.020 A 
ATOM     16  C   LIG    1        0.504  14.055  -1.829  0.00  0.00    +0.010 A 
ATOM     17  C   LIG    1        1.639  13.746  -2.557  0.00  0.00    +0.010 A 
ATOM     18  C   LIG    1        1.650  12.637  -3.381  0.00  0.00    +0.010 A 
ATOM     19  C   LIG    1        0.528  11.836  -3.478  0.00  0.00    +0.020 A 
ENDBRANCH  13  14
ENDBRANCH  11  13
ENDBRANCH   1  10
BRANCH   6  20
ATOM     20  C   LIG    1       -1.314   3.464   0.032  0.00  0.00    -0.080 C 
ATOM     21  C   LIG    1       -1.300   2.116   0.025  0.00  0.00    +0.120 C 
BRANCH  21  22
ATOM     22  C   LIG    1       -0.018   1.393   0.020  0.00  0.00    -0.050 A 
ATOM     23  C   LIG    1        0.001  -0.005   0.012  0.00  0.00    +0.040 A 
ATOM     24  C   LIG    1        1.206  -0.676   0.001  0.00  0.00    +0.050 A 
ATOM     25  C   LIG    1        2.395   0.030  -0.001  0.00  0.00    +0.000 A 
ATOM     26  C   LIG    1        2.387   1.416   0.007  0.00  0.00    +0.100 A 
ATOM     27  F   LIG    1        3.553   2.098   0.004  0.00  0.00    -0.140 F 
ATOM     28  C   LIG    1        1.188   2.102   0.017  0.00  0.00    +0.000 A 
ENDBRANCH  21  22
ENDBRANCH   6  20
TORSDOF 5
