REMARK  Name = ZINCpk00000y6vD2.0
REMARK                            x       y       z     vdW  Elec       q    Type
REMARK                         _______ _______ _______ _____ _____    ______ ____
ROOT
ATOM      1  C   LIG    1       -4.105   2.145   3.303  0.00  0.00    +0.570 C 
ATOM      2  N   LIG    1       -3.955   2.027   1.969  0.00  0.00    -0.710 N 
ATOM      3  H   LIG    1       -4.461   2.599   1.372  0.00  0.00    +0.400 HD
ATOM      4  O   LIG    1       -3.471   1.427   4.052  0.00  0.00    -0.530 OA
ENDROOT
BRANCH   1   8
ATOM      5  C   LIG    1       -6.793   5.025   4.892  0.00  0.00    +0.190 A 
ATOM      6  C   LIG    1       -6.069   4.204   5.750  0.00  0.00    +0.020 A 
ATOM      7  C   LIG    1       -5.197   3.269   5.238  0.00  0.00    +0.120 A 
ATOM      8  C   LIG    1       -5.040   3.146   3.856  0.00  0.00    -0.140 A 
ATOM      9  C   LIG    1       -5.765   3.975   2.997  0.00  0.00    +0.080 A 
ATOM     10  C   LIG    1       -6.639   4.905   3.515  0.00  0.00    +0.000 A 
BRANCH   5  16
ATOM     11  C   LIG    1       -7.304   7.794   3.660  0.00  0.00    +0.160 C 
ATOM     12  C   LIG    1       -7.928   7.204   4.898  0.00  0.00    +0.090 A 
ATOM     13  C   LIG    1       -8.843   7.804   5.695  0.00  0.00    -0.100 A 
ATOM     14  C   LIG    1       -9.155   6.920   6.735  0.00  0.00    +0.250 A 
ATOM     15  N   LIG    1       -8.459   5.825   6.568  0.00  0.00    -0.290 NA
ATOM     16  N   LIG    1       -7.678   5.973   5.415  0.00  0.00    -0.330 N 
ENDBRANCH   5  16
ENDBRANCH   1   8
BRANCH   2  17
ATOM     17  C   LIG    1       -3.028   1.034   1.421  0.00  0.00    +0.250 C 
ATOM     18  C   LIG    1       -3.729  -0.170   0.765  0.00  0.00    +0.010 C 
ATOM     19  C   LIG    1       -2.651  -0.101  -0.330  0.00  0.00    +0.180 C 
ATOM     20  C   LIG    1       -2.502   1.389   0.021  0.00  0.00    +0.270 C 
BRANCH  20  21
ATOM     21  N   LIG    1       -1.113   1.857   0.017  0.00  0.00    -0.370 N 
ATOM     22  C   LIG    1       -0.013   1.076   0.008  0.00  0.00    +0.220 A 
ATOM     23  C   LIG    1        1.069   1.888   0.002  0.00  0.00    -0.120 A 
ATOM     24  C   LIG    1        0.614   3.211   0.013  0.00  0.00    +0.230 A 
ATOM     25  N   LIG    1       -0.694   3.193   0.025  0.00  0.00    -0.290 NA
ENDBRANCH  20  21
BRANCH  19  26
ATOM     26  O   LIG    1       -3.155  -0.331  -1.647  0.00  0.00    -0.550 OA
ATOM     27  H   LIG    1       -3.251  -1.266  -1.874  0.00  0.00    +0.390 HD
ENDBRANCH  19  26
ENDBRANCH   2  17
TORSDOF 5
