REMARK  Name = ZINCpk000000nsKC.0
REMARK                            x       y       z     vdW  Elec       q    Type
REMARK                         _______ _______ _______ _____ _____    ______ ____
ROOT
ATOM      1  N   LIG    1       -2.835   1.737   0.033  0.00  0.00    -0.590 N 
ATOM      2  C   LIG    1       -3.373   2.971   0.097  0.00  0.00    +0.540 C 
ATOM      3  O   LIG    1       -3.937   3.437  -0.871  0.00  0.00    -0.510 OA
ENDROOT
BRANCH   1   4
ATOM      4  C   LIG    1       -2.931   0.958  -1.204  0.00  0.00    +0.280 C 
ATOM      5  C   LIG    1       -2.368   1.771  -2.383  0.00  0.00    +0.080 C 
ATOM      6  C   LIG    1       -2.786   1.087  -3.700  0.00  0.00    -0.310 C 
ATOM      7  S   LIG    1       -4.352   0.224  -3.312  0.00  0.00    +2.390 S 
ATOM      8  O   LIG    1       -5.424   0.858  -3.996  0.00  0.00    -0.930 OA
ATOM      9  O   LIG    1       -4.161  -1.178  -3.440  0.00  0.00    -0.930 OA
ATOM     10  C   LIG    1       -4.418   0.669  -1.535  0.00  0.00    -0.320 C 
ENDBRANCH   1   4
BRANCH   1  11
ATOM     11  C   LIG    1       -2.154   1.174   1.202  0.00  0.00    +0.280 C 
BRANCH  11  13
ATOM     12  C   LIG    1        0.063   1.100   0.051  0.00  0.00    +0.020 C 
ATOM     13  C   LIG    1       -0.709   1.676   1.241  0.00  0.00    -0.050 C 
ATOM     14  C   LIG    1       -0.047   1.224   2.544  0.00  0.00    +0.030 C 
ENDBRANCH  11  13
ENDBRANCH   1  11
BRANCH   2  15
ATOM     15  C   LIG    1       -3.274   3.772   1.369  0.00  0.00    +0.110 C 
BRANCH  15  16
ATOM     16  S   LIG    1       -4.087   5.377   1.139  0.00  0.00    +0.080 S 
BRANCH  16  17
ATOM     17  C   LIG    1       -3.873   6.158   2.704  0.00  0.00    +0.100 A 
ATOM     18  N   LIG    1       -3.261   5.651   3.750  0.00  0.00    -0.250 NA
ATOM     19  N   LIG    1       -3.285   6.485   4.729  0.00  0.00    -0.280 NA
ATOM     20  C   LIG    1       -3.919   7.584   4.362  0.00  0.00    +0.200 A 
ATOM     21  C   LIG    1       -4.228   8.791   5.019  0.00  0.00    +0.080 A 
ATOM     22  C   LIG    1       -4.911   9.756   4.349  0.00  0.00    +0.070 A 
ATOM     23  C   LIG    1       -5.299   9.541   3.013  0.00  0.00    +0.030 A 
ATOM     24  C   LIG    1       -4.998   8.382   2.393  0.00  0.00    +0.240 A 
ATOM     25  N   LIG    1       -4.307   7.403   3.051  0.00  0.00    -0.380 N 
ENDBRANCH  16  17
ENDBRANCH  15  16
ENDBRANCH   2  15
TORSDOF 6
