REMARK  Name = ZINCrD00000F5LGj.0
REMARK                            x       y       z     vdW  Elec       q    Type
REMARK                         _______ _______ _______ _____ _____    ______ ____
ROOT
ATOM      1  C   LIG    1        8.468  -0.704  -0.084  0.00  0.00    +0.250 C 
ENDROOT
BRANCH   1   2
ATOM      2  C   LIG    1        9.643   0.239  -0.090  0.00  0.00    +0.520 C 
ATOM      3  N   LIG    1       10.899  -0.249  -0.105  0.00  0.00    -0.720 N 
ATOM      4  H   LIG    1       11.046  -1.208  -0.112  0.00  0.00    +0.400 HD
ATOM      5  O   LIG    1        9.459   1.438  -0.082  0.00  0.00    -0.510 OA
BRANCH   3   6
ATOM      6  C   LIG    1       12.042   0.667  -0.112  0.00  0.00    +0.190 C 
ATOM      7  C   LIG    1       11.976   1.556  -1.355  0.00  0.00    +0.030 C 
ATOM      8  C   LIG    1       13.170   2.513  -1.361  0.00  0.00    -0.010 C 
ATOM      9  C   LIG    1       13.129   3.388  -0.107  0.00  0.00    +0.020 C 
ATOM     10  C   LIG    1       13.194   2.499   1.137  0.00  0.00    -0.010 C 
ATOM     11  C   LIG    1       14.494   1.693   1.120  0.00  0.00    +0.020 C 
ATOM     12  C   LIG    1       14.536   0.819  -0.135  0.00  0.00    +0.000 C 
ATOM     13  C   LIG    1       14.470   1.707  -1.379  0.00  0.00    +0.020 C 
ATOM     14  C   LIG    1       12.001   1.542   1.143  0.00  0.00    +0.030 C 
ATOM     15  C   LIG    1       13.342  -0.139  -0.129  0.00  0.00    +0.020 C 
ENDBRANCH   3   6
ENDBRANCH   1   2
BRANCH   1  16
ATOM     16  O   LIG    1        7.253   0.049  -0.068  0.00  0.00    -0.330 OA
BRANCH  16  17
ATOM     17  C   LIG    1        6.099  -0.650  -0.061  0.00  0.00    +0.510 C 
ATOM     18  O   LIG    1        6.125  -1.866  -0.068  0.00  0.00    -0.520 OA
BRANCH  17  20
ATOM     19  C   LIG    1        3.701  -0.667  -0.037  0.00  0.00    +0.170 C 
ATOM     20  C   LIG    1        4.857   0.033  -0.045  0.00  0.00    -0.080 C 
BRANCH  19  26
ATOM     21  C   LIG    1        1.210  -0.683  -0.013  0.00  0.00    +0.160 A 
ATOM     22  C   LIG    1        0.002  -0.004   0.002  0.00  0.00    -0.090 A 
ATOM     23  C   LIG    1       -0.017   1.377   0.010  0.00  0.00    +0.070 A 
ATOM     24  C   LIG    1        1.168   2.095   0.002  0.00  0.00    -0.030 A 
ATOM     25  C   LIG    1        2.379   1.439  -0.013  0.00  0.00    +0.090 A 
ATOM     26  C   LIG    1        2.414   0.040  -0.021  0.00  0.00    -0.120 A 
BRANCH  21  28
ATOM     27  C   LIG    1       -0.034  -2.707  -0.011  0.00  0.00    +0.250 C 
ATOM     28  O   LIG    1        1.230  -2.039  -0.020  0.00  0.00    -0.310 OA
ENDBRANCH  21  28
ENDBRANCH  19  26
ENDBRANCH  17  20
ENDBRANCH  16  17
ENDBRANCH   1  16
TORSDOF 7
