REMARK  Name = ZINCkj000005gm5m.0
REMARK                            x       y       z     vdW  Elec       q    Type
REMARK                         _______ _______ _______ _____ _____    ______ ____
ROOT
ATOM      1  C   LIG    1        0.601   1.919   4.332  0.00  0.00    +0.180 C 
ATOM      2  C   LIG    1        1.116   2.050   2.889  0.00  0.00    +0.060 C 
ATOM      3  C   LIG    1       -0.058   1.149   2.472  0.00  0.00    +0.040 C 
ATOM      4  C   LIG    1       -0.788   1.651   3.729  0.00  0.00    -0.070 C 
ATOM      5  C   LIG    1       -1.572   0.559   4.459  0.00  0.00    +0.070 C 
ATOM      6  C   LIG    1       -1.610   2.919   3.494  0.00  0.00    +0.080 C 
ENDROOT
BRANCH   3   7
ATOM      7  N   LIG    1       -0.698   1.560   1.216  0.00  0.00    -0.490 N 
ATOM      8  H   LIG    1       -0.979   2.527   1.282  0.00  0.00    +0.420 HD
ATOM      9  H   LIG    1       -0.046   1.450   0.454  0.00  0.00    +0.430 HD
BRANCH   7  10
ATOM     10  C   LIG    1       -1.881   0.723   0.972  0.00  0.00    +0.380 C 
BRANCH  10  11
ATOM     11  C   LIG    1       -2.609   1.225  -0.248  0.00  0.00    -0.000 A 
ATOM     12  N   LIG    1       -3.564   2.119  -0.258  0.00  0.00    -0.260 NA
ATOM     13  N   LIG    1       -3.971   2.310  -1.585  0.00  0.00    -0.350 N 
ATOM     14  C   LIG    1       -3.234   1.494  -2.367  0.00  0.00    +0.260 A 
ATOM     15  C   LIG    1       -5.017   3.229  -2.042  0.00  0.00    +0.380 C 
ATOM     16  C   LIG    1       -2.384   0.811  -1.565  0.00  0.00    -0.220 A 
ATOM     17  C   LIG    1       -1.373  -0.213  -2.013  0.00  0.00    +0.110 C 
ENDBRANCH  10  11
ENDBRANCH   7  10
ENDBRANCH   3   7
BRANCH   1  18
ATOM     18  O   LIG    1        1.146   0.801   5.035  0.00  0.00    -0.360 OA
BRANCH  18  20
ATOM     19  C   LIG    1        2.583  -0.113   6.750  0.00  0.00    +0.050 C 
ATOM     20  C   LIG    1        2.066   1.156   6.069  0.00  0.00    +0.180 C 
ENDBRANCH  18  20
ENDBRANCH   1  18
BRANCH   3  21
ATOM     21  C   LIG    1        0.273  -0.345   2.509  0.00  0.00    +0.260 C 
BRANCH  21  22
ATOM     22  O   LIG    1        1.078  -0.682   1.377  0.00  0.00    -0.580 OA
ATOM     23  H   LIG    1        1.326  -1.616   1.335  0.00  0.00    +0.410 HD
ENDBRANCH  21  22
ENDBRANCH   3  21
TORSDOF 7
