REMARK  Name = ZINCqH0000006ZY8.0
REMARK                            x       y       z     vdW  Elec       q    Type
REMARK                         _______ _______ _______ _____ _____    ______ ____
ROOT
ATOM      1  C   LIG    1       -1.188  -0.928   0.007  0.00  0.00    +0.230 C 
ENDROOT
BRANCH   1   5
ATOM      2  C   LIG    1        1.313   1.654  -0.004  0.00  0.00    +0.220 A 
ATOM      3  N   LIG    1        2.026   0.558  -0.014  0.00  0.00    -0.380 NA
ATOM      4  O   LIG    1        1.299  -0.413  -0.012  0.00  0.00    +0.080 OA
ATOM      5  C   LIG    1        0.019  -0.026   0.001  0.00  0.00    +0.180 A 
ATOM      6  N   LIG    1        0.012   1.283   0.006  0.00  0.00    -0.470 NA
BRANCH   2  10
ATOM      7  C   LIG    1        2.803   5.638  -0.004  0.00  0.00    +0.150 A 
ATOM      8  C   LIG    1        3.687   4.567  -0.015  0.00  0.00    -0.010 A 
ATOM      9  C   LIG    1        3.207   3.275  -0.015  0.00  0.00    +0.100 A 
ATOM     10  C   LIG    1        1.832   3.043  -0.004  0.00  0.00    -0.070 A 
ATOM     11  C   LIG    1        0.947   4.120   0.002  0.00  0.00    +0.110 A 
ATOM     12  C   LIG    1        1.433   5.410   0.007  0.00  0.00    -0.070 A 
BRANCH   7  14
ATOM     13  C   LIG    1        2.314   7.964   0.007  0.00  0.00    +0.240 C 
ATOM     14  O   LIG    1        3.279   6.910  -0.004  0.00  0.00    -0.310 OA
ENDBRANCH   7  14
ENDBRANCH   2  10
ENDBRANCH   1   5
BRANCH   1  15
ATOM     15  C   LIG    1       -1.608  -1.228  -1.433  0.00  0.00    +0.080 C 
BRANCH  15  16
ATOM     16  C   LIG    1       -2.816  -2.130  -1.426  0.00  0.00    +0.520 C 
ATOM     17  N   LIG    1       -3.365  -2.529  -2.591  0.00  0.00    -0.670 N 
ATOM     18  H   LIG    1       -3.034  -2.173  -3.430  0.00  0.00    +0.420 HD
ATOM     19  O   LIG    1       -3.293  -2.497  -0.373  0.00  0.00    -0.510 OA
BRANCH  17  20
ATOM     20  C   LIG    1       -4.412  -3.457  -2.588  0.00  0.00    +0.180 A 
ATOM     21  C   LIG    1       -4.556  -4.340  -1.527  0.00  0.00    -0.010 A 
ATOM     22  C   LIG    1       -5.593  -5.256  -1.528  0.00  0.00    +0.120 A 
ATOM     23  C   LIG    1       -6.486  -5.291  -2.586  0.00  0.00    -0.030 A 
ATOM     24  C   LIG    1       -6.344  -4.411  -3.643  0.00  0.00    +0.070 A 
ATOM     25  F   LIG    1       -5.736  -6.116  -0.495  0.00  0.00    -0.140 F 
ATOM     26  C   LIG    1       -5.313  -3.492  -3.645  0.00  0.00    -0.130 A 
ATOM     27  C   LIG    1       -5.163  -2.531  -4.796  0.00  0.00    +0.090 C 
ENDBRANCH  17  20
ENDBRANCH  15  16
ENDBRANCH   1  15
TORSDOF 6
