REMARK  Name = ZINCpe000000UnZe.0
REMARK                            x       y       z     vdW  Elec       q    Type
REMARK                         _______ _______ _______ _____ _____    ______ ____
ROOT
ATOM      1  C   LIG    1       -1.527   4.793   0.041  0.00  0.00    +0.350 C 
ENDROOT
BRANCH   1   5
ATOM      2  N   LIG    1       -1.943   7.035  -3.515  0.00  0.00    -0.520 NA
ATOM      3  C   LIG    1       -3.167   6.605  -2.825  0.00  0.00    +0.200 C 
ATOM      4  C   LIG    1       -2.836   6.262  -1.371  0.00  0.00    +0.200 C 
ATOM      5  N   LIG    1       -1.817   5.204  -1.339  0.00  0.00    -0.540 NA
ATOM      6  C   LIG    1       -0.593   5.635  -2.029  0.00  0.00    +0.200 C 
ATOM      7  C   LIG    1       -0.924   5.977  -3.483  0.00  0.00    +0.200 C 
BRANCH   2   8
ATOM      8  C   LIG    1       -2.234   7.446  -4.895  0.00  0.00    +0.220 C 
BRANCH   8  11
ATOM      9  C   LIG    1        0.133   9.210  -7.333  0.00  0.00    +0.280 C 
ATOM     10  N   LIG    1       -1.050   8.568  -6.755  0.00  0.00    -0.630 N 
ATOM     11  C   LIG    1       -1.017   8.107  -5.489  0.00  0.00    +0.510 C 
ATOM     12  O   LIG    1       -0.007   8.225  -4.828  0.00  0.00    -0.520 OA
ATOM     13  C   LIG    1       -2.270   8.425  -7.554  0.00  0.00    +0.280 C 
ENDBRANCH   8  11
ENDBRANCH   2   8
ENDBRANCH   1   5
BRANCH   1  14
ATOM     14  C   LIG    1       -0.672   3.552   0.027  0.00  0.00    +0.170 A 
ATOM     15  N   LIG    1        0.630   3.514   0.014  0.00  0.00    -0.280 NA
ATOM     16  N   LIG    1        1.021   2.288   0.005  0.00  0.00    -0.280 NA
ATOM     17  C   LIG    1       -0.018   1.503   0.010  0.00  0.00    +0.170 A 
ATOM     18  O   LIG    1       -1.112   2.283   0.019  0.00  0.00    -0.220 OA
BRANCH  17  19
ATOM     19  C   LIG    1        0.002  -0.004   0.002  0.00  0.00    +0.250 C 
BRANCH  19  20
ATOM     20  C   LIG    1        0.022  -0.514   1.420  0.00  0.00    -0.100 A 
ATOM     21  C   LIG    1        1.228  -0.737   2.058  0.00  0.00    +0.030 A 
ATOM     22  C   LIG    1        1.246  -1.200   3.360  0.00  0.00    +0.010 A 
ATOM     23  C   LIG    1        0.058  -1.450   4.021  0.00  0.00    +0.010 A 
ATOM     24  C   LIG    1       -1.148  -1.232   3.382  0.00  0.00    +0.010 A 
ATOM     25  C   LIG    1       -1.166  -0.764   2.081  0.00  0.00    +0.010 A 
ENDBRANCH  19  20
ENDBRANCH  17  19
ENDBRANCH   1  14
TORSDOF 6
