REMARK  Name = ZINCc70000003XgQ.0
REMARK                            x       y       z     vdW  Elec       q    Type
REMARK                         _______ _______ _______ _____ _____    ______ ____
ROOT
ATOM      1  C   LIG    1        0.002  -0.004   0.002  0.00  0.00    -0.130 A 
ATOM      2  C   LIG    1       -0.017   1.374   0.010  0.00  0.00    +0.330 A 
ATOM      3  N   LIG    1        1.245   1.799  -0.000  0.00  0.00    -0.540 NA
ATOM      4  C   LIG    1        2.065   0.768  -0.013  0.00  0.00    +0.520 A 
ATOM      5  N   LIG    1        1.342  -0.374  -0.013  0.00  0.00    -0.470 N 
ATOM      6  C   LIG    1        1.871  -1.740  -0.026  0.00  0.00    +0.330 C 
ENDROOT
BRANCH   4   7
ATOM      7  N   LIG    1        3.439   0.842  -0.026  0.00  0.00    -0.830 N 
ATOM      8  H   LIG    1        3.878   1.707  -0.025  0.00  0.00    +0.430 HD
ATOM      9  H   LIG    1        3.969   0.029  -0.035  0.00  0.00    +0.410 HD
ENDBRANCH   4   7
BRANCH   1  10
ATOM     10  C   LIG    1       -1.120  -0.871   0.009  0.00  0.00    +0.550 C 
ATOM     11  O   LIG    1       -2.246  -0.409   0.022  0.00  0.00    -0.510 OA
BRANCH  10  12
ATOM     12  O   LIG    1       -0.940  -2.208   0.000  0.00  0.00    -0.360 OA
BRANCH  12  14
ATOM     13  C   LIG    1       -1.713  -4.498  -0.004  0.00  0.00    +0.070 C 
ATOM     14  C   LIG    1       -2.115  -3.021   0.007  0.00  0.00    +0.200 C 
ENDBRANCH  12  14
ENDBRANCH  10  12
ENDBRANCH   1  10
TORSDOF 4
