REMARK  Name = ZINCqH0000007l4o.0
REMARK                            x       y       z     vdW  Elec       q    Type
REMARK                         _______ _______ _______ _____ _____    ______ ____
ROOT
ATOM      1  N   LIG    1        0.921   4.077   1.375  0.00  0.00    -0.720 N 
ATOM      2  H   LIG    1        0.809   3.441   2.099  0.00  0.00    +0.400 HD
ATOM      3  C   LIG    1        0.863   5.400   1.626  0.00  0.00    +0.520 C 
ATOM      4  O   LIG    1        1.004   6.195   0.721  0.00  0.00    -0.520 OA
ENDROOT
BRANCH   1   5
ATOM      5  C   LIG    1        1.155   3.599   0.010  0.00  0.00    +0.340 C 
BRANCH   5  10
ATOM      6  C   LIG    1        2.399   0.031  -0.021  0.00  0.00    +0.090 A 
ATOM      7  C   LIG    1        1.208  -0.678  -0.013  0.00  0.00    -0.030 A 
ATOM      8  C   LIG    1        0.002  -0.004   0.002  0.00  0.00    -0.040 A 
ATOM      9  C   LIG    1       -0.017   1.383   0.010  0.00  0.00    +0.110 A 
ATOM     10  C   LIG    1        1.175   2.092   0.002  0.00  0.00    -0.100 A 
ATOM     11  C   LIG    1        2.380   1.418  -0.013  0.00  0.00    +0.050 A 
BRANCH   6  13
ATOM     12  C   LIG    1        3.530  -2.061  -0.042  0.00  0.00    +0.250 C 
ATOM     13  O   LIG    1        3.586  -0.633  -0.035  0.00  0.00    -0.320 OA
ENDBRANCH   6  13
BRANCH   9  14
ATOM     14  O   LIG    1       -1.204   2.046   0.019  0.00  0.00    -0.310 OA
ATOM     15  C   LIG    1       -2.391   1.252   0.020  0.00  0.00    +0.250 C 
ENDBRANCH   9  14
ENDBRANCH   5  10
ENDBRANCH   1   5
BRANCH   3  16
ATOM     16  C   LIG    1        0.623   5.891   3.030  0.00  0.00    +0.200 C 
BRANCH  16  17
ATOM     17  O   LIG    1        0.603   7.320   3.038  0.00  0.00    -0.340 OA
BRANCH  17  18
ATOM     18  C   LIG    1        0.381   7.891   4.329  0.00  0.00    +0.150 C 
ATOM     19  C   LIG    1       -1.121   8.077   4.553  0.00  0.00    -0.010 C 
ATOM     20  C   LIG    1       -1.685   9.009   3.478  0.00  0.00    -0.010 C 
ATOM     21  C   LIG    1       -0.985  10.367   3.563  0.00  0.00    +0.010 C 
ATOM     22  C   LIG    1        0.517  10.181   3.339  0.00  0.00    +0.020 C 
ATOM     23  C   LIG    1       -3.187   9.195   3.702  0.00  0.00    +0.000 C 
ATOM     24  C   LIG    1        1.081   9.249   4.413  0.00  0.00    +0.010 C 
BRANCH  24  25
ATOM     25  C   LIG    1        2.583   9.063   4.189  0.00  0.00    -0.010 C 
ATOM     26  C   LIG    1        3.147   8.131   5.264  0.00  0.00    +0.000 C 
ATOM     27  C   LIG    1        3.283  10.421   4.274  0.00  0.00    +0.010 C 
ENDBRANCH  24  25
ENDBRANCH  17  18
ENDBRANCH  16  17
ENDBRANCH   3  16
TORSDOF 8
