REMARK  Name = ZINCrg000000sNMN.0
REMARK                            x       y       z     vdW  Elec       q    Type
REMARK                         _______ _______ _______ _____ _____    ______ ____
ROOT
ATOM      1  C   LIG    1       -2.546   1.376   0.021  0.00  0.00    +0.420 C 
ATOM      2  C   LIG    1       -3.291   1.969  -1.151  0.00  0.00    -0.010 A 
ATOM      3  C   LIG    1       -3.671   1.259  -2.235  0.00  0.00    -0.010 A 
ATOM      4  N   LIG    1       -4.307   2.124  -3.074  0.00  0.00    -0.560 N 
ATOM      5  H   LIG    1       -4.693   1.910  -3.938  0.00  0.00    +0.420 HD
ATOM      6  C   LIG    1       -4.299   3.336  -2.474  0.00  0.00    +0.400 A 
ATOM      7  C   LIG    1       -3.419  -0.213  -2.431  0.00  0.00    +0.120 C 
ATOM      8  C   LIG    1       -2.315  -0.659  -1.464  0.00  0.00    +0.290 C 
ATOM      9  N   LIG    1       -3.688   3.232  -1.322  0.00  0.00    -0.480 NA
ATOM     10  N   LIG    1       -2.582  -0.090  -0.132  0.00  0.00    -0.600 N 
ATOM     11  C   LIG    1       -2.852  -0.887   0.920  0.00  0.00    +0.510 C 
ATOM     12  O   LIG    1       -3.070  -0.400   2.010  0.00  0.00    -0.500 OA
ENDROOT
BRANCH   1  18
ATOM     13  C   LIG    1       -1.581   4.322   0.039  0.00  0.00    +0.360 C 
ATOM     14  N   LIG    1       -0.711   3.144   0.025  0.00  0.00    -0.350 N 
ATOM     15  N   LIG    1        0.690   3.154   0.012  0.00  0.00    -0.290 NA
ATOM     16  C   LIG    1        1.107   1.914   0.002  0.00  0.00    +0.220 A 
ATOM     17  C   LIG    1       -0.013   1.076   0.008  0.00  0.00    -0.120 A 
ATOM     18  C   LIG    1       -1.117   1.857   0.017  0.00  0.00    +0.080 A 
ENDBRANCH   1  18
BRANCH  11  19
ATOM     19  C   LIG    1       -2.885  -2.383   0.744  0.00  0.00    +0.390 C 
BRANCH  19  20
ATOM     20  N   LIG    1       -3.198  -3.019   2.026  0.00  0.00    -0.390 N 
ATOM     21  N   LIG    1       -2.281  -3.442   3.000  0.00  0.00    +0.010 NA
ATOM     22  N   LIG    1       -2.918  -3.952   3.994  0.00  0.00    -0.210 NA
ATOM     23  C   LIG    1       -4.246  -3.920   3.766  0.00  0.00    -0.020 A 
ATOM     24  C   LIG    1       -5.355  -4.344   4.509  0.00  0.00    +0.110 A 
ATOM     25  C   LIG    1       -6.614  -4.177   4.010  0.00  0.00    +0.000 A 
ATOM     26  C   LIG    1       -6.813  -3.590   2.767  0.00  0.00    +0.080 A 
ATOM     27  C   LIG    1       -5.739  -3.165   2.017  0.00  0.00    +0.000 A 
ATOM     28  C   LIG    1       -4.448  -3.325   2.508  0.00  0.00    +0.100 A 
ENDBRANCH  19  20
ENDBRANCH  11  19
TORSDOF 3
