REMARK  Name = ZINCrg00000fSnmN.0
REMARK                            x       y       z     vdW  Elec       q    Type
REMARK                         _______ _______ _______ _____ _____    ______ ____
ROOT
ATOM      1  C   LIG    1       -2.397   2.893  -2.954  0.00  0.00    -0.180 A 
ATOM      2  C   LIG    1       -1.726   3.760  -2.088  0.00  0.00    +0.360 A 
ATOM      3  N   LIG    1       -0.961   3.253  -1.137  0.00  0.00    -0.520 NA
ATOM      4  C   LIG    1       -0.828   1.942  -0.999  0.00  0.00    +0.490 A 
ATOM      5  N   LIG    1       -1.444   1.087  -1.803  0.00  0.00    -0.540 NA
ATOM      6  C   LIG    1       -2.230   1.517  -2.775  0.00  0.00    +0.350 A 
ENDROOT
BRANCH   1  13
ATOM      7  C   LIG    1       -7.173   4.708  -8.927  0.00  0.00    +0.180 C 
ATOM      8  C   LIG    1       -6.307   4.106  -7.850  0.00  0.00    +0.400 A 
ATOM      9  N   LIG    1       -5.681   4.908  -7.044  0.00  0.00    -0.520 NA
ATOM     10  C   LIG    1       -4.885   4.440  -6.050  0.00  0.00    +0.160 A 
ATOM     11  C   LIG    1       -4.213   5.305  -5.184  0.00  0.00    +0.050 A 
ATOM     12  C   LIG    1       -3.423   4.800  -4.193  0.00  0.00    +0.080 A 
ATOM     13  C   LIG    1       -3.265   3.418  -4.035  0.00  0.00    -0.050 A 
ATOM     14  C   LIG    1       -3.924   2.537  -4.885  0.00  0.00    +0.110 A 
ATOM     15  C   LIG    1       -4.735   3.042  -5.895  0.00  0.00    -0.200 A 
ATOM     16  C   LIG    1       -5.458   2.162  -6.825  0.00  0.00    +0.550 A 
ATOM     17  O   LIG    1       -5.372   0.951  -6.746  0.00  0.00    -0.510 OA
ATOM     18  N   LIG    1       -6.222   2.752  -7.774  0.00  0.00    -0.550 N 
ATOM     19  C   LIG    1       -6.964   1.923  -8.728  0.00  0.00    +0.310 C 
ENDBRANCH   1  13
BRANCH   4  20
ATOM     20  N   LIG    1       -0.018   1.452   0.010  0.00  0.00    -0.470 N 
ATOM     21  C   LIG    1        1.282   2.108   0.001  0.00  0.00    +0.260 C 
ATOM     22  C   LIG    1        1.992   1.892  -1.337  0.00  0.00    +0.250 C 
ATOM     23  N   LIG    1        2.717   0.611  -1.282  0.00  0.00    -0.730 N 
ATOM     24  H   LIG    1        3.686   0.605  -1.244  0.00  0.00    +0.400 HD
ATOM     25  C   LIG    1        2.042  -0.542  -1.283  0.00  0.00    +0.510 C 
ATOM     26  C   LIG    1        0.528  -0.531  -1.336  0.00  0.00    +0.050 C 
ATOM     27  O   LIG    1        2.640  -1.596  -1.242  0.00  0.00    -0.540 OA
ATOM     28  C   LIG    1        0.002  -0.004   0.002  0.00  0.00    +0.280 C 
ENDBRANCH   4  20
TORSDOF 2
