REMARK  Name = ZINCrg000000sNMN.1
REMARK                            x       y       z     vdW  Elec       q    Type
REMARK                         _______ _______ _______ _____ _____    ______ ____
ROOT
ATOM      1  C   LIG    1       -2.167   7.666  -2.949  0.00  0.00    +0.420 C 
ATOM      2  C   LIG    1       -1.936   9.145  -2.790  0.00  0.00    -0.050 A 
ATOM      3  C   LIG    1       -1.729   9.756  -1.604  0.00  0.00    +0.030 A 
ATOM      4  N   LIG    1       -1.568  11.062  -1.840  0.00  0.00    -0.480 NA
ATOM      5  C   LIG    1       -1.665  11.282  -3.125  0.00  0.00    +0.420 A 
ATOM      6  C   LIG    1       -1.692   9.046  -0.275  0.00  0.00    +0.140 C 
ATOM      7  C   LIG    1       -2.358   7.673  -0.428  0.00  0.00    +0.290 C 
ATOM      8  N   LIG    1       -1.895  10.105  -3.752  0.00  0.00    -0.550 N 
ATOM      9  H   LIG    1       -2.009   9.972  -4.706  0.00  0.00    +0.420 HD
ATOM     10  N   LIG    1       -1.862   7.030  -1.655  0.00  0.00    -0.590 N 
ATOM     11  C   LIG    1       -1.143   5.892  -1.596  0.00  0.00    +0.510 C 
ATOM     12  O   LIG    1       -0.741   5.375  -2.617  0.00  0.00    -0.510 OA
ENDROOT
BRANCH   1  18
ATOM     13  C   LIG    1       -3.325   7.407  -5.813  0.00  0.00    +0.350 C 
ATOM     14  N   LIG    1       -4.096   7.302  -4.572  0.00  0.00    -0.370 N 
ATOM     15  N   LIG    1       -5.474   7.066  -4.475  0.00  0.00    -0.280 NA
ATOM     16  C   LIG    1       -5.797   7.044  -3.208  0.00  0.00    +0.240 A 
ATOM     17  C   LIG    1       -4.636   7.260  -2.457  0.00  0.00    -0.100 A 
ATOM     18  C   LIG    1       -3.605   7.412  -3.320  0.00  0.00    +0.070 A 
ENDBRANCH   1  18
BRANCH  11  19
ATOM     19  C   LIG    1       -0.837   5.261  -0.262  0.00  0.00    +0.390 C 
BRANCH  19  20
ATOM     20  N   LIG    1       -0.049   4.043  -0.466  0.00  0.00    -0.390 N 
ATOM     21  N   LIG    1        1.350   3.948  -0.515  0.00  0.00    +0.010 NA
ATOM     22  N   LIG    1        1.689   2.722  -0.709  0.00  0.00    -0.210 NA
ATOM     23  C   LIG    1        0.593   1.942  -0.800  0.00  0.00    -0.020 A 
ATOM     24  C   LIG    1        0.410   0.568  -1.003  0.00  0.00    +0.110 A 
ATOM     25  C   LIG    1       -0.851   0.049  -1.050  0.00  0.00    +0.010 A 
ATOM     26  C   LIG    1       -1.963   0.868  -0.905  0.00  0.00    +0.080 A 
ATOM     27  C   LIG    1       -1.810   2.221  -0.699  0.00  0.00    +0.010 A 
ATOM     28  C   LIG    1       -0.533   2.770  -0.647  0.00  0.00    +0.100 A 
ENDBRANCH  19  20
ENDBRANCH  11  19
TORSDOF 3
