REMARK  Name = ZINCrD000000C3ZY.0
REMARK                            x       y       z     vdW  Elec       q    Type
REMARK                         _______ _______ _______ _____ _____    ______ ____
ROOT
ATOM      1  O   LIG    1        0.885   4.924  -1.908  0.00  0.00    -0.570 OA
ATOM      2  C   LIG    1        1.996   4.550  -2.232  0.00  0.00    +0.720 C 
ATOM      3  N   LIG    1        2.962   4.424  -1.301  0.00  0.00    -0.610 N 
ATOM      4  N   LIG    1        2.260   4.261  -3.521  0.00  0.00    -0.670 N 
ATOM      5  H   LIG    1        3.124   3.897  -3.769  0.00  0.00    +0.410 HD
ENDROOT
BRANCH   4   6
ATOM      6  C   LIG    1        1.287   4.486  -4.504  0.00  0.00    +0.180 A 
ATOM      7  C   LIG    1       -0.055   4.293  -4.207  0.00  0.00    +0.040 A 
ATOM      8  C   LIG    1       -1.020   4.519  -5.172  0.00  0.00    +0.040 A 
ATOM      9  C   LIG    1       -0.642   4.927  -6.440  0.00  0.00    +0.050 A 
ATOM     10  O   LIG    1       -1.586   5.148  -7.401  0.00  0.00    -0.320 OA
ATOM     11  C   LIG    1       -1.593   4.227  -8.494  0.00  0.00    +0.220 C 
ATOM     12  C   LIG    1       -0.581   4.637  -9.552  0.00  0.00    -0.020 C 
ATOM     13  C   LIG    1        0.850   4.570  -9.041  0.00  0.00    +0.220 C 
ATOM     14  O   LIG    1        1.060   5.520  -7.994  0.00  0.00    -0.320 OA
ATOM     15  C   LIG    1        0.700   5.116  -6.741  0.00  0.00    +0.090 A 
ATOM     16  C   LIG    1        1.667   4.895  -5.776  0.00  0.00    -0.010 A 
ENDBRANCH   4   6
BRANCH   3  17
ATOM     17  C   LIG    1        2.648   4.638   0.114  0.00  0.00    +0.310 C 
ATOM     18  C   LIG    1        2.914   3.350   0.922  0.00  0.00    +0.050 C 
ATOM     19  C   LIG    1        4.368   3.551   1.399  0.00  0.00    +0.070 C 
ATOM     20  C   LIG    1        4.566   5.051   1.445  0.00  0.00    -0.090 A 
ATOM     21  C   LIG    1        5.533   5.810   2.082  0.00  0.00    +0.010 A 
ATOM     22  C   LIG    1        5.517   7.187   1.978  0.00  0.00    +0.020 A 
ATOM     23  C   LIG    1        4.526   7.812   1.245  0.00  0.00    +0.010 A 
ATOM     24  C   LIG    1        3.560   7.057   0.608  0.00  0.00    +0.030 A 
ATOM     25  C   LIG    1        3.577   5.676   0.707  0.00  0.00    -0.110 A 
ENDBRANCH   3  17
BRANCH   3  26
ATOM     26  C   LIG    1        4.326   4.073  -1.704  0.00  0.00    +0.280 C 
BRANCH  26  27
ATOM     27  C   LIG    1        4.469   2.551  -1.748  0.00  0.00    +0.160 C 
BRANCH  27  28
ATOM     28  O   LIG    1        3.619   2.022  -2.768  0.00  0.00    -0.570 OA
ATOM     29  H   LIG    1        3.658   1.060  -2.853  0.00  0.00    +0.390 HD
ENDBRANCH  27  28
ENDBRANCH  26  27
ENDBRANCH   3  26
TORSDOF 5
