REMARK  Name = ZINCpe000000UUWN.0
REMARK                            x       y       z     vdW  Elec       q    Type
REMARK                         _______ _______ _______ _____ _____    ______ ____
ROOT
ATOM      1  C   LIG    1        5.515   3.571  -3.074  0.00  0.00    +0.220 C 
ATOM      2  C   LIG    1        6.962   3.069  -3.034  0.00  0.00    +0.040 C 
ATOM      3  C   LIG    1        7.742   3.856  -1.978  0.00  0.00    +0.020 C 
ATOM      4  C   LIG    1        7.113   3.628  -0.602  0.00  0.00    +0.010 C 
ATOM      5  C   LIG    1        5.665   4.142  -0.615  0.00  0.00    +0.280 C 
ATOM      6  N   LIG    1        4.949   3.490  -1.721  0.00  0.00    -0.600 N 
ATOM      7  C   LIG    1        3.792   2.836  -1.498  0.00  0.00    +0.500 C 
ATOM      8  O   LIG    1        3.151   2.403  -2.432  0.00  0.00    -0.490 OA
ENDROOT
BRANCH   1  12
ATOM      9  C   LIG    1        3.281   2.441  -5.970  0.00  0.00    +0.290 C 
ATOM     10  N   LIG    1        4.069   3.275  -5.059  0.00  0.00    -0.730 N 
ATOM     11  H   LIG    1        4.131   4.231  -5.208  0.00  0.00    +0.400 HD
ATOM     12  C   LIG    1        4.706   2.713  -4.012  0.00  0.00    +0.530 C 
ATOM     13  O   LIG    1        4.627   1.517  -3.825  0.00  0.00    -0.520 OA
ENDBRANCH   1  12
BRANCH   7  14
ATOM     14  C   LIG    1        3.294   2.644  -0.089  0.00  0.00    +0.370 C 
BRANCH  14  15
ATOM     15  N   LIG    1        2.026   1.910  -0.115  0.00  0.00    -0.420 N 
ATOM     16  N   LIG    1        0.830   2.623  -0.198  0.00  0.00    -0.240 NA
ATOM     17  C   LIG    1       -0.332   2.042  -0.226  0.00  0.00    +0.140 A 
ATOM     18  C   LIG    1       -0.424   0.583  -0.169  0.00  0.00    -0.060 A 
ATOM     19  C   LIG    1       -1.652  -0.079  -0.196  0.00  0.00    +0.040 A 
ATOM     20  C   LIG    1       -1.683  -1.455  -0.140  0.00  0.00    +0.050 A 
ATOM     21  C   LIG    1       -0.508  -2.190  -0.057  0.00  0.00    +0.030 A 
ATOM     22  C   LIG    1        0.716  -1.558  -0.028  0.00  0.00    +0.090 A 
ATOM     23  C   LIG    1        0.772  -0.166  -0.084  0.00  0.00    -0.120 A 
ATOM     24  C   LIG    1       -1.587   2.872  -0.323  0.00  0.00    +0.180 C 
ATOM     25  C   LIG    1        2.047   0.562  -0.057  0.00  0.00    +0.540 A 
ATOM     26  O   LIG    1        3.104  -0.040   0.015  0.00  0.00    -0.510 OA
ENDBRANCH  14  15
ENDBRANCH   7  14
TORSDOF 3
