REMARK  Name = ZINCrH00000tj1oT.0
REMARK                            x       y       z     vdW  Elec       q    Type
REMARK                         _______ _______ _______ _____ _____    ______ ____
ROOT
ATOM      1  N   LIG    1        0.592   0.097  -0.038  0.00  0.00    -0.620 N 
ENDROOT
BRANCH   1   2
ATOM      2  C   LIG    1        0.871  -0.525  -1.334  0.00  0.00    +0.240 C 
ATOM      3  C   LIG    1       -0.401  -1.246  -1.826  0.00  0.00    +0.010 C 
ATOM      4  C   LIG    1       -0.298  -1.431  -3.317  0.00  0.00    +0.000 C 
ATOM      5  C   LIG    1        0.282  -2.806  -3.700  0.00  0.00    +0.000 C 
ATOM      6  C   LIG    1        1.465  -3.225  -2.806  0.00  0.00    +0.000 C 
ATOM      7  C   LIG    1        2.406  -2.086  -2.525  0.00  0.00    +0.020 C 
ATOM      8  C   LIG    1        1.999  -1.433  -1.188  0.00  0.00    -0.010 C 
ENDBRANCH   1   2
BRANCH   1   9
ATOM      9  C   LIG    1        0.295  -0.700   1.070  0.00  0.00    +0.230 A 
ATOM     10  C   LIG    1        0.142  -0.119   2.324  0.00  0.00    -0.080 A 
ATOM     11  C   LIG    1       -0.152  -0.907   3.420  0.00  0.00    +0.060 A 
ATOM     12  C   LIG    1       -0.294  -2.273   3.275  0.00  0.00    -0.100 A 
ATOM     13  C   LIG    1       -0.142  -2.860   2.024  0.00  0.00    +0.120 A 
ATOM     14  C   LIG    1        0.147  -2.071   0.920  0.00  0.00    -0.030 A 
BRANCH  13  15
ATOM     15  N   LIG    1       -0.285  -4.242   1.878  0.00  0.00    -0.490 N 
ATOM     16  C   LIG    1        0.777  -4.969   2.619  0.00  0.00    +0.170 C 
ATOM     17  C   LIG    1        0.182  -6.388   2.791  0.00  0.00    +0.030 C 
ATOM     18  C   LIG    1       -1.317  -6.106   3.041  0.00  0.00    +0.010 C 
ATOM     19  C   LIG    1       -1.567  -4.705   2.454  0.00  0.00    +0.170 C 
ENDBRANCH  13  15
ENDBRANCH   1   9
BRANCH   1  20
ATOM     20  C   LIG    1        0.624   1.556   0.097  0.00  0.00    +0.290 C 
BRANCH  20  21
ATOM     21  C   LIG    1        2.037   2.002   0.475  0.00  0.00    +0.010 C 
BRANCH  21  22
ATOM     22  C   LIG    1        2.071   3.526   0.615  0.00  0.00    +0.250 C 
BRANCH  22  23
ATOM     23  N   LIG    1        3.424   3.953   0.977  0.00  0.00    -1.120 NA
ATOM     24  H   LIG    1        4.068   3.303   1.300  0.00  0.00    +0.420 HD
BRANCH  23  26
ATOM     25  C   LIG    1        2.810   6.406   2.042  0.00  0.00    -0.280 C 
ATOM     26  S   LIG    1        3.855   5.546   0.836  0.00  0.00    +2.620 S 
ATOM     27  O   LIG    1        3.478   5.894  -0.489  0.00  0.00    -0.960 OA
ATOM     28  O   LIG    1        5.216   5.578   1.243  0.00  0.00    -0.960 OA
ENDBRANCH  23  26
ENDBRANCH  22  23
ENDBRANCH  21  22
ENDBRANCH  20  21
ENDBRANCH   1  20
TORSDOF 8
