REMARK  Name = ZINCpe000000V2RL.0
REMARK                            x       y       z     vdW  Elec       q    Type
REMARK                         _______ _______ _______ _____ _____    ______ ____
ROOT
ATOM      1  N   LIG    1        5.036  -3.316   2.131  0.00  0.00    -0.440 N 
ATOM      2  C   LIG    1        6.000  -4.423   1.992  0.00  0.00    +0.190 C 
ATOM      3  C   LIG    1        5.245  -5.609   1.355  0.00  0.00    +0.160 C 
ATOM      4  C   LIG    1        4.045  -4.923   0.648  0.00  0.00    +0.060 C 
ATOM      5  C   LIG    1        3.721  -3.771   1.632  0.00  0.00    +0.180 C 
ENDROOT
BRANCH   1   8
ATOM      6  C   LIG    1        5.936  -2.013   5.437  0.00  0.00    +0.450 A 
ATOM      7  C   LIG    1        6.076  -2.424   4.116  0.00  0.00    -0.170 A 
ATOM      8  C   LIG    1        4.949  -2.894   3.449  0.00  0.00    +0.400 A 
ATOM      9  N   LIG    1        3.784  -2.929   4.093  0.00  0.00    -0.590 NA
ATOM     10  C   LIG    1        3.693  -2.535   5.347  0.00  0.00    +0.550 A 
ATOM     11  N   LIG    1        4.737  -2.083   6.012  0.00  0.00    -0.600 NA
BRANCH   6  13
ATOM     12  C   LIG    1        8.343  -1.463   5.502  0.00  0.00    +0.290 C 
ATOM     13  N   LIG    1        7.029  -1.536   6.145  0.00  0.00    -0.720 N 
ATOM     14  H   LIG    1        6.923  -1.251   7.066  0.00  0.00    +0.410 HD
ENDBRANCH   6  13
ENDBRANCH   1   8
BRANCH   3  15
ATOM     15  O   LIG    1        6.074  -6.284   0.406  0.00  0.00    -0.550 OA
ATOM     16  H   LIG    1        6.876  -6.666   0.787  0.00  0.00    +0.380 HD
ENDBRANCH   3  15
BRANCH   5  17
ATOM     17  C   LIG    1        3.005  -2.633   0.902  0.00  0.00    +0.200 C 
BRANCH  17  18
ATOM     18  N   LIG    1        2.877  -1.478   1.801  0.00  0.00    -0.670 NA
ATOM     19  H   LIG    1        2.402  -1.735   2.654  0.00  0.00    +0.360 HD
BRANCH  18  20
ATOM     20  C   LIG    1        2.193  -0.363   1.133  0.00  0.00    +0.150 C 
ATOM     21  C   LIG    1        0.702  -0.558   1.265  0.00  0.00    -0.020 C 
ATOM     22  C   LIG    1        0.002  -0.004   0.002  0.00  0.00    +0.220 C 
ATOM     23  O   LIG    1       -0.016   1.359   0.009  0.00  0.00    -0.380 OA
ATOM     24  C   LIG    1        1.240   2.050   0.001  0.00  0.00    +0.240 C 
ATOM     25  C   LIG    1        1.728   2.121   1.429  0.00  0.00    +0.010 C 
ATOM     26  C   LIG    1        2.680   0.962   1.751  0.00  0.00    +0.310 C 
ATOM     27  F   LIG    1        3.950   1.262   1.246  0.00  0.00    -0.200 F 
ATOM     28  F   LIG    1        2.765   0.813   3.140  0.00  0.00    -0.190 F 
ENDBRANCH  18  20
ENDBRANCH  17  18
ENDBRANCH   5  17
TORSDOF 6
