REMARK  Name = ZINCvU00000007eC.0
REMARK                            x       y       z     vdW  Elec       q    Type
REMARK                         _______ _______ _______ _____ _____    ______ ____
ROOT
ATOM      1  N   LIG    1        5.086  -2.251  -0.127  0.00  0.00    -0.370 N 
ATOM      2  N   LIG    1        5.738  -1.028  -0.336  0.00  0.00    -0.260 NA
ATOM      3  C   LIG    1        4.873  -0.071  -0.147  0.00  0.00    +0.320 A 
ATOM      4  N   LIG    1        3.659  -0.639   0.193  0.00  0.00    -0.450 N 
ATOM      5  C   LIG    1        3.805  -1.979   0.198  0.00  0.00    +0.480 A 
ATOM      6  S   LIG    1        2.586  -3.127   0.552  0.00  0.00    -0.550 S 
ENDROOT
BRANCH   3   7
ATOM      7  C   LIG    1        5.145   1.377  -0.271  0.00  0.00    -0.040 A 
ATOM      8  C   LIG    1        4.099   2.297  -0.183  0.00  0.00    +0.070 A 
ATOM      9  C   LIG    1        4.360   3.647  -0.296  0.00  0.00    +0.040 A 
ATOM     10  C   LIG    1        5.655   4.089  -0.505  0.00  0.00    -0.010 A 
ATOM     11  C   LIG    1        6.697   3.181  -0.597  0.00  0.00    +0.040 A 
ATOM     12 CL   LIG    1        5.975   5.789  -0.652  0.00  0.00    -0.050 Cl
ATOM     13  C   LIG    1        6.448   1.829  -0.482  0.00  0.00    +0.100 A 
ENDBRANCH   3   7
BRANCH   4  14
ATOM     14  C   LIG    1        2.477   0.059   0.476  0.00  0.00    +0.110 A 
ATOM     15  C   LIG    1        1.517   0.231  -0.511  0.00  0.00    +0.040 A 
ATOM     16  C   LIG    1        0.353   0.919  -0.228  0.00  0.00    +0.030 A 
ATOM     17  C   LIG    1        0.144   1.435   1.037  0.00  0.00    +0.050 A 
ATOM     18  C   LIG    1        1.098   1.265   2.023  0.00  0.00    +0.030 A 
ATOM     19  C   LIG    1        2.264   0.579   1.746  0.00  0.00    +0.040 A 
ENDBRANCH   4  14
BRANCH   1  20
ATOM     20  C   LIG    1        5.686  -3.583  -0.239  0.00  0.00    +0.520 C 
BRANCH  20  25
ATOM     21  C   LIG    1        5.870  -5.386  -1.856  0.00  0.00    +0.260 C 
ATOM     22  C   LIG    1        6.854  -5.623  -3.028  0.00  0.00    +0.060 C 
ATOM     23  C   LIG    1        7.944  -4.556  -2.743  0.00  0.00    +0.030 C 
ATOM     24  C   LIG    1        7.131  -3.373  -2.176  0.00  0.00    +0.200 C 
ATOM     25  N   LIG    1        5.864  -3.921  -1.657  0.00  0.00    -0.540 NA
BRANCH  21  30
ATOM     26  C   LIG    1        1.532  -8.012  -2.297  0.00  0.00    +0.150 C 
ATOM     27  C   LIG    1        2.624  -6.982  -2.424  0.00  0.00    +0.020 A 
ATOM     28  N   LIG    1        2.592  -5.896  -3.142  0.00  0.00    -0.360 NA
ATOM     29  O   LIG    1        3.617  -5.264  -3.038  0.00  0.00    +0.120 OA
ATOM     30  C   LIG    1        4.491  -5.871  -2.223  0.00  0.00    -0.020 A 
ATOM     31  C   LIG    1        3.887  -7.003  -1.788  0.00  0.00    -0.050 A 
ENDBRANCH  21  30
ENDBRANCH  20  25
ENDBRANCH   1  20
TORSDOF 5
