REMARK  Name = ZINCqH0000037QsQ.0
REMARK                            x       y       z     vdW  Elec       q    Type
REMARK                         _______ _______ _______ _____ _____    ______ ____
ROOT
ATOM      1  C   LIG    1        3.706  -2.234  -0.981  0.00  0.00    +0.140 A 
ATOM      2  N   LIG    1        3.462  -2.900  -2.080  0.00  0.00    -0.210 NA
ATOM      3  N   LIG    1        3.362  -4.158  -1.828  0.00  0.00    -0.250 NA
ATOM      4  C   LIG    1        3.541  -4.363  -0.533  0.00  0.00    +0.210 A 
ATOM      5  C   LIG    1        3.539  -5.518   0.275  0.00  0.00    +0.010 A 
ATOM      6  C   LIG    1        3.761  -5.394   1.612  0.00  0.00    +0.120 A 
ATOM      7  C   LIG    1        3.987  -4.122   2.166  0.00  0.00    -0.190 A 
ATOM      8  C   LIG    1        3.986  -3.025   1.379  0.00  0.00    +0.330 A 
ATOM      9 CL   LIG    1        3.258  -7.080  -0.427  0.00  0.00    +0.010 Cl
ATOM     10  N   LIG    1        3.771  -3.135   0.037  0.00  0.00    -0.380 N 
ENDROOT
BRANCH   7  11
ATOM     11  C   LIG    1        4.233  -3.982   3.646  0.00  0.00    +0.530 C 
ATOM     12  F   LIG    1        4.967  -2.816   3.889  0.00  0.00    -0.170 F 
ATOM     13  F   LIG    1        4.952  -5.090   4.106  0.00  0.00    -0.160 F 
ATOM     14  F   LIG    1        3.008  -3.910   4.317  0.00  0.00    -0.160 F 
ENDBRANCH   7  11
BRANCH   1  15
ATOM     15  C   LIG    1        3.889  -0.743  -0.864  0.00  0.00    +0.430 C 
BRANCH  15  17
ATOM     16  C   LIG    1        2.510   1.228  -0.473  0.00  0.00    +0.570 C 
ATOM     17  N   LIG    1        2.592  -0.110  -0.614  0.00  0.00    -0.730 N 
ATOM     18  H   LIG    1        1.791  -0.654  -0.550  0.00  0.00    +0.400 HD
ATOM     19  O   LIG    1        3.514   1.909  -0.554  0.00  0.00    -0.520 OA
BRANCH  16  27
ATOM     20  C   LIG    1        2.389   4.062   0.095  0.00  0.00    +0.110 C 
ATOM     21  C   LIG    1        1.131   3.233   0.053  0.00  0.00    +0.010 A 
ATOM     22  C   LIG    1       -0.092   3.824   0.287  0.00  0.00    -0.020 A 
ATOM     23  C   LIG    1       -1.251   3.063   0.249  0.00  0.00    +0.140 A 
ATOM     24  C   LIG    1       -1.186   1.706  -0.029  0.00  0.00    -0.030 A 
ATOM     25  C   LIG    1        0.032   1.105  -0.259  0.00  0.00    +0.080 A 
ATOM     26  F   LIG    1       -2.447   3.647   0.479  0.00  0.00    -0.130 F 
ATOM     27  C   LIG    1        1.202   1.866  -0.222  0.00  0.00    -0.160 A 
ENDBRANCH  16  27
ENDBRANCH  15  17
ENDBRANCH   1  15
TORSDOF 4
