REMARK  Name = ZINCrH000004ta6Z.0
REMARK                            x       y       z     vdW  Elec       q    Type
REMARK                         _______ _______ _______ _____ _____    ______ ____
ROOT
ATOM      1  N   LIG    1       -1.161   2.192   0.020  0.00  0.00    -0.650 N 
ATOM      2  H   LIG    1       -2.043   1.788   0.022  0.00  0.00    +0.410 HD
ATOM      3  C   LIG    1       -1.033   3.533   0.026  0.00  0.00    +0.710 C 
ATOM      4  N   LIG    1       -2.131   4.315   0.036  0.00  0.00    -0.720 N 
ATOM      5  H   LIG    1       -3.013   3.912   0.038  0.00  0.00    +0.410 HD
ATOM      6  O   LIG    1        0.073   4.038   0.024  0.00  0.00    -0.570 OA
ENDROOT
BRANCH   1  11
ATOM      7  C   LIG    1        1.811  -1.765  -0.025  0.00  0.00    +0.360 C 
ATOM      8  N   LIG    1        1.314  -0.387  -0.013  0.00  0.00    -0.360 N 
ATOM      9  N   LIG    1        2.100   0.772  -0.014  0.00  0.00    -0.280 NA
ATOM     10  C   LIG    1        1.312   1.817  -0.001  0.00  0.00    +0.260 A 
ATOM     11  C   LIG    1       -0.017   1.377   0.010  0.00  0.00    +0.040 A 
ATOM     12  C   LIG    1        0.002  -0.004   0.002  0.00  0.00    +0.080 A 
BRANCH  12  13
ATOM     13  C   LIG    1       -1.174  -0.899   0.009  0.00  0.00    -0.030 A 
ATOM     14  C   LIG    1       -2.238  -0.652   0.879  0.00  0.00    +0.030 A 
ATOM     15  C   LIG    1       -3.335  -1.488   0.877  0.00  0.00    +0.020 A 
ATOM     16  C   LIG    1       -3.379  -2.575   0.022  0.00  0.00    +0.020 A 
ATOM     17  C   LIG    1       -2.325  -2.829  -0.838  0.00  0.00    +0.020 A 
ATOM     18  C   LIG    1       -1.224  -1.998  -0.850  0.00  0.00    +0.020 A 
ENDBRANCH  12  13
ENDBRANCH   1  11
BRANCH   4  19
ATOM     19  C   LIG    1       -1.992   5.773   0.043  0.00  0.00    +0.260 C 
BRANCH  19  20
ATOM     20  C   LIG    1       -1.811   6.261   1.482  0.00  0.00    +0.430 C 
ATOM     21  F   LIG    1       -2.927   5.895   2.242  0.00  0.00    -0.180 F 
ATOM     22  F   LIG    1       -1.678   7.654   1.489  0.00  0.00    -0.180 F 
ATOM     23  F   LIG    1       -0.663   5.680   2.031  0.00  0.00    -0.170 F 
ENDBRANCH  19  20
BRANCH  19  24
ATOM     24  C   LIG    1       -3.248   6.408  -0.557  0.00  0.00    +0.080 C 
BRANCH  24  25
ATOM     25  C   LIG    1       -3.361   6.020  -2.032  0.00  0.00    +0.160 C 
ATOM     26  C   LIG    1       -4.552   6.750  -2.691  0.00  0.00    +0.010 C 
ATOM     27  C   LIG    1       -5.139   5.706  -3.667  0.00  0.00    +0.000 C 
ATOM     28  C   LIG    1       -4.233   4.469  -3.483  0.00  0.00    +0.200 C 
ATOM     29  O   LIG    1       -3.672   4.615  -2.160  0.00  0.00    -0.370 OA
ENDBRANCH  24  25
ENDBRANCH  19  24
ENDBRANCH   4  19
TORSDOF 6
