REMARK  Name = ZINCvU00000003Vj.0
REMARK                            x       y       z     vdW  Elec       q    Type
REMARK                         _______ _______ _______ _____ _____    ______ ____
ROOT
ATOM      1  C   LIG    1        3.610  -2.006   0.056  0.00  0.00    +0.520 C 
ATOM      2  N   LIG    1        3.600  -0.662  -0.035  0.00  0.00    -0.660 N 
ATOM      3  H   LIG    1        4.435  -0.174  -0.104  0.00  0.00    +0.420 HD
ATOM      4  O   LIG    1        2.565  -2.622   0.059  0.00  0.00    -0.510 OA
ENDROOT
BRANCH   2   5
ATOM      5  C   LIG    1        2.389   0.028  -0.032  0.00  0.00    +0.210 A 
ATOM      6  C   LIG    1        1.271  -0.523  -0.643  0.00  0.00    +0.020 A 
ATOM      7  C   LIG    1        0.073   0.162  -0.638  0.00  0.00    +0.060 A 
ATOM      8  C   LIG    1       -0.025   1.400  -0.025  0.00  0.00    -0.010 A 
ATOM      9  C   LIG    1        1.075   1.962   0.588  0.00  0.00    +0.060 A 
ATOM     10  C   LIG    1        2.294   1.281   0.591  0.00  0.00    -0.180 A 
BRANCH  10  11
ATOM     11  C   LIG    1        3.475   1.877   1.245  0.00  0.00    +0.570 C 
ATOM     12  N   LIG    1        3.355   3.033   1.927  0.00  0.00    -0.720 N 
ATOM     13  H   LIG    1        2.493   3.473   1.989  0.00  0.00    +0.400 HD
ATOM     14  O   LIG    1        4.555   1.325   1.168  0.00  0.00    -0.540 OA
BRANCH  12  15
ATOM     15  C   LIG    1        4.528   3.624   2.577  0.00  0.00    +0.230 C 
ATOM     16  C   LIG    1        4.699   3.039   3.994  0.00  0.00    +0.010 C 
ATOM     17  C   LIG    1        5.192   4.238   4.843  0.00  0.00    +0.010 C 
ATOM     18  C   LIG    1        4.382   5.424   4.263  0.00  0.00    +0.010 C 
ATOM     19  C   LIG    1        4.327   5.140   2.748  0.00  0.00    +0.020 C 
ENDBRANCH  12  15
ENDBRANCH  10  11
ENDBRANCH   2   5
BRANCH   1  20
ATOM     20  C   LIG    1        4.920  -2.745   0.154  0.00  0.00    +0.040 C 
ATOM     21  C   LIG    1        5.673  -2.284   1.403  0.00  0.00    +0.060 C 
BRANCH  20  27
ATOM     22  C   LIG    1        4.404  -9.159  -0.428  0.00  0.00    +0.130 A 
ATOM     23  C   LIG    1        3.901  -8.326   0.530  0.00  0.00    -0.020 A 
ATOM     24  C   LIG    1        4.146  -6.945   0.448  0.00  0.00    -0.010 A 
ATOM     25  C   LIG    1        3.644  -6.057   1.415  0.00  0.00    +0.010 A 
ATOM     26  C   LIG    1        3.901  -4.725   1.304  0.00  0.00    +0.050 A 
ATOM     27  C   LIG    1        4.656  -4.226   0.244  0.00  0.00    -0.070 A 
ATOM     28  C   LIG    1        5.154  -5.056  -0.713  0.00  0.00    +0.040 A 
ATOM     29  C   LIG    1        4.914  -6.437  -0.630  0.00  0.00    -0.080 A 
ATOM     30  C   LIG    1        5.417  -7.324  -1.598  0.00  0.00    +0.070 A 
ATOM     31  C   LIG    1        5.162  -8.655  -1.490  0.00  0.00    -0.060 A 
BRANCH  22  33
ATOM     32  C   LIG    1        4.720 -11.315  -1.379  0.00  0.00    +0.250 C 
ATOM     33  O   LIG    1        4.167 -10.494  -0.348  0.00  0.00    -0.320 OA
ENDBRANCH  22  33
ENDBRANCH  20  27
ENDBRANCH   1  20
TORSDOF 6
