REMARK  Name = ZINCqH0000001S8L.0
REMARK                            x       y       z     vdW  Elec       q    Type
REMARK                         _______ _______ _______ _____ _____    ______ ____
ROOT
ATOM      1  N   LIG    1       -5.224   4.924   0.077  0.00  0.00    -0.660 NA
ATOM      2  H   LIG    1       -5.423   4.319  -0.705  0.00  0.00    +0.350 HD
ENDROOT
BRANCH   1   3
ATOM      3  C   LIG    1       -3.820   5.356   0.066  0.00  0.00    +0.230 C 
BRANCH   3   6
ATOM      4  N   LIG    1       -1.584   4.299   0.040  0.00  0.00    -0.650 N 
ATOM      5  H   LIG    1       -1.198   5.189   0.040  0.00  0.00    +0.410 HD
ATOM      6  C   LIG    1       -2.923   4.145   0.052  0.00  0.00    +0.520 C 
ATOM      7  O   LIG    1       -3.405   3.032   0.051  0.00  0.00    -0.480 OA
BRANCH   4  12
ATOM      8  N   LIG    1        0.599   3.187   0.013  0.00  0.00    -0.380 N 
ATOM      9  N   LIG    1        1.038   1.856   0.002  0.00  0.00    -0.290 NA
ATOM     10  C   LIG    1       -0.013   1.076   0.008  0.00  0.00    +0.250 A 
ATOM     11  C   LIG    1       -1.157   1.879   0.017  0.00  0.00    -0.110 A 
ATOM     12  C   LIG    1       -0.753   3.179   0.026  0.00  0.00    +0.300 A 
BRANCH   8  14
ATOM     13  C   LIG    1        2.349   4.362   1.253  0.00  0.00    +0.050 C 
ATOM     14  C   LIG    1        1.454   4.376   0.012  0.00  0.00    +0.250 C 
ATOM     15  C   LIG    1        2.326   4.377  -1.245  0.00  0.00    +0.050 C 
ENDBRANCH   8  14
ENDBRANCH   4  12
ENDBRANCH   3   6
ENDBRANCH   1   3
BRANCH   1  16
ATOM     16  C   LIG    1       -6.130   6.080   0.091  0.00  0.00    +0.270 C 
BRANCH  16  17
ATOM     17  C   LIG    1       -7.448   5.679   0.703  0.00  0.00    -0.070 A 
ATOM     18  C   LIG    1       -8.001   4.447   0.405  0.00  0.00    +0.030 A 
ATOM     19  C   LIG    1       -9.208   4.077   0.969  0.00  0.00    +0.000 A 
ATOM     20  C   LIG    1       -9.866   4.942   1.823  0.00  0.00    +0.000 A 
ATOM     21  C   LIG    1       -9.315   6.176   2.117  0.00  0.00    +0.000 A 
ATOM     22  C   LIG    1       -8.106   6.544   1.557  0.00  0.00    +0.010 A 
ENDBRANCH  16  17
BRANCH  16  23
ATOM     23  C   LIG    1       -6.356   6.559  -1.320  0.00  0.00    -0.110 A 
ATOM     24  C   LIG    1       -6.507   5.643  -2.344  0.00  0.00    +0.000 A 
ATOM     25  C   LIG    1       -6.719   6.082  -3.638  0.00  0.00    +0.010 A 
ATOM     26  C   LIG    1       -6.770   7.437  -3.908  0.00  0.00    +0.000 A 
ATOM     27  C   LIG    1       -6.614   8.352  -2.885  0.00  0.00    +0.000 A 
ATOM     28  C   LIG    1       -6.407   7.913  -1.590  0.00  0.00    +0.010 A 
ENDBRANCH  16  23
ENDBRANCH   1  16
TORSDOF 7
