REMARK  Name = ZINCtV00000L6jnS.0
REMARK                            x       y       z     vdW  Elec       q    Type
REMARK                         _______ _______ _______ _____ _____    ______ ____
ROOT
ATOM      1  N   LIG    1        2.042   0.672  -0.181  0.00  0.00    -0.450 N 
ATOM      2  C   LIG    1        1.224   1.746   0.028  0.00  0.00    +0.160 A 
ATOM      3  N   LIG    1        0.004   1.281   0.185  0.00  0.00    -0.280 NA
ATOM      4  N   LIG    1        0.004  -0.000   0.089  0.00  0.00    -0.240 NA
ATOM      5  C   LIG    1        1.223  -0.433  -0.134  0.00  0.00    +0.220 A 
ENDROOT
BRANCH   5   6
ATOM      6  C   LIG    1        1.638  -1.842  -0.304  0.00  0.00    -0.010 A 
ATOM      7  C   LIG    1        2.730  -2.341   0.407  0.00  0.00    +0.060 A 
ATOM      8  C   LIG    1        3.112  -3.657   0.245  0.00  0.00    +0.050 A 
ATOM      9  C   LIG    1        2.415  -4.482  -0.621  0.00  0.00    -0.010 A 
ATOM     10  C   LIG    1        1.331  -3.993  -1.331  0.00  0.00    +0.050 A 
ATOM     11 CL   LIG    1        2.903  -6.136  -0.820  0.00  0.00    -0.040 Cl
ATOM     12  C   LIG    1        0.935  -2.680  -1.173  0.00  0.00    +0.010 A 
ATOM     13 CL   LIG    1       -0.429  -2.071  -2.057  0.00  0.00    -0.030 Cl
ENDBRANCH   5   6
BRANCH   1  14
ATOM     14  C   LIG    1        3.489   0.692  -0.407  0.00  0.00    +0.350 C 
BRANCH  14  16
ATOM     15  C   LIG    1        4.518   1.727  -2.365  0.00  0.00    +0.080 C 
ATOM     16  C   LIG    1        3.765   0.768  -1.887  0.00  0.00    -0.070 C 
ENDBRANCH  14  16
ENDBRANCH   1  14
BRANCH   2  17
ATOM     17  S   LIG    1        1.712   3.438   0.077  0.00  0.00    +0.070 S 
BRANCH  17  18
ATOM     18  C   LIG    1        0.109   4.219   0.388  0.00  0.00    +0.150 C 
ATOM     19  C   LIG    1       -0.406   3.795   1.764  0.00  0.00    +0.110 C 
BRANCH  18  20
ATOM     20  C   LIG    1        0.265   5.717   0.349  0.00  0.00    +0.170 A 
ATOM     21  N   LIG    1        1.214   6.407   0.917  0.00  0.00    -0.250 NA
ATOM     22  N   LIG    1        1.038   7.659   0.681  0.00  0.00    -0.260 NA
ATOM     23  C   LIG    1       -0.042   7.814  -0.054  0.00  0.00    +0.250 A 
ATOM     24  O   LIG    1       -0.548   6.584  -0.282  0.00  0.00    -0.210 OA
BRANCH  23  25
ATOM     25  C   LIG    1       -0.591   9.088  -0.541  0.00  0.00    -0.160 A 
ATOM     26  C   LIG    1       -0.059  10.318  -0.302  0.00  0.00    +0.110 A 
ATOM     27  C   LIG    1       -0.758  11.361  -0.868  0.00  0.00    +0.020 A 
ATOM     28  C   LIG    1       -1.845  11.008  -1.560  0.00  0.00    -0.010 A 
ATOM     29  S   LIG    1       -2.036   9.261  -1.530  0.00  0.00    +0.180 S 
ENDBRANCH  23  25
ENDBRANCH  18  20
ENDBRANCH  17  18
ENDBRANCH   2  17
TORSDOF 7
