REMARK  Name = ZINCpe00000ME3Vk.0
REMARK                            x       y       z     vdW  Elec       q    Type
REMARK                         _______ _______ _______ _____ _____    ______ ____
ROOT
ATOM      1  C   LIG    1        0.097   0.023   0.088  0.00  0.00    +0.500 C 
ATOM      2  N   LIG    1        1.124  -0.572   0.727  0.00  0.00    -0.610 N 
ATOM      3  C   LIG    1        2.118   0.223   1.462  0.00  0.00    +0.270 C 
ATOM      4  C   LIG    1        2.253  -0.362   2.877  0.00  0.00    +0.200 C 
ATOM      5  N   LIG    1        2.554  -1.797   2.781  0.00  0.00    -0.500 N 
ATOM      6  C   LIG    1        1.454  -2.530   2.141  0.00  0.00    +0.190 C 
ATOM      7  C   LIG    1        1.283  -2.034   0.702  0.00  0.00    +0.300 C 
ATOM      8  O   LIG    1       -0.767  -0.651  -0.430  0.00  0.00    -0.520 OA
ENDROOT
BRANCH   1  15
ATOM      9  C   LIG    1       -0.011   5.872   1.889  0.00  0.00    +0.100 C 
ATOM     10  C   LIG    1        0.117   4.384   2.089  0.00  0.00    +0.520 C 
ATOM     11  N   LIG    1       -0.548   3.536   1.281  0.00  0.00    -0.600 N 
ATOM     12  C   LIG    1       -1.482   4.045   0.268  0.00  0.00    +0.270 C 
ATOM     13  C   LIG    1       -1.094   3.465  -1.097  0.00  0.00    +0.030 C 
ATOM     14  C   LIG    1       -1.041   1.939  -1.001  0.00  0.00    +0.080 C 
ATOM     15  C   LIG    1        0.023   1.526   0.019  0.00  0.00    +0.110 C 
ATOM     16  C   LIG    1       -0.352   2.084   1.396  0.00  0.00    +0.270 C 
ATOM     17  O   LIG    1        0.819   3.950   2.978  0.00  0.00    -0.550 OA
BRANCH  15  18
ATOM     18  O   LIG    1        1.292   2.049  -0.378  0.00  0.00    -0.540 OA
ATOM     19  H   LIG    1        2.034   1.722   0.149  0.00  0.00    +0.380 HD
ENDBRANCH  15  18
ENDBRANCH   1  15
BRANCH   5  20
ATOM     20  C   LIG    1        2.849  -2.332   4.039  0.00  0.00    +0.050 A 
ATOM     21  C   LIG    1        1.877  -2.355   5.030  0.00  0.00    +0.010 A 
ATOM     22  C   LIG    1        2.170  -2.889   6.271  0.00  0.00    +0.010 A 
ATOM     23  C   LIG    1        3.432  -3.392   6.529  0.00  0.00    +0.050 A 
ATOM     24  C   LIG    1        4.404  -3.367   5.546  0.00  0.00    -0.010 A 
ATOM     25  C   LIG    1        4.117  -2.839   4.301  0.00  0.00    +0.130 A 
ATOM     26  F   LIG    1        5.068  -2.814   3.341  0.00  0.00    -0.130 F 
ENDBRANCH   5  20
TORSDOF 3
