REMARK  Name = ZINCkj000005gTId.1
REMARK                            x       y       z     vdW  Elec       q    Type
REMARK                         _______ _______ _______ _____ _____    ______ ____
ROOT
ATOM      1  N   LIG    1       -2.747   3.478  -1.403  0.00  0.00    -0.720 N 
ATOM      2  H   LIG    1       -3.180   3.696  -0.562  0.00  0.00    +0.420 HD
ENDROOT
BRANCH   1   3
ATOM      3  C   LIG    1       -3.252   3.969  -2.586  0.00  0.00    +0.490 A 
ATOM      4  C   LIG    1       -2.647   3.666  -3.790  0.00  0.00    -0.160 A 
ATOM      5  C   LIG    1       -3.187   4.181  -4.966  0.00  0.00    +0.270 A 
ATOM      6  N   LIG    1       -4.258   4.945  -4.929  0.00  0.00    -0.490 NA
ATOM      7  C   LIG    1       -4.855   5.247  -3.770  0.00  0.00    +0.490 A 
ATOM      8  N   LIG    1       -5.923   5.982  -3.477  0.00  0.00    -0.530 NA
ATOM      9  C   LIG    1       -6.121   5.981  -2.164  0.00  0.00    +0.510 A 
ATOM     10  N   LIG    1       -5.199   5.255  -1.581  0.00  0.00    -0.360 NA
ATOM     11  C   LIG    1       -2.541   3.861  -6.289  0.00  0.00    +0.170 C 
ATOM     12  N   LIG    1       -4.365   4.761  -2.591  0.00  0.00    -0.360 N 
ENDBRANCH   1   3
BRANCH   1  13
ATOM     13  C   LIG    1       -1.556   2.624  -1.413  0.00  0.00    +0.280 C 
BRANCH  13  14
ATOM     14  C   LIG    1       -1.207   2.218   0.020  0.00  0.00    +0.350 C 
BRANCH  14  20
ATOM     15  C   LIG    1        1.268   1.782  -0.001  0.00  0.00    +0.320 C 
ATOM     16  N   LIG    1        2.047   0.735  -0.013  0.00  0.00    -0.470 N 
ATOM     17  C   LIG    1        1.296  -0.376  -0.012  0.00  0.00    +0.240 C 
ATOM     18  C   LIG    1        0.002  -0.004   0.002  0.00  0.00    +0.260 C 
ATOM     19  H   LIG    1        3.017   0.757  -0.022  0.00  0.00    +0.470 HD
ATOM     20  N   LIG    1       -0.017   1.365   0.009  0.00  0.00    -0.410 N 
BRANCH  15  22
ATOM     21  C   LIG    1        1.986   3.673  -1.434  0.00  0.00    +0.080 C 
ATOM     22  C   LIG    1        1.725   3.217   0.003  0.00  0.00    +0.170 C 
ENDBRANCH  15  22
ENDBRANCH  14  20
ENDBRANCH  13  14
ENDBRANCH   1  13
TORSDOF 5
