REMARK  Name = ZINCpe000000XXTd.0
REMARK                            x       y       z     vdW  Elec       q    Type
REMARK                         _______ _______ _______ _____ _____    ______ ____
ROOT
ATOM      1  C   LIG    1       -5.237   1.223   6.266  0.00  0.00    +0.450 A 
ATOM      2  N   LIG    1       -6.309   1.305   7.016  0.00  0.00    -0.310 NA
ATOM      3  N   LIG    1       -6.147   0.378   8.058  0.00  0.00    -0.370 N 
ATOM      4  C   LIG    1       -4.957  -0.213   7.860  0.00  0.00    +0.490 A 
ATOM      5  N   LIG    1       -4.422   0.296   6.780  0.00  0.00    -0.520 NA
ENDROOT
BRANCH   1   7
ATOM      6  C   LIG    1       -3.843   1.800   4.427  0.00  0.00    +0.500 C 
ATOM      7  N   LIG    1       -4.988   1.977   5.114  0.00  0.00    -0.630 N 
ATOM      8  H   LIG    1       -5.641   2.627   4.811  0.00  0.00    +0.420 HD
ATOM      9  O   LIG    1       -3.027   0.987   4.807  0.00  0.00    -0.440 OA
BRANCH   6  10
ATOM     10  C   LIG    1       -3.575   2.612   3.186  0.00  0.00    +0.380 C 
BRANCH  10  14
ATOM     11  C   LIG    1       -0.013   1.086   0.008  0.00  0.00    +0.110 C 
ATOM     12  C   LIG    1       -0.718   1.572   1.248  0.00  0.00    -0.230 A 
ATOM     13  C   LIG    1       -2.043   1.824   1.363  0.00  0.00    +0.220 A 
ATOM     14  N   LIG    1       -2.274   2.236   2.627  0.00  0.00    -0.370 N 
ATOM     15  N   LIG    1       -1.050   2.246   3.308  0.00  0.00    -0.270 NA
ATOM     16  C   LIG    1       -0.118   1.848   2.481  0.00  0.00    +0.230 A 
ENDBRANCH  10  14
ENDBRANCH   6  10
ENDBRANCH   1   7
BRANCH   3  17
ATOM     17  C   LIG    1       -7.089   0.110   9.148  0.00  0.00    +0.360 C 
BRANCH  17  18
ATOM     18  C   LIG    1       -7.406   1.396   9.867  0.00  0.00    +0.500 C 
ATOM     19  N   LIG    1       -8.257   1.391  10.912  0.00  0.00    -0.600 N 
ATOM     20  C   LIG    1       -8.853   0.138  11.315  0.00  0.00    +0.270 C 
ATOM     21  C   LIG    1      -10.169  -0.090  10.543  0.00  0.00    -0.000 C 
ATOM     22  C   LIG    1      -11.207   0.837  11.018  0.00  0.00    +0.000 C 
ATOM     23  C   LIG    1      -10.885   2.311  10.792  0.00  0.00    +0.010 C 
ATOM     24  C   LIG    1      -10.040   2.819  11.933  0.00  0.00    +0.020 C 
ATOM     25  C   LIG    1       -8.546   2.668  11.594  0.00  0.00    +0.270 C 
ATOM     26  O   LIG    1       -6.895   2.434   9.504  0.00  0.00    -0.510 OA
ENDBRANCH  17  18
ENDBRANCH   3  17
TORSDOF 5
