REMARK  Name = ZINCpe00000cb3Ze.0
REMARK                            x       y       z     vdW  Elec       q    Type
REMARK                         _______ _______ _______ _____ _____    ______ ____
ROOT
ATOM      1  O   LIG    1       -4.155   3.036   6.319  0.00  0.00    -0.590 OA
ATOM      2  C   LIG    1       -4.821   2.810   5.327  0.00  0.00    +0.700 C 
ATOM      3  N   LIG    1       -4.225   2.716   4.122  0.00  0.00    -0.750 N 
ATOM      4  H   LIG    1       -4.756   2.535   3.330  0.00  0.00    +0.400 HD
ATOM      5  N   LIG    1       -6.156   2.655   5.432  0.00  0.00    -0.740 N 
ATOM      6  H   LIG    1       -6.687   2.474   4.641  0.00  0.00    +0.400 HD
ENDROOT
BRANCH   3   7
ATOM      7  C   LIG    1       -2.774   2.885   4.007  0.00  0.00    +0.310 C 
BRANCH   7   8
ATOM      8  C   LIG    1       -2.357   2.731   2.543  0.00  0.00    -0.020 C 
ATOM      9  C   LIG    1       -0.870   3.007   2.280  0.00  0.00    +0.330 C 
ATOM     10  N   LIG    1       -0.875   1.865   1.354  0.00  0.00    -1.060 NA
ATOM     11  C   LIG    1       -1.980   1.300   2.142  0.00  0.00    +0.310 C 
BRANCH  10  12
ATOM     12  S   LIG    1       -0.017   1.417   0.010  0.00  0.00    +2.790 S 
ATOM     13  F   LIG    1       -0.876   1.867  -1.276  0.00  0.00    -0.480 F 
ATOM     14  O   LIG    1        1.162   2.210   0.003  0.00  0.00    -0.940 OA
ATOM     15  O   LIG    1        0.002  -0.004   0.002  0.00  0.00    -0.940 OA
ENDBRANCH  10  12
ENDBRANCH   7   8
ENDBRANCH   3   7
BRANCH   5  16
ATOM     16  C   LIG    1       -6.804   2.757   6.742  0.00  0.00    +0.340 C 
BRANCH  16  17
ATOM     17  C   LIG    1       -8.288   2.546   6.586  0.00  0.00    -0.120 A 
ATOM     18  C   LIG    1       -9.119   3.627   6.353  0.00  0.00    +0.070 A 
ATOM     19  C   LIG    1      -10.478   3.435   6.204  0.00  0.00    -0.010 A 
ATOM     20  C   LIG    1      -11.012   2.157   6.299  0.00  0.00    +0.170 A 
ATOM     21  C   LIG    1      -10.177   1.075   6.539  0.00  0.00    +0.020 A 
ATOM     22  C   LIG    1       -8.817   1.272   6.681  0.00  0.00    +0.070 A 
BRANCH  20  23
ATOM     23  N   LIG    1      -12.393   1.960   6.155  0.00  0.00    -0.330 N 
ATOM     24  C   LIG    1      -13.314   2.923   5.925  0.00  0.00    +0.230 A 
ATOM     25  C   LIG    1      -14.525   2.324   5.847  0.00  0.00    -0.100 A 
ATOM     26  C   LIG    1      -14.340   0.951   6.044  0.00  0.00    +0.250 A 
ATOM     27  N   LIG    1      -13.063   0.732   6.228  0.00  0.00    -0.290 NA
ENDBRANCH  20  23
ENDBRANCH  16  17
ENDBRANCH   5  16
TORSDOF 6
