REMARK  Name = ZINCnE000001ShZB.1
REMARK                            x       y       z     vdW  Elec       q    Type
REMARK                         _______ _______ _______ _____ _____    ______ ____
ROOT
ATOM      1  C   LIG    1        2.356   1.220  -0.014  0.00  0.00    +0.380 A 
ATOM      2  N   LIG    1        3.527   1.778  -0.022  0.00  0.00    -0.550 NA
ATOM      3  C   LIG    1        4.578   0.970  -0.036  0.00  0.00    +0.130 A 
ATOM      4  C   LIG    1        4.295  -0.345  -0.040  0.00  0.00    -0.190 A 
ATOM      5  S   LIG    1        2.543  -0.531  -0.017  0.00  0.00    -0.020 S 
ENDROOT
BRANCH   3   6
ATOM      6  C   LIG    1        5.970   1.482  -0.046  0.00  0.00    +0.020 A 
ATOM      7  C   LIG    1        7.040   0.596  -0.165  0.00  0.00    +0.010 A 
ATOM      8  C   LIG    1        8.334   1.074  -0.175  0.00  0.00    +0.010 A 
ATOM      9  C   LIG    1        8.575   2.431  -0.066  0.00  0.00    -0.040 A 
ATOM     10  C   LIG    1        7.515   3.320   0.053  0.00  0.00    +0.100 A 
ATOM     11  C   LIG    1        6.213   2.850   0.058  0.00  0.00    +0.020 A 
BRANCH  10  12
ATOM     12  O   LIG    1        7.756   4.654   0.159  0.00  0.00    -0.500 OA
ATOM     13  H   LIG    1        7.791   5.116  -0.690  0.00  0.00    +0.390 HD
ENDBRANCH  10  12
ENDBRANCH   3   6
BRANCH   1  16
ATOM     14  O   LIG    1        0.002  -0.004   0.002  0.00  0.00    -0.610 OA
ATOM     15  C   LIG    1       -0.014   1.209   0.009  0.00  0.00    +0.450 C 
ATOM     16  N   LIG    1        1.143   1.898   0.001  0.00  0.00    -0.660 NA
BRANCH  15  17
ATOM     17  C   LIG    1       -1.330   1.944   0.019  0.00  0.00    +0.060 C 
BRANCH  17  18
ATOM     18  C   LIG    1       -2.479   0.934   0.019  0.00  0.00    +0.090 C 
BRANCH  18  19
ATOM     19  C   LIG    1       -3.794   1.670   0.029  0.00  0.00    -0.030 A 
ATOM     20  C   LIG    1       -4.411   2.005   1.225  0.00  0.00    -0.040 A 
ATOM     21  C   LIG    1       -5.614   2.683   1.195  0.00  0.00    +0.250 A 
ATOM     22  N   LIG    1       -6.180   3.003   0.048  0.00  0.00    -0.500 NA
ATOM     23  C   LIG    1       -5.625   2.697  -1.109  0.00  0.00    +0.250 A 
ATOM     24  C   LIG    1       -4.419   2.023  -1.157  0.00  0.00    -0.040 A 
ENDBRANCH  18  19
ENDBRANCH  17  18
ENDBRANCH  15  17
ENDBRANCH   1  16
TORSDOF 6
