REMARK  Name = ZINCrH000004vKGT.0
REMARK                            x       y       z     vdW  Elec       q    Type
REMARK                         _______ _______ _______ _____ _____    ______ ____
ROOT
ATOM      1  C   LIG    1        1.311  -0.391  -0.013  0.00  0.00    +0.500 A 
ATOM      2  N   LIG    1        2.087   0.662  -0.014  0.00  0.00    -0.470 NA
ATOM      3  C   LIG    1        1.328   1.789  -0.001  0.00  0.00    +0.060 A 
ATOM      4  C   LIG    1        1.632   3.152   0.003  0.00  0.00    +0.060 A 
ATOM      5  C   LIG    1        0.615   4.080   0.018  0.00  0.00    +0.000 A 
ATOM      6  C   LIG    1       -0.711   3.671   0.028  0.00  0.00    +0.020 A 
ATOM      7  C   LIG    1       -1.028   2.328   0.029  0.00  0.00    +0.010 A 
ATOM      8  C   LIG    1       -0.017   1.380   0.010  0.00  0.00    +0.050 A 
ATOM      9  N   LIG    1        0.002  -0.004   0.002  0.00  0.00    -0.500 N 
ENDROOT
BRANCH   9  10
ATOM     10  C   LIG    1       -1.166  -0.889   0.008  0.00  0.00    +0.250 C 
ATOM     11  C   LIG    1       -1.125  -1.778   1.253  0.00  0.00    +0.010 C 
ATOM     12  C   LIG    1       -2.344  -2.702   1.259  0.00  0.00    +0.020 C 
ATOM     13  C   LIG    1       -2.327  -3.579   0.005  0.00  0.00    +0.000 C 
ATOM     14  C   LIG    1       -2.368  -2.689  -1.239  0.00  0.00    +0.020 C 
ATOM     15  C   LIG    1       -1.148  -1.765  -1.246  0.00  0.00    +0.010 C 
ENDBRANCH   9  10
BRANCH   1  17
ATOM     16  C   LIG    1        3.073  -1.971  -0.038  0.00  0.00    +0.500 C 
ATOM     17  N   LIG    1        1.752  -1.704  -0.024  0.00  0.00    -0.650 N 
ATOM     18  H   LIG    1        1.110  -2.431  -0.022  0.00  0.00    +0.410 HD
ATOM     19  O   LIG    1        3.875  -1.061  -0.041  0.00  0.00    -0.440 OA
BRANCH  16  20
ATOM     20  C   LIG    1        3.553  -3.399  -0.051  0.00  0.00    +0.070 C 
BRANCH  20  24
ATOM     21  O   LIG    1        7.165  -1.060  -1.094  0.00  0.00    -0.540 OA
ATOM     22  C   LIG    1        6.979  -2.258  -1.138  0.00  0.00    +0.520 C 
ATOM     23  C   LIG    1        5.584  -2.799  -1.370  0.00  0.00    +0.050 C 
ATOM     24  C   LIG    1        5.083  -3.423  -0.066  0.00  0.00    +0.020 C 
ATOM     25  C   LIG    1        5.561  -4.858   0.062  0.00  0.00    +0.020 C 
ATOM     26  C   LIG    1        7.064  -4.990   0.231  0.00  0.00    +0.010 C 
ATOM     27  C   LIG    1        7.796  -4.551  -1.039  0.00  0.00    +0.280 C 
ATOM     28  N   LIG    1        8.006  -3.095  -0.982  0.00  0.00    -0.730 N 
ATOM     29  H   LIG    1        8.897  -2.742  -0.830  0.00  0.00    +0.400 HD
ENDBRANCH  20  24
ENDBRANCH  16  20
ENDBRANCH   1  17
TORSDOF 4
