REMARK  Name = ZINCtV00000L6lce.0
REMARK                            x       y       z     vdW  Elec       q    Type
REMARK                         _______ _______ _______ _____ _____    ______ ____
ROOT
ATOM      1  N   LIG    1        6.235   2.813  -1.188  0.00  0.00    -0.470 N 
ATOM      2  C   LIG    1        5.677   2.162  -0.149  0.00  0.00    +0.540 C 
ATOM      3  O   LIG    1        6.207   1.168   0.299  0.00  0.00    -0.440 OA
ENDROOT
BRANCH   1   8
ATOM      4  C   LIG    1        9.679  -0.515  -2.034  0.00  0.00    +0.160 C 
ATOM      5  C   LIG    1        8.958   0.792  -2.241  0.00  0.00    +0.100 A 
ATOM      6  C   LIG    1        9.348   1.696  -3.142  0.00  0.00    -0.100 A 
ATOM      7  S   LIG    1        8.238   3.061  -3.062  0.00  0.00    +0.140 S 
ATOM      8  C   LIG    1        7.359   2.287  -1.816  0.00  0.00    +0.270 A 
ATOM      9  N   LIG    1        7.891   1.136  -1.546  0.00  0.00    -0.470 NA
ENDBRANCH   1   8
BRANCH   1  10
ATOM     10  C   LIG    1        5.682   4.020  -1.637  0.00  0.00    +0.100 A 
ATOM     11  C   LIG    1        4.516   4.013  -2.391  0.00  0.00    +0.020 A 
ATOM     12  C   LIG    1        3.971   5.204  -2.828  0.00  0.00    +0.030 A 
ATOM     13  C   LIG    1        4.591   6.402  -2.523  0.00  0.00    +0.030 A 
ATOM     14  C   LIG    1        5.755   6.412  -1.778  0.00  0.00    +0.040 A 
ATOM     15  C   LIG    1        6.302   5.224  -1.334  0.00  0.00    +0.030 A 
ENDBRANCH   1  10
BRANCH   2  16
ATOM     16  C   LIG    1        4.394   2.670   0.458  0.00  0.00    +0.050 C 
BRANCH  16  17
ATOM     17  C   LIG    1        4.710   3.705   1.507  0.00  0.00    -0.090 A 
ATOM     18  C   LIG    1        4.280   5.009   1.342  0.00  0.00    +0.020 A 
ATOM     19  C   LIG    1        4.566   5.958   2.306  0.00  0.00    +0.010 A 
ATOM     20  C   LIG    1        5.289   5.605   3.430  0.00  0.00    +0.020 A 
ATOM     21  C   LIG    1        5.723   4.302   3.592  0.00  0.00    +0.010 A 
ATOM     22  C   LIG    1        5.433   3.353   2.630  0.00  0.00    +0.040 A 
ENDBRANCH  16  17
BRANCH  16  23
ATOM     23  S   LIG    1        3.498   1.290   1.221  0.00  0.00    -0.030 S 
BRANCH  23  24
ATOM     24  C   LIG    1        1.949   2.011   1.650  0.00  0.00    -0.100 A 
ATOM     25  C   LIG    1        1.022   1.284   2.386  0.00  0.00    +0.030 A 
ATOM     26  C   LIG    1       -0.194   1.851   2.716  0.00  0.00    +0.030 A 
ATOM     27  C   LIG    1       -0.484   3.144   2.323  0.00  0.00    +0.010 A 
ATOM     28  C   LIG    1        0.436   3.872   1.590  0.00  0.00    +0.020 A 
ATOM     29  C   LIG    1        1.652   3.309   1.253  0.00  0.00    -0.010 A 
ENDBRANCH  23  24
ENDBRANCH  16  23
ENDBRANCH   2  16
TORSDOF 6
