REMARK  Name = ZINCpk000000pH86.0
REMARK                            x       y       z     vdW  Elec       q    Type
REMARK                         _______ _______ _______ _____ _____    ______ ____
ROOT
ATOM      1  C   LIG    1       -0.130  -0.508  -1.437  0.00  0.00    +0.260 C 
ENDROOT
BRANCH   1   6
ATOM      2  C   LIG    1       -3.092  -4.175  -1.749  0.00  0.00    -0.010 C 
ATOM      3  C   LIG    1       -1.687  -4.060  -1.115  0.00  0.00    +0.280 C 
ATOM      4  N   LIG    1       -1.409  -2.606  -1.154  0.00  0.00    -0.620 N 
ATOM      5  C   LIG    1       -2.686  -1.941  -0.830  0.00  0.00    +0.230 C 
ATOM      6  C   LIG    1       -0.233  -2.011  -1.435  0.00  0.00    +0.520 C 
ATOM      7  O   LIG    1        0.743  -2.687  -1.686  0.00  0.00    -0.500 OA
ATOM      8  C   LIG    1       -3.814  -2.914  -1.220  0.00  0.00    +0.170 C 
BRANCH   2  10
ATOM      9  C   LIG    1       -3.141  -6.667  -1.915  0.00  0.00    +0.020 C 
ATOM     10  C   LIG    1       -3.802  -5.445  -1.275  0.00  0.00    +0.030 C 
ENDBRANCH   2  10
BRANCH   8  11
ATOM     11  O   LIG    1       -4.632  -2.342  -2.242  0.00  0.00    -0.560 OA
ATOM     12  H   LIG    1       -5.075  -1.523  -1.979  0.00  0.00    +0.380 HD
ENDBRANCH   8  11
ENDBRANCH   1   6
BRANCH   1  13
ATOM     13  N   LIG    1        1.048  -0.100  -2.207  0.00  0.00    -0.720 N 
ATOM     14  H   LIG    1        0.944   0.465  -2.988  0.00  0.00    +0.400 HD
ATOM     15  C   LIG    1        2.275  -0.510  -1.829  0.00  0.00    +0.520 C 
ATOM     16  O   LIG    1        2.404  -1.217  -0.852  0.00  0.00    -0.520 OA
ATOM     17  C   LIG    1        3.486  -0.091  -2.622  0.00  0.00    +0.080 C 
ENDBRANCH   1  13
BRANCH   1  18
ATOM     18  C   LIG    1        0.002  -0.004   0.002  0.00  0.00    +0.130 C 
BRANCH  18  19
ATOM     19  C   LIG    1       -0.018   1.503   0.010  0.00  0.00    -0.170 A 
ATOM     20  C   LIG    1        1.050   2.316   0.004  0.00  0.00    +0.240 A 
ATOM     21  N   LIG    1        0.642   3.622   0.015  0.00  0.00    -0.590 N 
ATOM     22  H   LIG    1        1.234   4.391   0.013  0.00  0.00    +0.420 HD
ATOM     23  C   LIG    1       -0.734   3.683   0.028  0.00  0.00    +0.100 A 
ATOM     24  C   LIG    1       -1.646   4.733   0.041  0.00  0.00    -0.010 A 
ATOM     25  C   LIG    1       -2.997   4.465   0.052  0.00  0.00    +0.030 A 
ATOM     26  C   LIG    1       -3.460   3.157   0.049  0.00  0.00    -0.020 A 
ATOM     27  C   LIG    1       -2.581   2.110   0.037  0.00  0.00    +0.050 A 
ATOM     28  C   LIG    1       -1.208   2.358   0.020  0.00  0.00    -0.100 A 
ENDBRANCH  18  19
ENDBRANCH   1  18
TORSDOF 6
