REMARK  Name = ZINCrD0000072fkp.0
REMARK                            x       y       z     vdW  Elec       q    Type
REMARK                         _______ _______ _______ _____ _____    ______ ____
ROOT
ATOM      1  N   LIG    1       -3.041   3.093   2.297  0.00  0.00    -0.720 N 
ATOM      2  H   LIG    1       -2.668   3.521   1.511  0.00  0.00    +0.400 HD
ATOM      3  C   LIG    1       -3.672   3.831   3.231  0.00  0.00    +0.520 C 
ATOM      4  O   LIG    1       -4.139   3.296   4.214  0.00  0.00    -0.510 OA
ENDROOT
BRANCH   1   5
ATOM      5  C   LIG    1       -2.918   1.643   2.470  0.00  0.00    +0.270 C 
BRANCH   5   6
ATOM      6  C   LIG    1       -2.164   1.050   1.278  0.00  0.00    +0.030 C 
BRANCH   6   7
ATOM      7  C   LIG    1       -2.144  -0.453   1.393  0.00  0.00    -0.080 A 
ATOM      8  C   LIG    1       -1.553  -1.054   2.489  0.00  0.00    +0.010 A 
ATOM      9  C   LIG    1       -1.539  -2.432   2.597  0.00  0.00    +0.000 A 
ATOM     10  C   LIG    1       -2.108  -3.209   1.605  0.00  0.00    +0.000 A 
ATOM     11  C   LIG    1       -2.694  -2.608   0.507  0.00  0.00    +0.000 A 
ATOM     12  C   LIG    1       -2.712  -1.230   0.401  0.00  0.00    +0.010 A 
ENDBRANCH   6   7
BRANCH   6  14
ATOM     13  C   LIG    1       -0.013   1.086   0.008  0.00  0.00    +0.020 C 
ATOM     14  C   LIG    1       -0.729   1.579   1.267  0.00  0.00    +0.020 C 
ENDBRANCH   6  14
ENDBRANCH   5   6
ENDBRANCH   1   5
BRANCH   3  15
ATOM     15  C   LIG    1       -3.799   5.322   3.054  0.00  0.00    +0.270 C 
BRANCH  15  16
ATOM     16  O   LIG    1       -4.514   5.885   4.185  0.00  0.00    -0.320 OA
BRANCH  16  17
ATOM     17  C   LIG    1       -4.713   7.218   4.181  0.00  0.00    +0.510 C 
ATOM     18  O   LIG    1       -4.301   7.891   3.257  0.00  0.00    -0.480 OA
BRANCH  17  19
ATOM     19  C   LIG    1       -5.433   7.860   5.299  0.00  0.00    -0.080 A 
ATOM     20  C   LIG    1       -5.914   7.089   6.359  0.00  0.00    +0.110 A 
ATOM     21  C   LIG    1       -6.581   7.697   7.403  0.00  0.00    +0.070 A 
ATOM     22  C   LIG    1       -6.784   9.065   7.396  0.00  0.00    +0.090 A 
ATOM     23  C   LIG    1       -6.315   9.835   6.345  0.00  0.00    -0.050 A 
ATOM     24  C   LIG    1       -6.540  11.325   6.346  0.00  0.00    +0.120 C 
ATOM     25  C   LIG    1       -5.641   9.241   5.298  0.00  0.00    +0.030 A 
BRANCH  25  26
ATOM     26  N   LIG    1       -5.141  10.066   4.176  0.00  0.00    +0.030 N 
ATOM     27  O   LIG    1       -4.021  10.543   4.223  0.00  0.00    -0.130 OA
ATOM     28  O   LIG    1       -5.848  10.267   3.205  0.00  0.00    -0.130 OA
ENDBRANCH  25  26
ENDBRANCH  17  19
ENDBRANCH  16  17
ENDBRANCH  15  16
ENDBRANCH   3  15
TORSDOF 9
