REMARK  Name = ZINCrH00000tj1ng.0
REMARK                            x       y       z     vdW  Elec       q    Type
REMARK                         _______ _______ _______ _____ _____    ______ ____
ROOT
ATOM      1  C   LIG    1        4.754   1.957  -0.318  0.00  0.00    +0.120 A 
ATOM      2  C   LIG    1        5.071   0.659   0.060  0.00  0.00    +0.010 A 
ATOM      3  C   LIG    1        6.377   0.218  -0.012  0.00  0.00    +0.050 A 
ATOM      4  C   LIG    1        7.376   1.075  -0.454  0.00  0.00    +0.150 A 
ATOM      5  C   LIG    1        7.061   2.375  -0.828  0.00  0.00    -0.010 A 
ATOM      6  C   LIG    1        5.754   2.815  -0.760  0.00  0.00    +0.050 A 
ENDROOT
BRANCH   4   7
ATOM      7  N   LIG    1        8.703   0.629  -0.522  0.00  0.00    -0.680 N 
ATOM      8  H   LIG    1        9.431   1.268  -0.487  0.00  0.00    +0.400 HD
ATOM      9  C   LIG    1        8.966  -0.688  -0.636  0.00  0.00    +0.710 C 
ATOM     10  N   LIG    1       10.230  -1.107  -0.837  0.00  0.00    -0.630 N 
ATOM     11  C   LIG    1       11.372  -0.181  -0.733  0.00  0.00    +0.240 C 
ATOM     12  C   LIG    1       12.431  -0.799   0.184  0.00  0.00    +0.220 C 
ATOM     13  O   LIG    1       12.722  -2.135  -0.241  0.00  0.00    -0.370 OA
ATOM     14  C   LIG    1       11.596  -3.008  -0.187  0.00  0.00    +0.140 C 
ATOM     15  C   LIG    1       11.978  -4.434  -0.575  0.00  0.00    +0.040 C 
ATOM     16  C   LIG    1       10.745  -5.329  -0.430  0.00  0.00    +0.020 C 
ATOM     17  C   LIG    1        9.645  -4.825  -1.365  0.00  0.00    +0.000 C 
ATOM     18  C   LIG    1        9.282  -3.378  -1.016  0.00  0.00    +0.070 C 
ATOM     19  C   LIG    1       10.529  -2.508  -1.161  0.00  0.00    +0.210 C 
ATOM     20  O   LIG    1        8.062  -1.497  -0.557  0.00  0.00    -0.560 OA
ENDBRANCH   4   7
BRANCH   1  23
ATOM     21  O   LIG    1        3.682   3.643  -2.076  0.00  0.00    -0.500 OA
ATOM     22  C   LIG    1        2.953   3.249  -1.184  0.00  0.00    +0.610 C 
ATOM     23  N   LIG    1        3.429   2.403  -0.249  0.00  0.00    -0.660 N 
ATOM     24  H   LIG    1        2.853   2.103   0.471  0.00  0.00    +0.420 HD
BRANCH  22  25
ATOM     25  C   LIG    1        1.558   3.696  -1.127  0.00  0.00    -0.090 A 
ATOM     26  C   LIG    1        0.951   4.547  -2.006  0.00  0.00    +0.050 A 
ATOM     27  C   LIG    1       -0.374   4.700  -1.569  0.00  0.00    -0.070 A 
ATOM     28  C   LIG    1       -0.519   3.938  -0.462  0.00  0.00    +0.210 A 
ATOM     29  O   LIG    1        0.648   3.337  -0.197  0.00  0.00    -0.170 OA
ENDBRANCH  22  25
ENDBRANCH   1  23
TORSDOF 3
