REMARK  Name = ZINCrH000004mUEC.0
REMARK                            x       y       z     vdW  Elec       q    Type
REMARK                         _______ _______ _______ _____ _____    ______ ____
ROOT
ATOM      1  C   LIG    1        2.558   3.819  -0.002  0.00  0.00    +0.520 C 
ATOM      2  N   LIG    1        1.313   3.303   0.007  0.00  0.00    -0.620 N 
ATOM      3  H   LIG    1        0.544   3.894   0.018  0.00  0.00    +0.430 HD
ATOM      4  O   LIG    1        3.520   3.080  -0.015  0.00  0.00    -0.470 OA
ENDROOT
BRANCH   2   5
ATOM      5  C   LIG    1        1.131   1.926   0.002  0.00  0.00    +0.280 A 
ATOM      6  N   LIG    1       -0.016   1.321   0.009  0.00  0.00    -0.500 NA
ATOM      7  C   LIG    1        0.002  -0.004   0.002  0.00  0.00    +0.120 A 
ATOM      8  C   LIG    1        1.225  -0.564  -0.013  0.00  0.00    -0.100 A 
ATOM      9  S   LIG    1        2.423   0.729  -0.017  0.00  0.00    +0.230 S 
BRANCH   7  10
ATOM     10  C   LIG    1       -1.240  -0.814   0.009  0.00  0.00    -0.010 A 
ATOM     11  C   LIG    1       -1.170  -2.202   0.105  0.00  0.00    +0.100 A 
ATOM     12  C   LIG    1       -2.330  -2.951   0.112  0.00  0.00    +0.040 A 
ATOM     13  C   LIG    1       -3.560  -2.325   0.023  0.00  0.00    +0.110 A 
ATOM     14  C   LIG    1       -3.636  -0.947  -0.073  0.00  0.00    -0.040 A 
ATOM     15  C   LIG    1       -2.484  -0.189  -0.075  0.00  0.00    +0.130 A 
BRANCH  14  16
ATOM     16  N   LIG    1       -4.957  -0.285  -0.168  0.00  0.00    +0.030 N 
ATOM     17  O   LIG    1       -5.025   0.928  -0.253  0.00  0.00    -0.160 OA
ATOM     18  O   LIG    1       -5.975  -0.953  -0.162  0.00  0.00    -0.160 OA
ENDBRANCH  14  16
ENDBRANCH   7  10
ENDBRANCH   2   5
BRANCH   1  19
ATOM     19  C   LIG    1        2.756   5.313   0.004  0.00  0.00    +0.270 C 
BRANCH  19  20
ATOM     20  O   LIG    1        4.154   5.609  -0.007  0.00  0.00    -0.290 OA
BRANCH  20  24
ATOM     21  C   LIG    1        5.225   9.595   0.003  0.00  0.00    +0.100 A 
ATOM     22  C   LIG    1        6.205   8.614  -0.011  0.00  0.00    +0.030 A 
ATOM     23  C   LIG    1        5.847   7.280  -0.015  0.00  0.00    +0.040 A 
ATOM     24  C   LIG    1        4.507   6.922  -0.004  0.00  0.00    +0.090 A 
ATOM     25  C   LIG    1        3.527   7.904   0.005  0.00  0.00    -0.040 A 
ATOM     26  C   LIG    1        3.885   9.237   0.014  0.00  0.00    -0.040 A 
BRANCH  21  28
ATOM     27  C   LIG    1        4.518  11.866   0.021  0.00  0.00    +0.250 C 
ATOM     28  O   LIG    1        5.579  10.908   0.006  0.00  0.00    -0.320 OA
ENDBRANCH  21  28
ENDBRANCH  20  24
ENDBRANCH  19  20
ENDBRANCH   1  19
TORSDOF 7
