REMARK  Name = ZINCrg000000qXos.0
REMARK                            x       y       z     vdW  Elec       q    Type
REMARK                         _______ _______ _______ _____ _____    ______ ____
ROOT
ATOM      1  N   LIG    1       -7.244  -1.965   1.423  0.00  0.00    -0.740 N 
ATOM      2  H   LIG    1       -7.537  -1.493   2.218  0.00  0.00    +0.400 HD
ATOM      3  C   LIG    1       -6.126  -1.573   0.779  0.00  0.00    +0.710 C 
ATOM      4  N   LIG    1       -5.416  -0.525   1.241  0.00  0.00    -0.660 N 
ATOM      5  H   LIG    1       -5.708  -0.053   2.036  0.00  0.00    +0.410 HD
ATOM      6  O   LIG    1       -5.759  -2.165  -0.217  0.00  0.00    -0.580 OA
ENDROOT
BRANCH   4   7
ATOM      7  C   LIG    1       -4.248  -0.116   0.569  0.00  0.00    +0.030 A 
ATOM      8  C   LIG    1       -3.442   0.918   0.923  0.00  0.00    +0.190 A 
ATOM      9  N   LIG    1       -2.430   0.977   0.019  0.00  0.00    -0.370 N 
ATOM     10  N   LIG    1       -2.628  -0.046  -0.917  0.00  0.00    -0.250 NA
ATOM     11  C   LIG    1       -3.710  -0.703  -0.586  0.00  0.00    +0.260 A 
BRANCH   9  12
ATOM     12  C   LIG    1       -1.330   1.944   0.019  0.00  0.00    +0.380 C 
BRANCH  12  13
ATOM     13  C   LIG    1       -0.014   1.209   0.009  0.00  0.00    +0.500 C 
ATOM     14  N   LIG    1        1.143   1.898   0.001  0.00  0.00    -0.700 N 
ATOM     15  H   LIG    1        1.130   2.868   0.007  0.00  0.00    +0.400 HD
ATOM     16  O   LIG    1        0.002  -0.004   0.002  0.00  0.00    -0.500 OA
BRANCH  14  17
ATOM     17  C   LIG    1        2.422   1.183  -0.015  0.00  0.00    +0.220 C 
ATOM     18  C   LIG    1        3.526   1.689   0.916  0.00  0.00    +0.010 C 
ATOM     19  C   LIG    1        3.634   1.916  -0.594  0.00  0.00    +0.020 C 
ENDBRANCH  14  17
ENDBRANCH  12  13
ENDBRANCH   9  12
ENDBRANCH   4   7
BRANCH   1  20
ATOM     20  C   LIG    1       -8.016  -3.104   0.921  0.00  0.00    +0.270 C 
BRANCH  20  21
ATOM     21  C   LIG    1       -9.227  -3.338   1.827  0.00  0.00    +0.260 C 
BRANCH  21  26
ATOM     22  C   LIG    1      -11.834  -5.377   0.003  0.00  0.00    +0.130 A 
ATOM     23  C   LIG    1      -11.478  -6.667   0.367  0.00  0.00    -0.070 A 
ATOM     24  C   LIG    1      -10.396  -6.874   1.202  0.00  0.00    +0.060 A 
ATOM     25  C   LIG    1       -9.669  -5.797   1.673  0.00  0.00    -0.030 A 
ATOM     26  C   LIG    1      -10.022  -4.510   1.311  0.00  0.00    -0.080 A 
ATOM     27  C   LIG    1      -11.105  -4.297   0.481  0.00  0.00    -0.010 A 
BRANCH  22  29
ATOM     28  C   LIG    1      -13.605  -6.328  -1.266  0.00  0.00    +0.250 C 
ATOM     29  O   LIG    1      -12.898  -5.170  -0.817  0.00  0.00    -0.320 OA
ENDBRANCH  22  29
ENDBRANCH  21  26
BRANCH  21  30
ATOM     30  O   LIG    1       -8.782  -3.613   3.156  0.00  0.00    -0.550 OA
ATOM     31  H   LIG    1       -8.217  -4.395   3.228  0.00  0.00    +0.380 HD
ENDBRANCH  21  30
ENDBRANCH  20  21
ENDBRANCH   1  20
TORSDOF 9
