REMARK  Name = ZINCrD000000CzBG.0
REMARK                            x       y       z     vdW  Elec       q    Type
REMARK                         _______ _______ _______ _____ _____    ______ ____
ROOT
ATOM      1  O   LIG    1        7.332   1.745  -3.643  0.00  0.00    -0.510 OA
ATOM      2  C   LIG    1        8.132   1.241  -2.877  0.00  0.00    +0.590 C 
ATOM      3  N   LIG    1        8.731   1.997  -1.935  0.00  0.00    -0.610 N 
ATOM      4  C   LIG    1        8.374   3.414  -1.774  0.00  0.00    +0.290 C 
ATOM      5  C   LIG    1        7.952   3.645  -0.313  0.00  0.00    +0.270 C 
ATOM      6  N   LIG    1        8.979   3.070   0.567  0.00  0.00    -0.610 N 
ATOM      7  C   LIG    1        9.341   1.655   0.402  0.00  0.00    +0.290 C 
ATOM      8  C   LIG    1        9.578   3.825   1.508  0.00  0.00    +0.560 C 
ATOM      9  O   LIG    1       10.492   3.367   2.165  0.00  0.00    -0.510 OA
ATOM     10  C   LIG    1        9.758   1.421  -1.055  0.00  0.00    +0.270 C 
ENDROOT
BRANCH   2  11
ATOM     11  C   LIG    1        8.445  -0.191  -2.977  0.00  0.00    -0.230 A 
ATOM     12  C   LIG    1        7.538  -1.157  -3.155  0.00  0.00    +0.120 A 
ATOM     13  C   LIG    1        8.049  -2.462  -3.225  0.00  0.00    -0.120 A 
ATOM     14  C   LIG    1        7.349  -3.682  -3.406  0.00  0.00    +0.150 A 
ATOM     15  C   LIG    1        8.031  -4.872  -3.449  0.00  0.00    +0.000 A 
ATOM     16  C   LIG    1        9.413  -4.898  -3.316  0.00  0.00    +0.090 A 
ATOM     17  C   LIG    1       10.113  -3.729  -3.139  0.00  0.00    +0.040 A 
ATOM     18  F   LIG    1        6.005  -3.672  -3.538  0.00  0.00    -0.130 F 
ATOM     19  C   LIG    1        9.442  -2.503  -3.092  0.00  0.00    -0.120 A 
ATOM     20  S   LIG    1       10.061  -0.868  -2.881  0.00  0.00    +0.160 S 
ENDBRANCH   2  11
BRANCH   8  21
ATOM     21  C   LIG    1        9.124   5.210   1.742  0.00  0.00    -0.160 A 
ATOM     22  C   LIG    1        7.760   5.508   1.757  0.00  0.00    +0.050 A 
ATOM     23  C   LIG    1        7.342   6.804   1.976  0.00  0.00    +0.000 A 
ATOM     24  C   LIG    1        8.270   7.812   2.180  0.00  0.00    +0.050 A 
ATOM     25  C   LIG    1        9.622   7.530   2.168  0.00  0.00    -0.010 A 
ATOM     26  C   LIG    1       10.059   6.232   1.955  0.00  0.00    +0.160 A 
BRANCH  26  27
ATOM     27  O   LIG    1       11.387   5.953   1.947  0.00  0.00    -0.480 OA
ATOM     28  H   LIG    1       11.800   6.028   1.076  0.00  0.00    +0.390 HD
ENDBRANCH  26  27
ENDBRANCH   8  21
TORSDOF 3
