REMARK  Name = ZINCpe000000XDZj.0
REMARK                            x       y       z     vdW  Elec       q    Type
REMARK                         _______ _______ _______ _____ _____    ______ ____
ROOT
ATOM      1  C   LIG    1       -6.063   2.497  -7.450  0.00  0.00    +0.170 C 
ATOM      2  C   LIG    1       -4.935   2.562  -6.452  0.00  0.00    +0.200 A 
ATOM      3  N   LIG    1       -4.914   1.733  -5.437  0.00  0.00    -0.430 NA
ATOM      4  C   LIG    1       -3.920   1.773  -4.537  0.00  0.00    +0.260 A 
ATOM      5  C   LIG    1       -3.662   1.029  -3.397  0.00  0.00    +0.000 A 
ATOM      6  C   LIG    1       -2.471   1.508  -2.840  0.00  0.00    +0.080 A 
ATOM      7  N   LIG    1       -2.021   2.499  -3.593  0.00  0.00    -0.240 NA
ATOM      8  N   LIG    1       -2.902   2.685  -4.665  0.00  0.00    -0.300 N 
ATOM      9  C   LIG    1       -2.902   3.559  -5.715  0.00  0.00    +0.090 A 
ATOM     10  C   LIG    1       -3.912   3.508  -6.616  0.00  0.00    +0.050 A 
ENDROOT
BRANCH   6  11
ATOM     11  C   LIG    1       -1.827   0.996  -1.611  0.00  0.00    +0.640 C 
ATOM     12  N   LIG    1       -0.676   1.545  -1.175  0.00  0.00    -0.490 N 
ATOM     13  C   LIG    1       -0.013   1.086   0.008  0.00  0.00    +0.360 C 
ATOM     14  C   LIG    1       -0.710   1.573   1.316  0.00  0.00    -0.320 C 
ATOM     15  S   LIG    1       -1.272   3.292   1.030  0.00  0.00    +2.410 S 
ATOM     16  C   LIG    1        0.029   4.045   0.059  0.00  0.00    -0.370 C 
ATOM     17  C   LIG    1       -0.328   3.866  -1.427  0.00  0.00    +0.280 C 
ATOM     18  O   LIG    1       -2.447   3.242   0.232  0.00  0.00    -0.930 OA
ATOM     19  O   LIG    1       -1.325   3.955   2.286  0.00  0.00    -0.940 OA
ATOM     20  O   LIG    1       -0.036   2.627  -1.868  0.00  0.00    -0.100 OA
ATOM     21  O   LIG    1       -2.335   0.081  -0.994  0.00  0.00    -0.480 OA
ENDBRANCH   6  11
BRANCH   9  22
ATOM     22  C   LIG    1       -1.791   4.566  -5.870  0.00  0.00    +0.520 C 
ATOM     23  F   LIG    1       -0.569   3.898  -5.994  0.00  0.00    -0.150 F 
ATOM     24  F   LIG    1       -1.756   5.398  -4.745  0.00  0.00    -0.160 F 
ATOM     25  F   LIG    1       -2.018   5.339  -7.014  0.00  0.00    -0.160 F 
ENDBRANCH   9  22
TORSDOF 2
