REMARK  Name = ZINCqH0000008VXM.0
REMARK                            x       y       z     vdW  Elec       q    Type
REMARK                         _______ _______ _______ _____ _____    ______ ____
ROOT
ATOM      1  C   LIG    1        2.976   3.614   0.355  0.00  0.00    +0.070 C 
ATOM      2  C   LIG    1        1.494   3.529  -0.014  0.00  0.00    +0.180 C 
ENDROOT
BRANCH   2   3
ATOM      3  N   LIG    1        1.127   2.126  -0.248  0.00  0.00    -0.510 NA
ATOM      4  C   LIG    1       -0.327   1.981  -0.408  0.00  0.00    +0.190 C 
ATOM      5  C   LIG    1       -0.659   0.522  -0.728  0.00  0.00    +0.210 C 
ATOM      6  N   LIG    1       -0.163  -0.339   0.355  0.00  0.00    -0.490 N 
ATOM      7  C   LIG    1        1.290  -0.195   0.515  0.00  0.00    +0.200 C 
ATOM      8  C   LIG    1        1.623   1.265   0.835  0.00  0.00    +0.200 C 
BRANCH   6   9
ATOM      9  C   LIG    1       -0.512  -1.675   0.132  0.00  0.00    +0.100 A 
ATOM     10  C   LIG    1       -1.241  -2.024  -0.997  0.00  0.00    +0.000 A 
ATOM     11  C   LIG    1       -1.581  -3.345  -1.217  0.00  0.00    +0.010 A 
ATOM     12  C   LIG    1       -1.204  -4.319  -0.307  0.00  0.00    +0.070 A 
ATOM     13  C   LIG    1       -0.483  -3.972   0.822  0.00  0.00    +0.010 A 
ATOM     14  F   LIG    1       -1.542  -5.609  -0.522  0.00  0.00    -0.140 F 
ATOM     15  C   LIG    1       -0.136  -2.653   1.044  0.00  0.00    +0.030 A 
ENDBRANCH   6   9
ENDBRANCH   2   3
BRANCH   2  16
ATOM     16  C   LIG    1        0.662   4.085   1.113  0.00  0.00    +0.490 C 
ATOM     17  N   LIG    1        0.357   5.397   1.143  0.00  0.00    -0.660 N 
ATOM     18  H   LIG    1        0.602   5.969   0.398  0.00  0.00    +0.420 HD
ATOM     19  O   LIG    1        0.268   3.350   1.994  0.00  0.00    -0.500 OA
BRANCH  17  20
ATOM     20  C   LIG    1       -0.313   5.936   2.248  0.00  0.00    +0.120 A 
ATOM     21  C   LIG    1       -0.311   5.260   3.460  0.00  0.00    +0.070 A 
ATOM     22  C   LIG    1       -0.968   5.796   4.551  0.00  0.00    +0.060 A 
ATOM     23  C   LIG    1       -1.638   7.001   4.433  0.00  0.00    -0.030 A 
ATOM     24  C   LIG    1       -1.648   7.676   3.225  0.00  0.00    +0.030 A 
ATOM     25 CL   LIG    1       -2.469   7.667   5.805  0.00  0.00    -0.050 Cl
ATOM     26  C   LIG    1       -0.987   7.147   2.132  0.00  0.00    +0.080 A 
ATOM     27  F   LIG    1       -0.997   7.805   0.952  0.00  0.00    -0.130 F 
ENDBRANCH  17  20
ENDBRANCH   2  16
TORSDOF 4
