REMARK  Name = ZINCrH000004tKjo.0
REMARK                            x       y       z     vdW  Elec       q    Type
REMARK                         _______ _______ _______ _____ _____    ______ ____
ROOT
ATOM      1  C   LIG    1       -0.110   6.262   0.074  0.00  0.00    +0.450 A 
ATOM      2  N   LIG    1        1.175   6.063   0.063  0.00  0.00    -0.590 NA
ATOM      3  C   LIG    1        1.733   4.832   0.063  0.00  0.00    +0.560 A 
ATOM      4  C   LIG    1        0.780   3.700   0.075  0.00  0.00    -0.230 A 
ATOM      5  C   LIG    1       -0.583   3.976   0.087  0.00  0.00    +0.050 A 
ATOM      6  S   LIG    1       -1.488   2.485   0.106  0.00  0.00    +0.180 S 
ATOM      7  C   LIG    1       -0.022   1.514   0.089  0.00  0.00    -0.200 A 
ATOM      8  C   LIG    1       -0.002  -0.004   0.093  0.00  0.00    +0.120 C 
ATOM      9  C   LIG    1        1.388  -0.482  -0.332  0.00  0.00    +0.030 C 
ATOM     10  C   LIG    1        2.442   0.255   0.501  0.00  0.00    +0.020 C 
ATOM     11  C   LIG    1        2.488   1.721   0.066  0.00  0.00    +0.110 C 
ATOM     12  C   LIG    1        1.073   2.285   0.077  0.00  0.00    -0.030 A 
ATOM     13  O   LIG    1        2.942   4.665   0.053  0.00  0.00    -0.480 OA
ATOM     14  N   LIG    1       -1.036   5.279   0.086  0.00  0.00    -0.590 N 
ATOM     15  H   LIG    1       -1.985   5.481   0.094  0.00  0.00    +0.430 HD
ENDROOT
BRANCH   1  16
ATOM     16  C   LIG    1       -0.600   7.688   0.072  0.00  0.00    +0.150 C 
BRANCH  16  17
ATOM     17  C   LIG    1        0.598   8.639   0.057  0.00  0.00    +0.120 C 
BRANCH  17  19
ATOM     18  O   LIG    1       -1.082  10.296   0.065  0.00  0.00    -0.520 OA
ATOM     19  C   LIG    1        0.108  10.064   0.055  0.00  0.00    +0.520 C 
ATOM     20  N   LIG    1        0.993  11.080   0.042  0.00  0.00    -0.670 N 
ATOM     21  H   LIG    1        1.944  10.897   0.099  0.00  0.00    +0.420 HD
BRANCH  20  22
ATOM     22  C   LIG    1        0.540  12.403  -0.054  0.00  0.00    +0.100 A 
ATOM     23  C   LIG    1       -0.652  12.774   0.551  0.00  0.00    +0.090 A 
ATOM     24  C   LIG    1       -1.096  14.080   0.460  0.00  0.00    +0.010 A 
ATOM     25  C   LIG    1       -0.357  15.016  -0.244  0.00  0.00    +0.120 A 
ATOM     26  C   LIG    1        0.831  14.648  -0.854  0.00  0.00    -0.020 A 
ATOM     27  F   LIG    1       -0.795  16.291  -0.335  0.00  0.00    -0.130 F 
ATOM     28  C   LIG    1        1.281  13.344  -0.760  0.00  0.00    +0.110 A 
ATOM     29  F   LIG    1        2.440  12.984  -1.355  0.00  0.00    -0.130 F 
ENDBRANCH  20  22
ENDBRANCH  17  19
ENDBRANCH  16  17
ENDBRANCH   1  16
TORSDOF 4
