REMARK  Name = ZINCrD000000DaNx.0
REMARK                            x       y       z     vdW  Elec       q    Type
REMARK                         _______ _______ _______ _____ _____    ______ ____
ROOT
ATOM      1  N   LIG    1       -2.391   3.854  -0.705  0.00  0.00    -0.700 N 
ATOM      2  H   LIG    1       -2.443   4.807  -0.535  0.00  0.00    +0.400 HD
ENDROOT
BRANCH   1  11
ATOM      3  C   LIG    1       -0.011   5.253   0.073  0.00  0.00    +0.020 A 
ATOM      4  C   LIG    1        1.154   5.865   0.433  0.00  0.00    +0.080 A 
ATOM      5  C   LIG    1        2.360   5.170   0.421  0.00  0.00    +0.090 A 
ATOM      6  C   LIG    1        2.412   3.859   0.051  0.00  0.00    +0.100 A 
ATOM      7  C   LIG    1        1.234   3.199  -0.324  0.00  0.00    +0.210 A 
ATOM      8  N   LIG    1        1.230   1.911  -0.697  0.00  0.00    -0.550 NA
ATOM      9  C   LIG    1        0.109   1.322  -1.043  0.00  0.00    +0.570 A 
ATOM     10  N   LIG    1       -1.059   1.945  -1.052  0.00  0.00    -0.580 NA
ATOM     11  C   LIG    1       -1.167   3.218  -0.696  0.00  0.00    +0.470 A 
ATOM     12  C   LIG    1        0.008   3.908  -0.312  0.00  0.00    -0.180 A 
BRANCH   3  14
ATOM     13  O   LIG    1       -1.500   6.858  -0.753  0.00  0.00    -0.110 OA
ATOM     14  N   LIG    1       -1.285   6.006   0.090  0.00  0.00    +0.010 N 
ATOM     15  O   LIG    1       -2.118   5.774   0.948  0.00  0.00    -0.150 OA
ENDBRANCH   3  14
ENDBRANCH   1  11
BRANCH   1  16
ATOM     16  C   LIG    1       -3.612   3.089  -0.971  0.00  0.00    +0.290 C 
BRANCH  16  17
ATOM     17  C   LIG    1       -4.821   4.026  -0.923  0.00  0.00    +0.110 C 
BRANCH  17  18
ATOM     18  C   LIG    1       -6.077   3.239  -1.196  0.00  0.00    -0.220 A 
ATOM     19  C   LIG    1       -6.850   2.627  -0.270  0.00  0.00    +0.240 A 
ATOM     20  N   LIG    1       -7.877   2.033  -0.919  0.00  0.00    -0.320 N 
ATOM     21  N   LIG    1       -7.728   2.290  -2.288  0.00  0.00    -0.290 NA
ATOM     22  C   LIG    1       -6.652   3.018  -2.452  0.00  0.00    +0.260 A 
BRANCH  20  23
ATOM     23  C   LIG    1       -8.909   1.292  -0.326  0.00  0.00    +0.160 A 
ATOM     24  C   LIG    1       -8.933   1.110   1.050  0.00  0.00    -0.010 A 
ATOM     25  C   LIG    1       -9.955   0.385   1.631  0.00  0.00    +0.040 A 
ATOM     26  C   LIG    1      -10.946  -0.170   0.843  0.00  0.00    +0.000 A 
ATOM     27  C   LIG    1      -10.922   0.005  -0.528  0.00  0.00    +0.040 A 
ATOM     28  C   LIG    1       -9.906   0.734  -1.115  0.00  0.00    +0.020 A 
ENDBRANCH  20  23
ENDBRANCH  17  18
ENDBRANCH  16  17
ENDBRANCH   1  16
TORSDOF 6
