REMARK  Name = ZINCpk00000kV9OS.0
REMARK                            x       y       z     vdW  Elec       q    Type
REMARK                         _______ _______ _______ _____ _____    ______ ____
ROOT
ATOM      1  C   LIG    1       -0.120   1.221  -0.134  0.00  0.00    +0.390 C 
ENDROOT
BRANCH   1   7
ATOM      2  C   LIG    1        2.598   0.063  -1.074  0.00  0.00    +0.360 C 
ATOM      3  N   LIG    1        2.378   1.428  -0.590  0.00  0.00    -0.360 N 
ATOM      4  N   LIG    1        3.352   2.428  -0.475  0.00  0.00    -0.280 NA
ATOM      5  C   LIG    1        2.778   3.505  -0.004  0.00  0.00    +0.240 A 
ATOM      6  C   LIG    1        1.421   3.227   0.193  0.00  0.00    -0.090 A 
ATOM      7  C   LIG    1        1.201   1.944  -0.178  0.00  0.00    +0.070 A 
ENDBRANCH   1   7
BRANCH   1   8
ATOM      8  C   LIG    1       -0.894   1.511  -1.393  0.00  0.00    +0.070 A 
ATOM      9  C   LIG    1       -1.670   2.596  -1.621  0.00  0.00    -0.090 A 
ATOM     10  C   LIG    1       -2.206   2.479  -2.908  0.00  0.00    +0.240 A 
ATOM     11  N   LIG    1       -1.768   1.364  -3.434  0.00  0.00    -0.280 NA
ATOM     12  N   LIG    1       -0.934   0.737  -2.499  0.00  0.00    -0.360 N 
ATOM     13  C   LIG    1       -0.232  -0.534  -2.686  0.00  0.00    +0.340 C 
ENDBRANCH   1   8
BRANCH   1  14
ATOM     14  N   LIG    1       -0.888   1.677   1.028  0.00  0.00    -0.690 N 
ATOM     15  H   LIG    1       -1.522   2.405   0.934  0.00  0.00    +0.420 HD
ATOM     16  C   LIG    1       -0.713   1.086   2.226  0.00  0.00    +0.580 C 
ATOM     17  O   LIG    1        0.082   0.174   2.343  0.00  0.00    -0.510 OA
BRANCH  16  18
ATOM     18  C   LIG    1       -1.491   1.548   3.403  0.00  0.00    +0.140 A 
ATOM     19  C   LIG    1       -1.319   0.944   4.648  0.00  0.00    +0.030 A 
ATOM     20  C   LIG    1       -2.071   1.415   5.716  0.00  0.00    +0.110 A 
ATOM     21  N   LIG    1       -2.917   2.411   5.519  0.00  0.00    -0.470 NA
ATOM     22  C   LIG    1       -3.055   2.960   4.327  0.00  0.00    +0.530 A 
ATOM     23  N   LIG    1       -2.360   2.550   3.288  0.00  0.00    -0.480 NA
BRANCH  20  24
ATOM     24  C   LIG    1       -1.923   0.798   7.083  0.00  0.00    +0.470 C 
ATOM     25  F   LIG    1       -1.571  -0.549   6.952  0.00  0.00    -0.190 F 
ATOM     26  F   LIG    1       -3.137   0.898   7.773  0.00  0.00    -0.180 F 
ENDBRANCH  20  24
ENDBRANCH  16  18
ENDBRANCH   1  14
TORSDOF 5
