REMARK  Name = ZINCrH000004uWSK.0
REMARK                            x       y       z     vdW  Elec       q    Type
REMARK                         _______ _______ _______ _____ _____    ______ ____
ROOT
ATOM      1  C   LIG    1        1.074   1.892   0.002  0.00  0.00    -0.010 A 
ATOM      2  C   LIG    1       -0.013   1.076   0.008  0.00  0.00    +0.090 A 
ATOM      3  C   LIG    1       -1.166   1.894   0.017  0.00  0.00    -0.150 A 
ATOM      4  C   LIG    1       -2.544   1.618   0.034  0.00  0.00    +0.200 A 
ATOM      5  C   LIG    1       -3.449   2.661   0.047  0.00  0.00    -0.120 A 
ATOM      6  C   LIG    1       -3.004   3.975   0.050  0.00  0.00    +0.090 A 
ATOM      7  C   LIG    1       -1.657   4.263   0.039  0.00  0.00    -0.050 A 
ATOM      8  C   LIG    1       -0.724   3.231   0.025  0.00  0.00    +0.160 A 
ATOM      9  N   LIG    1        0.651   3.209   0.012  0.00  0.00    -0.580 N 
ATOM     10  H   LIG    1        1.229   3.988   0.010  0.00  0.00    +0.420 HD
ENDROOT
BRANCH   1  12
ATOM     11  O   LIG    1        2.735   0.258  -0.022  0.00  0.00    -0.520 OA
ATOM     12  C   LIG    1        2.474   1.447  -0.013  0.00  0.00    +0.590 C 
ATOM     13  N   LIG    1        3.470   2.355  -0.018  0.00  0.00    -0.730 N 
ATOM     14  H   LIG    1        3.263   3.303  -0.011  0.00  0.00    +0.400 HD
BRANCH  13  15
ATOM     15  C   LIG    1        4.866   1.911  -0.034  0.00  0.00    +0.250 C 
ATOM     16  C   LIG    1        5.301   1.644  -1.476  0.00  0.00    +0.010 C 
ATOM     17  C   LIG    1        6.759   1.180  -1.492  0.00  0.00    +0.020 C 
ATOM     18  C   LIG    1        7.647   2.269  -0.885  0.00  0.00    -0.010 C 
ATOM     19  C   LIG    1        7.212   2.535   0.557  0.00  0.00    +0.170 C 
ATOM     20  C   LIG    1        5.754   2.999   0.573  0.00  0.00    +0.040 C 
BRANCH  19  21
ATOM     21  O   LIG    1        8.042   3.552   1.124  0.00  0.00    -0.570 OA
ATOM     22  H   LIG    1        8.982   3.325   1.146  0.00  0.00    +0.380 HD
ENDBRANCH  19  21
ENDBRANCH  13  15
ENDBRANCH   1  12
BRANCH   4  23
ATOM     23  O   LIG    1       -2.983   0.333   0.031  0.00  0.00    -0.300 OA
BRANCH  23  24
ATOM     24  C   LIG    1       -4.398   0.131   0.043  0.00  0.00    +0.240 C 
BRANCH  24  25
ATOM     25  C   LIG    1       -4.694  -1.346   0.038  0.00  0.00    -0.100 A 
ATOM     26  C   LIG    1       -4.847  -2.017  -1.162  0.00  0.00    +0.030 A 
ATOM     27  C   LIG    1       -5.114  -3.373  -1.166  0.00  0.00    +0.010 A 
ATOM     28  C   LIG    1       -5.239  -4.057   0.029  0.00  0.00    +0.010 A 
ATOM     29  C   LIG    1       -5.092  -3.385   1.228  0.00  0.00    +0.010 A 
ATOM     30  C   LIG    1       -4.820  -2.030   1.232  0.00  0.00    +0.030 A 
ENDBRANCH  24  25
ENDBRANCH  23  24
ENDBRANCH   4  23
TORSDOF 6
