REMARK  Name = ZINCrH000004pi3J.0
REMARK                            x       y       z     vdW  Elec       q    Type
REMARK                         _______ _______ _______ _____ _____    ______ ____
ROOT
ATOM      1  N   LIG    1       -1.191   1.867   0.018  0.00  0.00    -0.720 N 
ATOM      2  H   LIG    1       -1.204   2.837   0.023  0.00  0.00    +0.410 HD
ATOM      3  C   LIG    1       -0.014   1.209   0.009  0.00  0.00    +0.520 C 
ATOM      4  O   LIG    1        0.002  -0.004   0.002  0.00  0.00    -0.510 OA
ENDROOT
BRANCH   1   6
ATOM      5  C   LIG    1       -2.816   0.740   1.456  0.00  0.00    +0.060 C 
ATOM      6  C   LIG    1       -2.449   1.117   0.020  0.00  0.00    +0.350 C 
BRANCH   6   7
ATOM      7  C   LIG    1       -3.543   1.969  -0.571  0.00  0.00    +0.020 A 
ATOM      8  C   LIG    1       -4.497   1.526  -1.400  0.00  0.00    -0.020 A 
ATOM      9  C   LIG    1       -5.336   2.689  -1.717  0.00  0.00    -0.130 A 
ATOM     10  C   LIG    1       -6.468   2.887  -2.505  0.00  0.00    +0.060 A 
ATOM     11  C   LIG    1       -7.024   4.145  -2.593  0.00  0.00    +0.000 A 
ATOM     12  C   LIG    1       -6.462   5.208  -1.901  0.00  0.00    +0.050 A 
ATOM     13  C   LIG    1       -5.342   5.024  -1.118  0.00  0.00    +0.020 A 
ATOM     14  C   LIG    1       -4.766   3.765  -1.016  0.00  0.00    +0.060 A 
ATOM     15  O   LIG    1       -3.698   3.286  -0.347  0.00  0.00    -0.190 OA
ENDBRANCH   6   7
ENDBRANCH   1   6
BRANCH   3  16
ATOM     16  C   LIG    1        1.280   1.980   0.001  0.00  0.00    +0.240 C 
BRANCH  16  17
ATOM     17  O   LIG    1        2.379   1.066  -0.015  0.00  0.00    -0.280 OA
BRANCH  17  18
ATOM     18  C   LIG    1        3.627   1.602  -0.024  0.00  0.00    +0.160 A 
ATOM     19  C   LIG    1        3.788   2.982  -0.024  0.00  0.00    -0.070 A 
ATOM     20  C   LIG    1        5.053   3.530  -0.027  0.00  0.00    +0.100 A 
ATOM     21  C   LIG    1        6.173   2.696  -0.042  0.00  0.00    -0.070 A 
ATOM     22  C   LIG    1        6.006   1.310  -0.048  0.00  0.00    +0.130 A 
ATOM     23  C   LIG    1        4.738   0.770  -0.039  0.00  0.00    +0.000 A 
BRANCH  21  24
ATOM     24  C   LIG    1        7.530   3.279  -0.052  0.00  0.00    +0.220 A 
ATOM     25  N   LIG    1        8.663   2.616  -0.066  0.00  0.00    -0.280 NA
ATOM     26  N   LIG    1        9.643   3.450  -0.070  0.00  0.00    -0.290 NA
ATOM     27  C   LIG    1        9.179   4.668  -0.059  0.00  0.00    +0.400 A 
ATOM     28  O   LIG    1        7.837   4.592  -0.053  0.00  0.00    -0.230 OA
ENDBRANCH  21  24
ENDBRANCH  17  18
ENDBRANCH  16  17
ENDBRANCH   3  16
TORSDOF 6
