REMARK  Name = ZINCtV000002sQcD.0
REMARK                            x       y       z     vdW  Elec       q    Type
REMARK                         _______ _______ _______ _____ _____    ______ ____
ROOT
ATOM      1  N   LIG    1        9.711  -4.940  -0.186  0.00  0.00    -0.670 N 
ATOM      2  H   LIG    1        9.755  -4.374  -0.973  0.00  0.00    +0.410 HD
ATOM      3  C   LIG    1        9.000  -4.545   0.889  0.00  0.00    +0.530 C 
ATOM      4  O   LIG    1        8.985  -5.229   1.890  0.00  0.00    -0.490 OA
ENDROOT
BRANCH   1  10
ATOM      5  C   LIG    1        9.698  -7.334   0.132  0.00  0.00    -0.060 A 
ATOM      6  C   LIG    1       10.366  -8.543   0.144  0.00  0.00    +0.020 A 
ATOM      7  C   LIG    1       11.720  -8.589  -0.130  0.00  0.00    +0.010 A 
ATOM      8  C   LIG    1       12.409  -7.426  -0.423  0.00  0.00    +0.020 A 
ATOM      9  C   LIG    1       11.746  -6.215  -0.442  0.00  0.00    -0.080 A 
ATOM     10  C   LIG    1       10.386  -6.165  -0.167  0.00  0.00    +0.140 A 
BRANCH   5  12
ATOM     11  C   LIG    1        7.446  -7.969  -0.689  0.00  0.00    +0.030 C 
ATOM     12  C   LIG    1        8.223  -7.284   0.437  0.00  0.00    +0.020 C 
ATOM     13  C   LIG    1        7.951  -8.006   1.758  0.00  0.00    +0.030 C 
ENDBRANCH   5  12
BRANCH   9  14
ATOM     14  C   LIG    1       12.498  -4.948  -0.760  0.00  0.00    +0.010 C 
ATOM     15  C   LIG    1       13.110  -5.056  -2.158  0.00  0.00    +0.040 C 
ATOM     16  C   LIG    1       13.611  -4.743   0.269  0.00  0.00    +0.040 C 
ENDBRANCH   9  14
ENDBRANCH   1  10
BRANCH   3  17
ATOM     17  C   LIG    1        8.222  -3.255   0.846  0.00  0.00    +0.070 C 
BRANCH  17  18
ATOM     18  S   LIG    1        7.377  -3.005   2.432  0.00  0.00    +0.120 S 
BRANCH  18  19
ATOM     19  C   LIG    1        6.536  -1.475   2.196  0.00  0.00    +0.190 A 
ATOM     20  N   LIG    1        6.566  -0.750   1.102  0.00  0.00    -0.310 NA
ATOM     21  N   LIG    1        5.761   0.377   1.336  0.00  0.00    -0.470 N 
ATOM     22  H   LIG    1        5.580   1.101   0.716  0.00  0.00    +0.440 HD
ATOM     23  C   LIG    1        5.293   0.256   2.598  0.00  0.00    +0.330 A 
ATOM     24  N   LIG    1        5.767  -0.867   3.101  0.00  0.00    -0.470 NA
BRANCH  23  25
ATOM     25  C   LIG    1        4.402   1.212   3.291  0.00  0.00    -0.020 A 
ATOM     26  C   LIG    1        4.070   2.425   2.687  0.00  0.00    +0.040 A 
ATOM     27  C   LIG    1        3.238   3.312   3.338  0.00  0.00    +0.040 A 
ATOM     28  C   LIG    1        2.732   3.001   4.588  0.00  0.00    +0.050 A 
ATOM     29  C   LIG    1        3.057   1.800   5.194  0.00  0.00    +0.050 A 
ATOM     30  C   LIG    1        3.889   0.904   4.553  0.00  0.00    -0.050 A 
ATOM     31 BR   LIG    1        4.331  -0.737   5.381  0.00  0.00    +0.000 Br
ENDBRANCH  23  25
ENDBRANCH  18  19
ENDBRANCH  17  18
ENDBRANCH   3  17
TORSDOF 7
