REMARK  Name = ZINCtV000002sQcD.1
REMARK                            x       y       z     vdW  Elec       q    Type
REMARK                         _______ _______ _______ _____ _____    ______ ____
ROOT
ATOM      1  N   LIG    1        6.264   3.256  -1.306  0.00  0.00    -0.670 N 
ATOM      2  H   LIG    1        6.286   3.167  -2.271  0.00  0.00    +0.410 HD
ATOM      3  C   LIG    1        5.085   3.228  -0.654  0.00  0.00    +0.530 C 
ATOM      4  O   LIG    1        5.061   3.245   0.559  0.00  0.00    -0.500 OA
ENDROOT
BRANCH   1  10
ATOM      5  C   LIG    1        7.837   2.459   0.344  0.00  0.00    -0.050 A 
ATOM      6  C   LIG    1        9.017   2.614   1.046  0.00  0.00    +0.010 A 
ATOM      7  C   LIG    1        9.812   3.724   0.827  0.00  0.00    +0.010 A 
ATOM      8  C   LIG    1        9.432   4.679  -0.098  0.00  0.00    +0.020 A 
ATOM      9  C   LIG    1        8.256   4.527  -0.807  0.00  0.00    -0.070 A 
ATOM     10  C   LIG    1        7.455   3.413  -0.589  0.00  0.00    +0.130 A 
BRANCH   5  12
ATOM     11  C   LIG    1        7.390   0.121  -0.351  0.00  0.00    +0.030 C 
ATOM     12  C   LIG    1        6.968   1.252   0.589  0.00  0.00    +0.020 C 
ATOM     13  C   LIG    1        7.125   0.795   2.040  0.00  0.00    +0.040 C 
ENDBRANCH   5  12
BRANCH   9  14
ATOM     14  C   LIG    1        7.843   5.568  -1.815  0.00  0.00    +0.020 C 
ATOM     15  C   LIG    1        8.915   5.682  -2.900  0.00  0.00    +0.040 C 
ATOM     16  C   LIG    1        7.680   6.919  -1.115  0.00  0.00    +0.040 C 
ENDBRANCH   9  14
ENDBRANCH   1  10
BRANCH   3  17
ATOM     17  C   LIG    1        3.795   3.175  -1.431  0.00  0.00    +0.110 C 
BRANCH  17  18
ATOM     18  S   LIG    1        2.397   3.147  -0.281  0.00  0.00    +0.090 S 
BRANCH  18  19
ATOM     19  C   LIG    1        1.060   3.086  -1.426  0.00  0.00    +0.250 A 
ATOM     20  N   LIG    1        1.165   3.071  -2.737  0.00  0.00    -0.530 NA
ATOM     21  C   LIG    1       -0.057   3.024  -3.287  0.00  0.00    +0.260 A 
ATOM     22  N   LIG    1       -0.955   3.003  -2.327  0.00  0.00    -0.260 NA
ATOM     23  N   LIG    1       -0.254   3.049  -1.111  0.00  0.00    -0.460 N 
ATOM     24  H   LIG    1       -0.638   3.049  -0.220  0.00  0.00    +0.450 HD
BRANCH  21  25
ATOM     25  C   LIG    1       -0.349   2.994  -4.741  0.00  0.00    +0.010 A 
ATOM     26  C   LIG    1        0.695   3.020  -5.664  0.00  0.00    +0.070 A 
ATOM     27  C   LIG    1        0.418   2.986  -7.016  0.00  0.00    +0.030 A 
ATOM     28  C   LIG    1       -0.892   2.938  -7.456  0.00  0.00    +0.040 A 
ATOM     29  C   LIG    1       -1.933   2.917  -6.545  0.00  0.00    +0.040 A 
ATOM     30  C   LIG    1       -1.668   2.945  -5.190  0.00  0.00    -0.070 A 
ATOM     31 BR   LIG    1       -3.092   2.917  -3.946  0.00  0.00    -0.010 Br
ENDBRANCH  21  25
ENDBRANCH  18  19
ENDBRANCH  17  18
ENDBRANCH   3  17
TORSDOF 7
