REMARK  Name = ZINCvU0000000GA9.1
REMARK                            x       y       z     vdW  Elec       q    Type
REMARK                         _______ _______ _______ _____ _____    ______ ____
ROOT
ATOM      1  C   LIG    1        2.643  -2.430  -0.037  0.00  0.00    +0.540 C 
ATOM      2  N   LIG    1        1.384  -1.949  -0.022  0.00  0.00    -0.610 N 
ATOM      3  H   LIG    1        0.631  -2.561  -0.018  0.00  0.00    +0.430 HD
ATOM      4  O   LIG    1        3.585  -1.666  -0.041  0.00  0.00    -0.480 OA
ENDROOT
BRANCH   2   5
ATOM      5  C   LIG    1        1.165  -0.577  -0.012  0.00  0.00    +0.270 A 
ATOM      6  N   LIG    1        0.002  -0.004   0.002  0.00  0.00    -0.490 NA
ATOM      7  C   LIG    1       -0.016   1.321   0.009  0.00  0.00    +0.120 A 
ATOM      8  C   LIG    1        1.191   1.914   0.001  0.00  0.00    -0.100 A 
ATOM      9  S   LIG    1        2.424   0.655  -0.018  0.00  0.00    +0.220 S 
BRANCH   7  10
ATOM     10  C   LIG    1       -1.280   2.097   0.020  0.00  0.00    -0.000 A 
ATOM     11  C   LIG    1       -1.245   3.490   0.032  0.00  0.00    +0.060 A 
ATOM     12  C   LIG    1       -2.424   4.209   0.036  0.00  0.00    +0.030 A 
ATOM     13  C   LIG    1       -3.640   3.549   0.038  0.00  0.00    +0.070 A 
ATOM     14  C   LIG    1       -3.681   2.161   0.032  0.00  0.00    +0.070 A 
ATOM     15  F   LIG    1       -4.871   1.521   0.035  0.00  0.00    -0.130 F 
ATOM     16  F   LIG    1       -4.791   4.256   0.047  0.00  0.00    -0.130 F 
ATOM     17  C   LIG    1       -2.507   1.435   0.022  0.00  0.00    +0.060 A 
ENDBRANCH   7  10
ENDBRANCH   2   5
BRANCH   1  18
ATOM     18  C   LIG    1        2.881  -3.918  -0.047  0.00  0.00    +0.040 C 
ATOM     19  C   LIG    1        2.824  -4.434  -1.487  0.00  0.00    +0.110 C 
BRANCH  18  20
ATOM     20  S   LIG    1        4.510  -4.274   0.657  0.00  0.00    +0.090 S 
BRANCH  20  25
ATOM     21  C   LIG    1        3.776  -8.078   0.400  0.00  0.00    +0.280 A 
ATOM     22  N   LIG    1        4.981  -8.167   0.917  0.00  0.00    -0.290 NA
ATOM     23  N   LIG    1        5.447  -6.855   1.096  0.00  0.00    -0.460 N 
ATOM     24  H   LIG    1        6.305  -6.588   1.460  0.00  0.00    +0.450 HD
ATOM     25  C   LIG    1        4.463  -6.035   0.662  0.00  0.00    +0.250 A 
ATOM     26  N   LIG    1        3.462  -6.783   0.251  0.00  0.00    -0.530 NA
BRANCH  21  31
ATOM     27  C   LIG    1        0.388 -12.525  -0.982  0.00  0.00    +0.090 C 
ATOM     28  C   LIG    1        1.274 -11.362  -0.621  0.00  0.00    -0.070 A 
ATOM     29  C   LIG    1        2.527 -11.591  -0.081  0.00  0.00    +0.010 A 
ATOM     30  C   LIG    1        3.343 -10.529   0.252  0.00  0.00    +0.050 A 
ATOM     31  C   LIG    1        2.903  -9.224   0.043  0.00  0.00    -0.030 A 
ATOM     32  C   LIG    1        1.639  -8.998  -0.496  0.00  0.00    +0.060 A 
ATOM     33  C   LIG    1        0.833 -10.068  -0.830  0.00  0.00    +0.000 A 
ENDBRANCH  21  31
ENDBRANCH  20  25
ENDBRANCH  18  20
ENDBRANCH   1  18
TORSDOF 6
