REMARK  Name = ZINCvU0000000GA9.0
REMARK                            x       y       z     vdW  Elec       q    Type
REMARK                         _______ _______ _______ _____ _____    ______ ____
ROOT
ATOM      1  C   LIG    1        4.288   5.012  -0.135  0.00  0.00    +0.540 C 
ATOM      2  N   LIG    1        5.510   4.803  -0.664  0.00  0.00    -0.610 N 
ATOM      3  H   LIG    1        5.763   3.916  -0.963  0.00  0.00    +0.430 HD
ATOM      4  O   LIG    1        3.971   6.122   0.239  0.00  0.00    -0.480 OA
ENDROOT
BRANCH   2   5
ATOM      5  C   LIG    1        6.407   5.858  -0.781  0.00  0.00    +0.270 A 
ATOM      6  N   LIG    1        7.604   5.773  -1.272  0.00  0.00    -0.500 NA
ATOM      7  C   LIG    1        8.321   6.888  -1.305  0.00  0.00    +0.120 A 
ATOM      8  C   LIG    1        7.709   7.982  -0.819  0.00  0.00    -0.100 A 
ATOM      9  S   LIG    1        6.092   7.520  -0.292  0.00  0.00    +0.230 S 
BRANCH   7  10
ATOM     10  C   LIG    1        9.703   6.925  -1.843  0.00  0.00    -0.000 A 
ATOM     11  C   LIG    1       10.413   8.124  -1.861  0.00  0.00    +0.060 A 
ATOM     12  C   LIG    1       11.701   8.155  -2.357  0.00  0.00    +0.030 A 
ATOM     13  C   LIG    1       12.285   6.998  -2.846  0.00  0.00    +0.070 A 
ATOM     14  C   LIG    1       11.580   5.803  -2.835  0.00  0.00    +0.070 A 
ATOM     15  F   LIG    1       12.154   4.677  -3.313  0.00  0.00    -0.130 F 
ATOM     16  F   LIG    1       13.544   7.034  -3.334  0.00  0.00    -0.130 F 
ATOM     17  C   LIG    1       10.293   5.763  -2.336  0.00  0.00    +0.060 A 
ENDBRANCH   7  10
ENDBRANCH   2   5
BRANCH   1  18
ATOM     18  C   LIG    1        3.316   3.868  -0.009  0.00  0.00    +0.010 C 
ATOM     19  C   LIG    1        3.587   3.109   1.292  0.00  0.00    +0.090 C 
BRANCH  18  20
ATOM     20  S   LIG    1        1.621   4.514   0.011  0.00  0.00    +0.120 S 
BRANCH  20  23
ATOM     21  C   LIG    1       -1.104   1.761   0.016  0.00  0.00    +0.350 A 
ATOM     22  N   LIG    1       -0.695   3.014   0.025  0.00  0.00    -0.500 NA
ATOM     23  C   LIG    1        0.639   3.051   0.012  0.00  0.00    +0.200 A 
ATOM     24  N   LIG    1        1.102   1.822   0.001  0.00  0.00    -0.310 NA
ATOM     25  N   LIG    1       -0.011   0.966   0.007  0.00  0.00    -0.470 N 
ATOM     26  H   LIG    1        0.002  -0.004   0.002  0.00  0.00    +0.440 HD
BRANCH  21  31
ATOM     27  C   LIG    1       -6.580  -0.012   0.028  0.00  0.00    +0.100 C 
ATOM     28  C   LIG    1       -5.146   0.452   0.025  0.00  0.00    -0.060 A 
ATOM     29  C   LIG    1       -4.861   1.806   0.032  0.00  0.00    +0.010 A 
ATOM     30  C   LIG    1       -3.550   2.237   0.029  0.00  0.00    +0.080 A 
ATOM     31  C   LIG    1       -2.512   1.305   0.019  0.00  0.00    -0.050 A 
ATOM     32  C   LIG    1       -2.807  -0.059   0.007  0.00  0.00    +0.030 A 
ATOM     33  C   LIG    1       -4.121  -0.477   0.016  0.00  0.00    +0.010 A 
ENDBRANCH  21  31
ENDBRANCH  20  23
ENDBRANCH  18  20
ENDBRANCH   1  18
TORSDOF 6
