REMARK  Name = ZINCrD0000074Hk4.0
REMARK                            x       y       z     vdW  Elec       q    Type
REMARK                         _______ _______ _______ _____ _____    ______ ____
ROOT
ATOM      1  C   LIG    1       -1.139   1.783   1.301  0.00  0.00    -0.030 C 
ATOM      2  C   LIG    1       -2.656   1.566   1.266  0.00  0.00    +0.040 C 
ATOM      3  C   LIG    1       -3.231   2.160  -0.022  0.00  0.00    +0.030 C 
ATOM      4  C   LIG    1       -2.614   1.446  -1.228  0.00  0.00    +0.270 C 
ATOM      5  N   LIG    1       -1.150   1.525  -1.128  0.00  0.00    -0.620 N 
ATOM      6  C   LIG    1       -0.417   2.011  -2.149  0.00  0.00    +0.700 C 
ATOM      7  N   LIG    1       -1.013   2.332  -3.314  0.00  0.00    -0.640 N 
ATOM      8  H   LIG    1       -1.978   2.282  -3.394  0.00  0.00    +0.430 HD
ATOM      9  O   LIG    1        0.783   2.160  -2.018  0.00  0.00    -0.550 OA
ATOM     10  C   LIG    1       -0.501   1.065   0.107  0.00  0.00    +0.310 C 
ENDROOT
BRANCH   7  11
ATOM     11  C   LIG    1       -0.247   2.733  -4.398  0.00  0.00    +0.230 A 
ATOM     12  C   LIG    1       -0.700   3.083  -5.638  0.00  0.00    -0.100 A 
ATOM     13  C   LIG    1        0.473   3.405  -6.349  0.00  0.00    +0.040 A 
ATOM     14  N   LIG    1        1.468   3.222  -5.527  0.00  0.00    -0.370 NA
ATOM     15  C   LIG    1        0.561   3.863  -7.782  0.00  0.00    +0.160 C 
ATOM     16  O   LIG    1        1.090   2.850  -4.440  0.00  0.00    +0.110 OA
ENDBRANCH   7  11
BRANCH   1  17
ATOM     17  C   LIG    1       -0.567   1.218   2.602  0.00  0.00    +0.300 C 
BRANCH  17  21
ATOM     18  N   LIG    1        2.896   1.409   3.824  0.00  0.00    -0.690 N 
ATOM     19  H   LIG    1        3.310   1.967   3.147  0.00  0.00    +0.410 HD
ATOM     20  C   LIG    1        1.581   1.125   3.750  0.00  0.00    +0.700 C 
ATOM     21  N   LIG    1        0.863   1.527   2.683  0.00  0.00    -0.740 N 
ATOM     22  H   LIG    1        1.293   2.022   1.968  0.00  0.00    +0.400 HD
ATOM     23  O   LIG    1        1.042   0.505   4.646  0.00  0.00    -0.570 OA
BRANCH  18  28
ATOM     24  C   LIG    1        6.010  -0.655   8.093  0.00  0.00    +0.100 C 
ATOM     25  C   LIG    1        5.183  -0.107   6.959  0.00  0.00    -0.100 A 
ATOM     26  C   LIG    1        4.128  -0.845   6.455  0.00  0.00    +0.020 A 
ATOM     27  C   LIG    1        3.368  -0.345   5.416  0.00  0.00    +0.020 A 
ATOM     28  C   LIG    1        3.664   0.900   4.877  0.00  0.00    +0.160 A 
ATOM     29  C   LIG    1        4.728   1.637   5.382  0.00  0.00    -0.020 A 
ATOM     30  C   LIG    1        5.481   1.133   6.425  0.00  0.00    +0.030 A 
ENDBRANCH  18  28
ENDBRANCH  17  21
ENDBRANCH   1  17
TORSDOF 4
