REMARK  Name = ZINC590000002qcN.0
REMARK                            x       y       z     vdW  Elec       q    Type
REMARK                         _______ _______ _______ _____ _____    ______ ____
ROOT
ATOM      1  C   LIG    1       -0.424   2.220   1.312  0.00  0.00    +0.090 C 
ATOM      2  C   LIG    1       -0.019   1.526   0.010  0.00  0.00    +0.010 C 
ATOM      3  C   LIG    1        1.317   0.779  -0.006  0.00  0.00    +0.100 C 
ATOM      4  C   LIG    1        0.002  -0.004   0.002  0.00  0.00    +0.090 C 
ENDROOT
BRANCH   4   5
ATOM      5  N   LIG    1       -0.392  -0.681  -1.241  0.00  0.00    -0.610 N 
ATOM      6  H   LIG    1       -1.339  -0.426  -1.477  0.00  0.00    +0.440 HD
ATOM      7  H   LIG    1       -0.335  -1.680  -1.112  0.00  0.00    +0.440 HD
ATOM      8  H   LIG    1        0.227  -0.402  -1.987  0.00  0.00    +0.430 HD
ENDBRANCH   4   5
TORSDOF 1
