REMARK  Name = ZINCrH000004u3Yq.0
REMARK                            x       y       z     vdW  Elec       q    Type
REMARK                         _______ _______ _______ _____ _____    ______ ____
ROOT
ATOM      1  N   LIG    1       -3.791   0.124   0.929  0.00  0.00    -0.670 NA
ATOM      2  C   LIG    1       -4.460  -1.030   0.943  0.00  0.00    +0.480 A 
ATOM      3  C   LIG    1       -4.251  -2.127   0.083  0.00  0.00    -0.110 A 
ATOM      4  C   LIG    1       -5.125  -3.101   0.420  0.00  0.00    +0.350 A 
ATOM      5  N   LIG    1       -5.893  -2.665   1.459  0.00  0.00    -0.390 N 
ATOM      6  N   LIG    1       -5.483  -1.367   1.794  0.00  0.00    -0.470 N 
ATOM      7  H   LIG    1       -5.853  -0.811   2.497  0.00  0.00    +0.450 HD
ENDROOT
BRANCH   1   9
ATOM      8  O   LIG    1       -2.537  -0.558  -0.751  0.00  0.00    -0.560 OA
ATOM      9  C   LIG    1       -2.818   0.317   0.044  0.00  0.00    +0.530 C 
BRANCH   9  10
ATOM     10  C   LIG    1       -2.063   1.621   0.029  0.00  0.00    -0.040 C 
ATOM     11  C   LIG    1       -0.970   1.687  -1.052  0.00  0.00    +0.050 C 
ATOM     12  C   LIG    1       -0.013   1.086  -0.009  0.00  0.00    +0.010 C 
ATOM     13  C   LIG    1       -0.928   1.692   1.068  0.00  0.00    +0.040 C 
BRANCH  10  14
ATOM     14  C   LIG    1       -2.971   2.824   0.043  0.00  0.00    -0.020 A 
ATOM     15  C   LIG    1       -3.150   3.540   1.211  0.00  0.00    +0.020 A 
ATOM     16  C   LIG    1       -3.982   4.644   1.226  0.00  0.00    +0.040 A 
ATOM     17  C   LIG    1       -4.636   5.032   0.072  0.00  0.00    -0.030 A 
ATOM     18  C   LIG    1       -4.457   4.315  -1.099  0.00  0.00    +0.100 A 
ATOM     19  F   LIG    1       -5.096   4.694  -2.228  0.00  0.00    -0.140 F 
ATOM     20  C   LIG    1       -3.619   3.213  -1.114  0.00  0.00    -0.020 A 
ENDBRANCH  10  14
ENDBRANCH   9  10
ENDBRANCH   1   9
BRANCH   5  21
ATOM     21  C   LIG    1       -6.963  -3.422   2.113  0.00  0.00    +0.350 C 
BRANCH  21  22
ATOM     22  C   LIG    1       -8.266  -3.242   1.332  0.00  0.00    +0.080 C 
BRANCH  22  23
ATOM     23  C   LIG    1       -9.366  -4.021   2.005  0.00  0.00    -0.050 A 
ATOM     24  C   LIG    1       -9.621  -5.338   1.652  0.00  0.00    -0.030 A 
ATOM     25  C   LIG    1      -10.636  -6.022   2.293  0.00  0.00    +0.260 A 
ATOM     26  N   LIG    1      -11.363  -5.435   3.223  0.00  0.00    -0.480 NA
ATOM     27  C   LIG    1      -11.152  -4.183   3.581  0.00  0.00    +0.260 A 
ATOM     28  C   LIG    1      -10.152  -3.437   2.987  0.00  0.00    -0.030 A 
ENDBRANCH  22  23
ENDBRANCH  21  22
ENDBRANCH   5  21
TORSDOF 6
