REMARK  Name = ZINCrg00000yUy6x.0
REMARK                            x       y       z     vdW  Elec       q    Type
REMARK                         _______ _______ _______ _____ _____    ______ ____
ROOT
ATOM      1  C   LIG    1       -4.167  -0.633   1.107  0.00  0.00    +0.230 C 
ATOM      2  N   LIG    1       -4.723  -0.920  -0.218  0.00  0.00    -0.940 NA
ATOM      3  S   LIG    1       -6.064  -1.565  -0.341  0.00  0.00    +2.100 S 
ATOM      4  C   LIG    1       -7.325  -0.305   0.030  0.00  0.00    -0.260 C 
ATOM      5  C   LIG    1       -7.264   0.769  -1.063  0.00  0.00    +0.070 C 
ATOM      6  C   LIG    1       -7.564   0.143  -2.422  0.00  0.00    +0.020 C 
ATOM      7  C   LIG    1       -6.399  -0.713  -2.903  0.00  0.00    +0.190 C 
ATOM      8  C   LIG    1       -6.593  -1.057  -4.394  0.00  0.00    +0.050 C 
ATOM      9  C   LIG    1       -5.706  -0.005  -5.112  0.00  0.00    +0.040 C 
ATOM     10  C   LIG    1       -4.525   0.137  -4.120  0.00  0.00    +0.260 C 
ATOM     11  N   LIG    1       -5.139   0.033  -2.784  0.00  0.00    -0.600 N 
ATOM     12  C   LIG    1       -4.627   0.534  -1.642  0.00  0.00    +0.400 C 
ATOM     13  O   LIG    1       -5.285   0.516  -0.624  0.00  0.00    -0.310 OA
ATOM     14  O   LIG    1       -6.088  -2.679   0.542  0.00  0.00    -1.010 OA
ATOM     15  C   LIG    1       -6.313  -2.007  -2.090  0.00  0.00    -0.280 C 
ENDROOT
BRANCH  12  16
ATOM     16  C   LIG    1       -3.237   1.115  -1.631  0.00  0.00    +0.060 C 
BRANCH  16  17
ATOM     17  C   LIG    1       -3.003   1.853  -0.311  0.00  0.00    +0.330 C 
BRANCH  17  18
ATOM     18  N   LIG    1       -1.742   2.595  -0.384  0.00  0.00    -0.470 N 
ATOM     19  C   LIG    1       -0.526   2.163   0.058  0.00  0.00    +0.470 A 
ATOM     20  N   LIG    1        0.377   3.072  -0.169  0.00  0.00    -0.460 NA
ATOM     21  C   LIG    1       -0.200   4.144  -0.763  0.00  0.00    -0.110 A 
ATOM     22  C   LIG    1        0.264   5.386  -1.228  0.00  0.00    +0.510 A 
ATOM     23  N   LIG    1       -0.609   6.223  -1.777  0.00  0.00    -0.590 NA
ATOM     24  C   LIG    1       -1.886   5.904  -1.889  0.00  0.00    +0.560 A 
ATOM     25  N   LIG    1       -2.365   4.753  -1.468  0.00  0.00    -0.560 NA
ATOM     26  C   LIG    1       -1.567   3.852  -0.905  0.00  0.00    +0.300 A 
BRANCH  22  27
ATOM     27  N   LIG    1        1.600   5.729  -1.115  0.00  0.00    -0.820 N 
ATOM     28  H   LIG    1        1.909   6.590  -1.439  0.00  0.00    +0.410 HD
ATOM     29  H   LIG    1        2.228   5.109  -0.712  0.00  0.00    +0.420 HD
ENDBRANCH  22  27
ENDBRANCH  17  18
ENDBRANCH  16  17
ENDBRANCH  12  16
TORSDOF 4
