REMARK  Name = ZINCqH00000050eR.0
REMARK                            x       y       z     vdW  Elec       q    Type
REMARK                         _______ _______ _______ _____ _____    ______ ____
ROOT
ATOM      1  N   LIG    1       -5.498   3.689   0.073  0.00  0.00    -0.710 N 
ATOM      2  H   LIG    1       -4.992   4.516   0.073  0.00  0.00    +0.390 HD
ATOM      3  C   LIG    1       -4.855   2.504   0.061  0.00  0.00    +0.590 C 
ATOM      4  O   LIG    1       -5.491   1.467   0.061  0.00  0.00    -0.490 OA
ENDROOT
BRANCH   3   5
ATOM      5  C   LIG    1       -3.387   2.466   0.047  0.00  0.00    +0.040 A 
ATOM      6  C   LIG    1       -2.629   1.335   0.033  0.00  0.00    -0.040 A 
ATOM      7  C   LIG    1       -1.232   1.761   0.017  0.00  0.00    -0.110 A 
ATOM      8  C   LIG    1       -0.013   1.076   0.008  0.00  0.00    +0.080 A 
ATOM      9  C   LIG    1        1.159   1.777   0.001  0.00  0.00    -0.010 A 
ATOM     10  C   LIG    1        1.151   3.166   0.008  0.00  0.00    +0.050 A 
ATOM     11  C   LIG    1       -0.037   3.862   0.023  0.00  0.00    -0.010 A 
ATOM     12  C   LIG    1       -1.245   3.170   0.030  0.00  0.00    +0.130 A 
ATOM     13 CL   LIG    1       -3.212  -0.300   0.030  0.00  0.00    -0.010 Cl
ATOM     14  N   LIG    1       -2.559   3.573   0.045  0.00  0.00    -0.580 N 
ATOM     15  H   LIG    1       -2.860   4.495   0.054  0.00  0.00    +0.420 HD
ENDBRANCH   3   5
BRANCH   1  16
ATOM     16  C   LIG    1       -6.963   3.727   0.087  0.00  0.00    +0.320 C 
BRANCH  16  17
ATOM     17  C   LIG    1       -7.455   3.608   1.506  0.00  0.00    -0.100 A 
ATOM     18  C   LIG    1       -6.791   4.265   2.525  0.00  0.00    +0.010 A 
ATOM     19  C   LIG    1       -7.245   4.160   3.826  0.00  0.00    +0.000 A 
ATOM     20  C   LIG    1       -8.358   3.391   4.110  0.00  0.00    +0.000 A 
ATOM     21  C   LIG    1       -9.020   2.731   3.092  0.00  0.00    +0.000 A 
ATOM     22  C   LIG    1       -8.568   2.839   1.790  0.00  0.00    +0.020 A 
ENDBRANCH  16  17
BRANCH  16  23
ATOM     23  C   LIG    1       -7.444   5.050  -0.511  0.00  0.00    +0.070 C 
BRANCH  23  26
ATOM     24  C   LIG    1       -7.004   6.258  -4.117  0.00  0.00    +0.290 C 
ATOM     25  N   LIG    1       -7.380   6.196  -2.703  0.00  0.00    -0.620 N 
ATOM     26  C   LIG    1       -7.057   5.114  -1.967  0.00  0.00    +0.510 C 
ATOM     27  O   LIG    1       -6.456   4.192  -2.475  0.00  0.00    -0.520 OA
ATOM     28  C   LIG    1       -8.106   7.310  -2.089  0.00  0.00    +0.280 C 
ENDBRANCH  23  26
ENDBRANCH  16  23
ENDBRANCH   1  16
TORSDOF 5
