REMARK  Name = ZINCrg00001Jdv2r.0
REMARK                            x       y       z     vdW  Elec       q    Type
REMARK                         _______ _______ _______ _____ _____    ______ ____
ROOT
ATOM      1  C   LIG    1       -0.776   1.580  -1.232  0.00  0.00    +0.140 C 
ATOM      2  C   LIG    1       -0.144   0.995  -2.515  0.00  0.00    +0.060 C 
ATOM      3  C   LIG    1       -0.240   2.148  -3.540  0.00  0.00    -0.030 C 
ATOM      4  C   LIG    1       -0.919   3.292  -2.755  0.00  0.00    +0.240 C 
ATOM      5  O   LIG    1       -0.630   3.011  -1.368  0.00  0.00    -0.360 OA
ENDROOT
BRANCH   3   6
ATOM      6  C   LIG    1        1.134   2.563  -3.998  0.00  0.00    +0.530 C 
ATOM      7  N   LIG    1        1.273   3.558  -4.896  0.00  0.00    -0.720 N 
ATOM      8  H   LIG    1        0.488   4.006  -5.249  0.00  0.00    +0.410 HD
ATOM      9  O   LIG    1        2.115   2.002  -3.558  0.00  0.00    -0.530 OA
BRANCH   7  10
ATOM     10  C   LIG    1        2.609   3.962  -5.342  0.00  0.00    +0.340 C 
ATOM     11  C   LIG    1        3.058   3.058  -6.492  0.00  0.00    +0.040 C 
BRANCH  10  12
ATOM     12  C   LIG    1        2.570   5.393  -5.813  0.00  0.00    +0.060 A 
ATOM     13  N   LIG    1        1.517   6.022  -6.269  0.00  0.00    -0.290 NA
ATOM     14  N   LIG    1        1.897   7.330  -6.597  0.00  0.00    -0.370 N 
ATOM     15  C   LIG    1        3.213   7.460  -6.329  0.00  0.00    +0.240 A 
ATOM     16  C   LIG    1        1.021   8.372  -7.139  0.00  0.00    +0.360 C 
ATOM     17  C   LIG    1        3.654   6.276  -5.843  0.00  0.00    -0.110 A 
ENDBRANCH  10  12
ENDBRANCH   7  10
ENDBRANCH   3   6
BRANCH   1  18
ATOM     18  C   LIG    1       -0.025   1.084   0.005  0.00  0.00    +0.300 C 
BRANCH  18  20
ATOM     19  C   LIG    1       -0.225   1.234   2.429  0.00  0.00    +0.590 C 
ATOM     20  N   LIG    1       -0.710   1.552   1.212  0.00  0.00    -0.720 N 
ATOM     21  H   LIG    1       -1.513   2.091   1.136  0.00  0.00    +0.410 HD
ATOM     22  O   LIG    1        0.726   0.481   2.527  0.00  0.00    -0.520 OA
BRANCH  19  25
ATOM     23  C   LIG    1       -2.300  -0.232   4.276  0.00  0.00    +0.120 C 
ATOM     24  C   LIG    1       -1.755   1.162   4.453  0.00  0.00    -0.110 A 
ATOM     25  C   LIG    1       -0.844   1.795   3.635  0.00  0.00    -0.050 A 
ATOM     26  N   LIG    1       -0.624   3.051   4.152  0.00  0.00    -0.420 N 
ATOM     27  C   LIG    1       -1.377   3.197   5.270  0.00  0.00    +0.180 A 
ATOM     28  C   LIG    1        0.273   4.063   3.588  0.00  0.00    +0.320 C 
ATOM     29  C   LIG    1       -2.075   2.055   5.480  0.00  0.00    -0.060 A 
ENDBRANCH  19  25
ENDBRANCH  18  20
ENDBRANCH   1  18
TORSDOF 6
