REMARK  Name = ZINCrg000000r5Nv.0
REMARK                            x       y       z     vdW  Elec       q    Type
REMARK                         _______ _______ _______ _____ _____    ______ ____
ROOT
ATOM      1  C   LIG    1       -3.598   1.697   0.131  0.00  0.00    +0.560 C 
ATOM      2  N   LIG    1       -2.426   1.042   0.020  0.00  0.00    -0.670 N 
ATOM      3  H   LIG    1       -2.417   0.075  -0.063  0.00  0.00    +0.420 HD
ATOM      4  O   LIG    1       -3.616   2.913   0.137  0.00  0.00    -0.500 OA
ENDROOT
BRANCH   1   8
ATOM      5  C   LIG    1       -7.229  -0.483   0.456  0.00  0.00    -0.050 A 
ATOM      6  C   LIG    1       -7.253   0.901   0.464  0.00  0.00    +0.020 A 
ATOM      7  C   LIG    1       -6.077   1.615   0.359  0.00  0.00    +0.090 A 
ATOM      8  C   LIG    1       -4.862   0.939   0.244  0.00  0.00    -0.140 A 
ATOM      9  C   LIG    1       -4.845  -0.457   0.231  0.00  0.00    +0.050 A 
ATOM     10  C   LIG    1       -6.027  -1.159   0.342  0.00  0.00    +0.010 A 
BRANCH   5  11
ATOM     11  C   LIG    1       -8.517  -1.256   0.571  0.00  0.00    +0.090 C 
BRANCH  11  12
ATOM     12  C   LIG    1       -9.086  -1.511  -0.826  0.00  0.00    +0.280 C 
BRANCH  12  13
ATOM     13  N   LIG    1      -10.338  -2.263  -0.714  0.00  0.00    -1.120 NA
ATOM     14  H   LIG    1      -10.567  -2.703   0.120  0.00  0.00    +0.420 HD
BRANCH  13  16
ATOM     15  C   LIG    1      -10.428  -3.295  -3.256  0.00  0.00    -0.280 C 
ATOM     16  S   LIG    1      -11.363  -2.363  -2.011  0.00  0.00    +2.610 S 
ATOM     17  O   LIG    1      -11.538  -1.015  -2.424  0.00  0.00    -0.950 OA
ATOM     18  O   LIG    1      -12.459  -3.131  -1.533  0.00  0.00    -0.960 OA
ENDBRANCH  13  16
ENDBRANCH  12  13
ENDBRANCH  11  12
ENDBRANCH   5  11
ENDBRANCH   1   8
BRANCH   2  19
ATOM     19  C   LIG    1       -1.223   1.754   0.023  0.00  0.00    +0.170 A 
ATOM     20  C   LIG    1       -0.147   1.307  -0.734  0.00  0.00    +0.000 A 
ATOM     21  C   LIG    1        1.043   2.009  -0.726  0.00  0.00    +0.080 A 
ATOM     22  C   LIG    1        1.166   3.158   0.030  0.00  0.00    +0.000 A 
ATOM     23  C   LIG    1        0.093   3.613   0.785  0.00  0.00    +0.150 A 
ATOM     24  C   LIG    1       -1.103   2.912   0.779  0.00  0.00    +0.050 A 
BRANCH  23  25
ATOM     25  N   LIG    1        0.219   4.781   1.552  0.00  0.00    -0.330 N 
ATOM     26  C   LIG    1        1.306   5.574   1.666  0.00  0.00    +0.470 A 
ATOM     27  N   LIG    1        0.992   6.549   2.478  0.00  0.00    -0.330 NA
ATOM     28  N   LIG    1       -0.220   6.427   2.885  0.00  0.00    -0.030 NA
ATOM     29  N   LIG    1       -0.761   5.380   2.363  0.00  0.00    -0.070 NA
ENDBRANCH  23  25
ENDBRANCH   2  19
TORSDOF 7
