REMARK  Name = ZINCpk00000ebmnx.0
REMARK                            x       y       z     vdW  Elec       q    Type
REMARK                         _______ _______ _______ _____ _____    ______ ____
ROOT
ATOM      1  C   LIG    1       -0.853   1.367   2.599  0.00  0.00    +0.160 C 
ATOM      2  C   LIG    1       -1.314   2.211   3.816  0.00  0.00    +0.060 C 
ATOM      3  C   LIG    1       -0.937   1.320   5.018  0.00  0.00    +0.250 C 
ATOM      4  N   LIG    1       -0.837  -0.061   4.523  0.00  0.00    -0.610 N 
ATOM      5  C   LIG    1       -0.506  -1.138   5.262  0.00  0.00    +0.580 C 
ATOM      6  O   LIG    1       -0.540  -2.249   4.768  0.00  0.00    -0.510 OA
ATOM      7  C   LIG    1       -1.159  -0.072   3.084  0.00  0.00    +0.260 C 
ENDROOT
BRANCH   5   8
ATOM      8  C   LIG    1       -0.103  -0.970   6.670  0.00  0.00    -0.100 A 
ATOM      9  C   LIG    1       -0.854  -0.184   7.534  0.00  0.00    +0.110 A 
ATOM     10  C   LIG    1       -0.475  -0.033   8.861  0.00  0.00    -0.050 A 
ATOM     11  C   LIG    1        0.639  -0.631   9.363  0.00  0.00    +0.180 A 
ATOM     12  C   LIG    1        1.450  -1.436   8.545  0.00  0.00    -0.070 A 
ATOM     13  C   LIG    1        2.604  -2.061   9.047  0.00  0.00    +0.060 A 
ATOM     14  C   LIG    1        3.364  -2.834   8.224  0.00  0.00    +0.030 A 
ATOM     15  C   LIG    1        3.015  -3.017   6.888  0.00  0.00    +0.060 A 
ATOM     16  C   LIG    1        1.903  -2.426   6.367  0.00  0.00    +0.030 A 
ATOM     17  C   LIG    1        1.099  -1.624   7.185  0.00  0.00    +0.010 A 
BRANCH  10  18
ATOM     18  N   LIG    1       -1.304   0.808   9.754  0.00  0.00    +0.030 N 
ATOM     19  O   LIG    1       -2.305   1.351   9.323  0.00  0.00    -0.150 OA
ATOM     20  O   LIG    1       -0.985   0.957  10.920  0.00  0.00    -0.150 OA
ENDBRANCH  10  18
ENDBRANCH   5   8
BRANCH   1  21
ATOM     21  O   LIG    1       -1.616   1.688   1.434  0.00  0.00    -0.340 OA
BRANCH  21  22
ATOM     22  C   LIG    1       -0.901   1.524   0.207  0.00  0.00    +0.210 C 
BRANCH  22  26
ATOM     23  N   LIG    1       -1.333   1.809  -2.212  0.00  0.00    -0.850 N 
ATOM     24  H   LIG    1       -1.909   2.043  -2.956  0.00  0.00    +0.410 HD
ATOM     25  H   LIG    1       -0.422   1.518  -2.377  0.00  0.00    +0.400 HD
ATOM     26  C   LIG    1       -1.797   1.888  -0.949  0.00  0.00    +0.520 C 
ATOM     27  O   LIG    1       -2.935   2.252  -0.742  0.00  0.00    -0.520 OA
ENDBRANCH  22  26
ENDBRANCH  21  22
ENDBRANCH   1  21
TORSDOF 5
