REMARK  Name = ZINCrD000000DgjF.0
REMARK                            x       y       z     vdW  Elec       q    Type
REMARK                         _______ _______ _______ _____ _____    ______ ____
ROOT
ATOM      1  N   LIG    1        4.001   5.081  -3.039  0.00  0.00    -0.650 N 
ATOM      2  C   LIG    1        4.431   5.566  -1.719  0.00  0.00    +0.300 C 
ATOM      3  C   LIG    1        4.776   4.356  -0.845  0.00  0.00    +0.170 C 
ATOM      4  N   LIG    1        3.636   3.430  -0.825  0.00  0.00    -0.520 NA
ATOM      5  C   LIG    1        3.358   2.898  -2.166  0.00  0.00    +0.170 C 
ATOM      6  C   LIG    1        2.955   4.049  -3.094  0.00  0.00    +0.290 C 
ENDROOT
BRANCH   1  13
ATOM      7  O   LIG    1        3.726   7.402  -7.089  0.00  0.00    -0.520 OA
ATOM      8  C   LIG    1        4.390   6.780  -6.274  0.00  0.00    +0.520 A 
ATOM      9  N   LIG    1        5.703   6.566  -6.489  0.00  0.00    -0.510 N 
ATOM     10  H   LIG    1        6.119   6.909  -7.296  0.00  0.00    +0.440 HD
ATOM     11  N   LIG    1        6.470   5.856  -5.561  0.00  0.00    -0.200 NA
ATOM     12  C   LIG    1        5.936   5.385  -4.468  0.00  0.00    +0.280 A 
ATOM     13  C   LIG    1        4.565   5.583  -4.200  0.00  0.00    +0.230 A 
ATOM     14  C   LIG    1        3.789   6.279  -5.109  0.00  0.00    -0.150 A 
ATOM     15 CL   LIG    1        2.098   6.534  -4.811  0.00  0.00    -0.000 Cl
ENDBRANCH   1  13
BRANCH   4  16
ATOM     16  C   LIG    1        3.859   2.342   0.137  0.00  0.00    +0.230 C 
BRANCH  16  17
ATOM     17  C   LIG    1        4.036   2.921   1.518  0.00  0.00    -0.080 A 
ATOM     18  C   LIG    1        3.253   3.984   1.927  0.00  0.00    +0.040 A 
ATOM     19  C   LIG    1        3.412   4.512   3.195  0.00  0.00    +0.000 A 
ATOM     20  C   LIG    1        4.361   3.982   4.050  0.00  0.00    +0.000 A 
ATOM     21  C   LIG    1        5.147   2.922   3.638  0.00  0.00    +0.000 A 
ATOM     22  C   LIG    1        4.985   2.392   2.372  0.00  0.00    +0.010 A 
ENDBRANCH  16  17
BRANCH  16  23
ATOM     23  C   LIG    1        2.671   1.415   0.130  0.00  0.00    -0.080 A 
ATOM     24  C   LIG    1        1.391   1.930   0.042  0.00  0.00    +0.040 A 
ATOM     25  C   LIG    1        0.302   1.079   0.035  0.00  0.00    +0.000 A 
ATOM     26  C   LIG    1        0.492  -0.287   0.118  0.00  0.00    +0.000 A 
ATOM     27  C   LIG    1        1.772  -0.803   0.207  0.00  0.00    +0.000 A 
ATOM     28  C   LIG    1        2.861   0.048   0.213  0.00  0.00    +0.010 A 
ENDBRANCH  16  23
ENDBRANCH   4  16
TORSDOF 4
