REMARK  Name = ZINCrH000004jbrj.0
REMARK                            x       y       z     vdW  Elec       q    Type
REMARK                         _______ _______ _______ _____ _____    ______ ____
ROOT
ATOM      1  N   LIG    1       -1.664  -7.584   4.426  0.00  0.00    -0.680 N 
ATOM      2  H   LIG    1       -1.337  -8.495   4.488  0.00  0.00    +0.410 HD
ATOM      3  C   LIG    1       -1.210  -6.770   3.452  0.00  0.00    +0.570 C 
ATOM      4  O   LIG    1       -1.548  -5.602   3.428  0.00  0.00    -0.520 OA
ENDROOT
BRANCH   3   5
ATOM      5  C   LIG    1       -0.301  -7.296   2.416  0.00  0.00    -0.160 A 
ATOM      6  C   LIG    1        0.089  -8.638   2.442  0.00  0.00    +0.080 A 
ATOM      7  C   LIG    1        0.937  -9.121   1.472  0.00  0.00    -0.040 A 
ATOM      8  C   LIG    1        1.403  -8.281   0.465  0.00  0.00    +0.210 A 
ATOM      9  C   LIG    1        1.021  -6.944   0.435  0.00  0.00    -0.120 A 
ATOM     10  C   LIG    1        1.508  -6.009  -0.640  0.00  0.00    +0.090 C 
ATOM     11  C   LIG    1        2.779  -6.558  -1.290  0.00  0.00    +0.040 C 
ATOM     12  C   LIG    1        2.529  -8.011  -1.713  0.00  0.00    +0.290 C 
ATOM     13  N   LIG    1        2.268  -8.795  -0.499  0.00  0.00    -0.940 N 
ATOM     14  C   LIG    1        0.171  -6.454   1.406  0.00  0.00    +0.120 A 
BRANCH  13  15
ATOM     15  S   LIG    1        2.987 -10.271  -0.280  0.00  0.00    +2.600 S 
ATOM     16  O   LIG    1        4.081 -10.266  -1.188  0.00  0.00    -0.940 OA
ATOM     17  O   LIG    1        3.199 -10.353   1.122  0.00  0.00    -0.940 OA
ATOM     18  C   LIG    1        1.730 -11.469  -0.805  0.00  0.00    -0.270 C 
ENDBRANCH  13  15
ENDBRANCH   3   5
BRANCH   1  24
ATOM     19  C   LIG    1       -2.224  -6.227   6.343  0.00  0.00    -0.060 A 
ATOM     20  C   LIG    1       -3.159  -5.761   7.247  0.00  0.00    +0.010 A 
ATOM     21  C   LIG    1       -4.472  -6.186   7.167  0.00  0.00    +0.010 A 
ATOM     22  C   LIG    1       -4.856  -7.073   6.178  0.00  0.00    +0.000 A 
ATOM     23  C   LIG    1       -3.927  -7.538   5.267  0.00  0.00    -0.080 A 
ATOM     24  C   LIG    1       -2.607  -7.114   5.346  0.00  0.00    +0.130 A 
BRANCH  19  26
ATOM     25  C   LIG    1       -0.683  -4.639   7.462  0.00  0.00    +0.030 C 
ATOM     26  C   LIG    1       -0.791  -5.769   6.436  0.00  0.00    +0.060 C 
ENDBRANCH  19  26
BRANCH  23  27
ATOM     27  C   LIG    1       -4.346  -8.505   4.189  0.00  0.00    +0.060 C 
ATOM     28  C   LIG    1       -4.068  -9.936   4.652  0.00  0.00    +0.030 C 
ENDBRANCH  23  27
ENDBRANCH   1  24
TORSDOF 5
