REMARK  Name = ZINCqH0000008VX1.0
REMARK                            x       y       z     vdW  Elec       q    Type
REMARK                         _______ _______ _______ _____ _____    ______ ____
ROOT
ATOM      1  C   LIG    1        1.284   2.986   1.297  0.00  0.00    +0.030 C 
ATOM      2  C   LIG    1        1.277   1.961   0.161  0.00  0.00    +0.190 C 
ENDROOT
BRANCH   2   3
ATOM      3  N   LIG    1        2.390   1.020   0.344  0.00  0.00    -0.510 NA
ATOM      4  C   LIG    1        2.283   0.321   1.630  0.00  0.00    +0.180 C 
ATOM      5  C   LIG    1        3.372  -0.751   1.722  0.00  0.00    +0.030 C 
ATOM      6  C   LIG    1        4.746  -0.088   1.594  0.00  0.00    +0.230 C 
ATOM      7  C   LIG    1        4.814   0.674   0.268  0.00  0.00    +0.030 C 
ATOM      8  C   LIG    1        3.683   1.704   0.218  0.00  0.00    +0.180 C 
BRANCH   6   9
ATOM      9  N   LIG    1        5.790  -1.115   1.623  0.00  0.00    -0.600 N 
ATOM     10  C   LIG    1        6.794  -1.039   2.677  0.00  0.00    +0.250 C 
ATOM     11  C   LIG    1        7.487  -2.393   2.852  0.00  0.00    +0.010 C 
ATOM     12  C   LIG    1        7.969  -2.874   1.479  0.00  0.00    +0.030 C 
ATOM     13  C   LIG    1        6.743  -3.196   0.620  0.00  0.00    +0.060 C 
ATOM     14  C   LIG    1        5.765  -2.058   0.681  0.00  0.00    +0.510 C 
ATOM     15  O   LIG    1        4.907  -1.993  -0.174  0.00  0.00    -0.540 OA
ENDBRANCH   6   9
ENDBRANCH   2   3
BRANCH   2  16
ATOM     16  C   LIG    1       -0.027   1.205   0.175  0.00  0.00    +0.520 C 
ATOM     17  N   LIG    1       -1.191   1.867   0.018  0.00  0.00    -0.670 N 
ATOM     18  H   LIG    1       -1.196   2.836  -0.023  0.00  0.00    +0.410 HD
ATOM     19  O   LIG    1       -0.028   0.001   0.322  0.00  0.00    -0.490 OA
BRANCH  17  20
ATOM     20  C   LIG    1       -2.391   1.155  -0.086  0.00  0.00    +0.170 A 
ATOM     21  C   LIG    1       -3.565   1.694   0.423  0.00  0.00    +0.010 A 
ATOM     22  C   LIG    1       -4.750   0.990   0.320  0.00  0.00    +0.070 A 
ATOM     23  C   LIG    1       -4.767  -0.251  -0.291  0.00  0.00    -0.050 A 
ATOM     24  C   LIG    1       -3.598  -0.791  -0.800  0.00  0.00    -0.010 A 
ATOM     25 CL   LIG    1       -3.623  -2.349  -1.566  0.00  0.00    -0.040 Cl
ATOM     26 CL   LIG    1       -6.257  -1.133  -0.419  0.00  0.00    -0.050 Cl
ATOM     27  C   LIG    1       -2.412  -0.088  -0.704  0.00  0.00    +0.060 A 
ENDBRANCH  17  20
ENDBRANCH   2  16
TORSDOF 4
