REMARK  Name = ZINCkj00000y7Glj.0
REMARK                            x       y       z     vdW  Elec       q    Type
REMARK                         _______ _______ _______ _____ _____    ______ ____
ROOT
ATOM      1  C   LIG    1        2.130   0.105  -1.297  0.00  0.00    +0.110 C 
ATOM      2  C   LIG    1        0.742  -0.538  -1.228  0.00  0.00    +0.060 C 
ATOM      3  C   LIG    1        0.034  -0.068   0.046  0.00  0.00    +0.080 C 
ATOM      4  C   LIG    1       -0.034   1.461   0.051  0.00  0.00    +0.260 C 
ATOM      5  N   LIG    1        1.325   2.015   0.011  0.00  0.00    -0.370 N 
ATOM      6  H   LIG    1        1.855   1.660   0.792  0.00  0.00    +0.430 HD
ATOM      7  C   LIG    1        1.984   1.628  -1.242  0.00  0.00    +0.300 C 
ENDROOT
BRANCH   1   9
ATOM      8  O   LIG    1        2.139  -0.660  -3.529  0.00  0.00    -0.510 OA
ATOM      9  C   LIG    1        2.804  -0.290  -2.585  0.00  0.00    +0.500 C 
ATOM     10  N   LIG    1        4.147  -0.231  -2.688  0.00  0.00    -0.610 N 
ATOM     11  C   LIG    1        5.076   0.105  -1.600  0.00  0.00    +0.250 C 
ATOM     12  C   LIG    1        6.502   0.070  -2.188  0.00  0.00    +0.030 C 
ATOM     13  C   LIG    1        6.256   0.280  -3.705  0.00  0.00    +0.030 C 
ATOM     14  C   LIG    1        4.926  -0.488  -3.913  0.00  0.00    +0.260 C 
ENDBRANCH   1   9
BRANCH   1  15
ATOM     15  O   LIG    1        2.917  -0.340  -0.190  0.00  0.00    -0.550 OA
ATOM     16  H   LIG    1        3.110  -1.287  -0.200  0.00  0.00    +0.410 HD
ENDBRANCH   1  15
BRANCH   5  17
ATOM     17  C   LIG    1        1.258   3.480   0.095  0.00  0.00    +0.290 C 
BRANCH  17  18
ATOM     18  C   LIG    1        0.693   3.888   1.457  0.00  0.00    +0.080 C 
BRANCH  18  19
ATOM     19  C   LIG    1        0.623   5.414   1.544  0.00  0.00    +0.470 C 
ATOM     20  F   LIG    1        1.907   5.949   1.391  0.00  0.00    -0.170 F 
ATOM     21  F   LIG    1        0.107   5.787   2.790  0.00  0.00    -0.170 F 
ATOM     22  F   LIG    1       -0.209   5.901   0.530  0.00  0.00    -0.170 F 
ENDBRANCH  18  19
ENDBRANCH  17  18
ENDBRANCH   5  17
TORSDOF 5
