REMARK  Name = ZINCkj00000y7Glj.1
REMARK                            x       y       z     vdW  Elec       q    Type
REMARK                         _______ _______ _______ _____ _____    ______ ____
ROOT
ATOM      1  C   LIG    1       -1.233   1.954   3.538  0.00  0.00    +0.110 C 
ATOM      2  C   LIG    1       -0.709   3.392   3.507  0.00  0.00    +0.050 C 
ATOM      3  C   LIG    1        0.731   3.412   4.030  0.00  0.00    +0.090 C 
ATOM      4  C   LIG    1        0.765   2.812   5.437  0.00  0.00    +0.260 C 
ATOM      5  N   LIG    1        0.277   1.428   5.395  0.00  0.00    -0.380 N 
ATOM      6  H   LIG    1        0.835   0.895   4.746  0.00  0.00    +0.430 HD
ATOM      7  C   LIG    1       -1.126   1.408   4.964  0.00  0.00    +0.300 C 
ENDROOT
BRANCH   1   9
ATOM      8  O   LIG    1        0.704   1.451   2.287  0.00  0.00    -0.520 OA
ATOM      9  C   LIG    1       -0.411   1.098   2.609  0.00  0.00    +0.480 C 
ATOM     10  N   LIG    1       -0.914  -0.059   2.136  0.00  0.00    -0.600 N 
ATOM     11  C   LIG    1       -0.268  -0.934   1.146  0.00  0.00    +0.260 C 
ATOM     12  C   LIG    1       -1.195  -2.149   0.929  0.00  0.00    +0.030 C 
ATOM     13  C   LIG    1       -2.043  -2.175   2.228  0.00  0.00    +0.040 C 
ATOM     14  C   LIG    1       -2.206  -0.663   2.524  0.00  0.00    +0.270 C 
ENDBRANCH   1   9
BRANCH   1  15
ATOM     15  O   LIG    1       -2.600   1.934   3.121  0.00  0.00    -0.530 OA
ATOM     16  H   LIG    1       -2.753   2.341   2.257  0.00  0.00    +0.410 HD
ENDBRANCH   1  15
BRANCH   5  17
ATOM     17  C   LIG    1        0.384   0.834   6.734  0.00  0.00    +0.290 C 
BRANCH  17  18
ATOM     18  C   LIG    1        1.858   0.740   7.134  0.00  0.00    +0.080 C 
BRANCH  18  19
ATOM     19  C   LIG    1        1.970   0.121   8.529  0.00  0.00    +0.470 C 
ATOM     20  F   LIG    1        1.286   0.921   9.450  0.00  0.00    -0.170 F 
ATOM     21  F   LIG    1        3.317   0.035   8.894  0.00  0.00    -0.160 F 
ATOM     22  F   LIG    1        1.407  -1.160   8.517  0.00  0.00    -0.170 F 
ENDBRANCH  18  19
ENDBRANCH  17  18
ENDBRANCH   5  17
TORSDOF 5
