REMARK  Name = ZINCpk000000okg3.0
REMARK                            x       y       z     vdW  Elec       q    Type
REMARK                         _______ _______ _______ _____ _____    ______ ____
ROOT
ATOM      1  N   LIG    1        0.613   3.182   0.015  0.00  0.00    -0.570 N 
ATOM      2  C   LIG    1        0.861   1.867  -0.015  0.00  0.00    +0.700 C 
ATOM      3  N   LIG    1       -0.268   1.130  -0.000  0.00  0.00    -0.720 N 
ATOM      4  H   LIG    1       -0.330   0.162  -0.017  0.00  0.00    +0.440 HD
ATOM      5  C   LIG    1       -1.383   2.083   0.039  0.00  0.00    +0.130 C 
ATOM      6  C   LIG    1       -2.256   1.883   1.245  0.00  0.00    +0.050 C 
ATOM      7  C   LIG    1       -2.241   0.424   1.749  0.00  0.00    +0.030 C 
ATOM      8  C   LIG    1       -2.294  -0.603   0.601  0.00  0.00    +0.000 C 
ATOM      9  C   LIG    1       -3.260  -0.204  -0.481  0.00  0.00    +0.020 C 
ATOM     10  C   LIG    1       -2.478   0.545  -1.577  0.00  0.00    +0.010 C 
ATOM     11  C   LIG    1       -2.237   1.940  -1.238  0.00  0.00    +0.050 C 
ATOM     12  O   LIG    1        1.978   1.390  -0.051  0.00  0.00    -0.530 OA
ATOM     13  C   LIG    1       -0.712   3.437   0.053  0.00  0.00    +0.530 C 
ATOM     14  O   LIG    1       -1.250   4.522   0.086  0.00  0.00    -0.460 OA
ENDROOT
BRANCH   1  15
ATOM     15  C   LIG    1        1.650   4.216   0.009  0.00  0.00    +0.480 C 
BRANCH  15  16
ATOM     16  N   LIG    1        2.058   4.492  -1.375  0.00  0.00    -0.530 NA
BRANCH  16  17
ATOM     17  C   LIG    1        1.166   5.479  -1.999  0.00  0.00    +0.200 C 
ATOM     18  C   LIG    1        1.407   6.864  -1.374  0.00  0.00    +0.030 C 
ATOM     19  C   LIG    1        0.695   7.893  -2.288  0.00  0.00    -0.300 C 
ATOM     20  S   LIG    1        1.122   7.298  -3.968  0.00  0.00    +2.390 S 
ATOM     21  O   LIG    1       -0.031   7.351  -4.797  0.00  0.00    -0.930 OA
ATOM     22  O   LIG    1        2.328   7.916  -4.394  0.00  0.00    -0.930 OA
ATOM     23  C   LIG    1        1.460   5.560  -3.510  0.00  0.00    -0.300 C 
ENDBRANCH  16  17
BRANCH  16  24
ATOM     24  C   LIG    1        3.457   4.937  -1.433  0.00  0.00    +0.190 C 
BRANCH  24  26
ATOM     25  C   LIG    1        5.835   4.173  -1.440  0.00  0.00    +0.020 C 
ATOM     26  C   LIG    1        4.382   3.732  -1.253  0.00  0.00    +0.020 C 
ENDBRANCH  24  26
ENDBRANCH  16  24
ENDBRANCH  15  16
ENDBRANCH   1  15
TORSDOF 5
