REMARK  Name = ZINCCC0000000cCB.0
REMARK                            x       y       z     vdW  Elec       q    Type
REMARK                         _______ _______ _______ _____ _____    ______ ____
ROOT
ATOM      1  C   LIG    1       -0.235   4.552   5.677  0.00  0.00    +0.090 A 
ATOM      2  C   LIG    1       -0.720   4.327   6.957  0.00  0.00    -0.020 A 
ATOM      3  C   LIG    1       -1.868   3.579   7.140  0.00  0.00    +0.130 A 
ATOM      4  C   LIG    1       -2.539   3.057   6.050  0.00  0.00    -0.650 A 
ATOM      5  C   LIG    1       -2.066   3.280   4.770  0.00  0.00    +0.140 A 
ATOM      6  C   LIG    1       -0.916   4.030   4.577  0.00  0.00    +0.170 A 
ENDROOT
BRANCH   1  10
ATOM      7  N   LIG    1        3.192   6.803   6.380  0.00  0.00    -0.390 N 
ATOM      8  C   LIG    1        2.042   7.468   5.753  0.00  0.00    +0.280 C 
ATOM      9  C   LIG    1        0.772   6.662   6.030  0.00  0.00    +0.230 C 
ATOM     10  N   LIG    1        0.929   5.304   5.490  0.00  0.00    -0.500 N 
ATOM     11  C   LIG    1        2.091   4.634   6.091  0.00  0.00    +0.230 C 
ATOM     12  C   LIG    1        3.351   5.457   5.813  0.00  0.00    +0.270 C 
ATOM     13  H   LIG    1        3.037   6.731   7.375  0.00  0.00    +0.420 HD
BRANCH   7  15
ATOM     14  C   LIG    1        5.583   6.962   6.886  0.00  0.00    +0.080 C 
ATOM     15  C   LIG    1        4.408   7.587   6.129  0.00  0.00    +0.250 C 
ENDBRANCH   7  15
ENDBRANCH   1  10
BRANCH   6  16
ATOM     16  N   LIG    1       -0.435   4.257   3.280  0.00  0.00    -0.670 N 
ATOM     17  H   LIG    1        0.521   4.308   3.120  0.00  0.00    +0.420 HD
ATOM     18  C   LIG    1       -1.299   4.406   2.257  0.00  0.00    +0.500 C 
ATOM     19  O   LIG    1       -2.490   4.267   2.444  0.00  0.00    -0.490 OA
BRANCH  18  20
ATOM     20  C   LIG    1       -0.787   4.745   0.881  0.00  0.00    +0.080 C 
BRANCH  20  21
ATOM     21  C   LIG    1       -1.965   4.856  -0.089  0.00  0.00    +0.300 C 
BRANCH  21  22
ATOM     22  C   LIG    1       -1.466   5.314  -1.435  0.00  0.00    -0.100 A 
ATOM     23  C   LIG    1       -0.961   4.395  -2.334  0.00  0.00    +0.010 A 
ATOM     24  C   LIG    1       -0.507   4.815  -3.571  0.00  0.00    +0.000 A 
ATOM     25  C   LIG    1       -0.550   6.156  -3.904  0.00  0.00    +0.010 A 
ATOM     26  C   LIG    1       -1.051   7.076  -3.002  0.00  0.00    +0.000 A 
ATOM     27  C   LIG    1       -1.508   6.655  -1.767  0.00  0.00    +0.020 A 
ENDBRANCH  21  22
BRANCH  21  28
ATOM     28  N   LIG    1       -2.609   3.547  -0.226  0.00  0.00    -0.720 N 
ATOM     29  H   LIG    1       -2.124   2.741   0.007  0.00  0.00    +0.400 HD
ATOM     30  C   LIG    1       -3.876   3.464  -0.678  0.00  0.00    +0.520 C 
ATOM     31  O   LIG    1       -4.515   4.475  -0.882  0.00  0.00    -0.530 OA
ATOM     32  C   LIG    1       -4.502   2.115  -0.922  0.00  0.00    +0.100 C 
ENDBRANCH  21  28
ENDBRANCH  20  21
ENDBRANCH  18  20
ENDBRANCH   6  16
BRANCH   4  33
ATOM     33  S   LIG    1       -4.001   2.104   6.292  0.00  0.00    +2.680 S 
ATOM     34  O   LIG    1       -4.738   2.185   5.080  0.00  0.00    -0.940 OA
ATOM     35  O   LIG    1       -4.531   2.495   7.551  0.00  0.00    -0.950 OA
BRANCH  33  36
ATOM     36  N   LIG    1       -3.535   0.523   6.452  0.00  0.00    -0.990 NA
ATOM     37  C   LIG    1       -3.435  -0.351   5.275  0.00  0.00    +0.290 C 
ATOM     38  C   LIG    1       -2.034  -0.979   5.251  0.00  0.00    +0.010 C 
ATOM     39  C   LIG    1       -1.776  -1.688   6.582  0.00  0.00    +0.020 C 
ATOM     40  C   LIG    1       -1.826  -0.668   7.723  0.00  0.00    +0.010 C 
ATOM     41  C   LIG    1       -3.220  -0.035   7.774  0.00  0.00    +0.290 C 
ENDBRANCH  33  36
ENDBRANCH   4  33
TORSDOF 9
