REMARK  Name = ZINCpe00000MJIH0.0
REMARK                            x       y       z     vdW  Elec       q    Type
REMARK                         _______ _______ _______ _____ _____    ______ ____
ROOT
ATOM      1  N   LIG    1       -0.011   0.959  -0.006  0.00  0.00    -0.700 NA
ATOM      2  H   LIG    1        0.004  -0.010  -0.020  0.00  0.00    +0.380 HD
ATOM      3  C   LIG    1        1.113   1.632  -0.009  0.00  0.00    +0.450 A 
ATOM      4  C   LIG    1        2.420   0.950   0.091  0.00  0.00    -0.280 A 
ATOM      5  C   LIG    1        3.538   1.612  -0.408  0.00  0.00    +0.230 A 
ATOM      6  C   LIG    1        3.386   2.898  -0.947  0.00  0.00    -0.360 A 
ATOM      7  C   LIG    1        2.159   3.591  -0.822  0.00  0.00    +0.510 A 
ATOM      8  N   LIG    1        2.022   4.785  -1.375  0.00  0.00    -0.570 NA
ATOM      9  C   LIG    1        3.025   5.365  -2.036  0.00  0.00    +0.440 A 
ATOM     10  C   LIG    1        2.820   6.633  -2.609  0.00  0.00    +0.020 A 
ATOM     11  C   LIG    1        3.840   7.242  -3.279  0.00  0.00    +0.150 A 
ATOM     12  C   LIG    1        5.078   6.595  -3.388  0.00  0.00    +0.000 A 
ATOM     13  C   LIG    1        5.257   5.375  -2.834  0.00  0.00    +0.300 A 
ATOM     14  N   LIG    1        4.242   4.757  -2.165  0.00  0.00    -0.440 N 
ATOM     15  C   LIG    1        4.454   3.532  -1.633  0.00  0.00    +0.550 A 
ATOM     16  O   LIG    1        5.537   2.985  -1.741  0.00  0.00    -0.500 OA
ATOM     17  N   LIG    1        1.128   3.017  -0.113  0.00  0.00    -0.490 N 
ENDROOT
BRANCH   4  18
ATOM     18  C   LIG    1        2.536  -0.382   0.697  0.00  0.00    +0.580 C 
ATOM     19  O   LIG    1        1.536  -0.979   1.050  0.00  0.00    -0.550 OA
ATOM     20  N   LIG    1        3.750  -0.943   0.862  0.00  0.00    -0.850 N 
ATOM     21  H   LIG    1        3.823  -1.852   1.193  0.00  0.00    +0.410 HD
ATOM     22  H   LIG    1        4.551  -0.439   0.650  0.00  0.00    +0.400 HD
ENDBRANCH   4  18
BRANCH  17  23
ATOM     23  C   LIG    1        0.089   3.840   0.511  0.00  0.00    +0.450 C 
BRANCH  23  24
ATOM     24  C   LIG    1        0.509   4.202   1.912  0.00  0.00    -0.040 A 
ATOM     25  C   LIG    1        1.214   5.292   2.265  0.00  0.00    -0.030 A 
ATOM     26  C   LIG    1        1.383   5.235   3.667  0.00  0.00    -0.070 A 
ATOM     27  C   LIG    1        0.771   4.113   4.088  0.00  0.00    +0.170 A 
ATOM     28  O   LIG    1        0.238   3.495   3.021  0.00  0.00    -0.170 OA
ENDBRANCH  23  24
ENDBRANCH  17  23
TORSDOF 3
