REMARK  Name = ZINCrH00000No4Rm.0
REMARK                            x       y       z     vdW  Elec       q    Type
REMARK                         _______ _______ _______ _____ _____    ______ ____
ROOT
ATOM      1  C   LIG    1        2.071  -3.445  -1.474  0.00  0.00    -0.240 A 
ATOM      2  C   LIG    1        1.793  -4.752  -1.843  0.00  0.00    +0.330 A 
ATOM      3  N   LIG    1        0.557  -5.048  -1.407  0.00  0.00    -0.300 N 
ATOM      4  N   LIG    1        0.014  -3.944  -0.744  0.00  0.00    -0.280 NA
ATOM      5  C   LIG    1        0.885  -2.961  -0.754  0.00  0.00    +0.170 A 
ENDROOT
BRANCH   3   6
ATOM      6  C   LIG    1       -0.089  -6.276  -1.591  0.00  0.00    +0.150 A 
ATOM      7  C   LIG    1        0.548  -7.303  -2.274  0.00  0.00    -0.010 A 
ATOM      8  C   LIG    1       -0.090  -8.515  -2.448  0.00  0.00    +0.040 A 
ATOM      9  C   LIG    1       -1.368  -8.703  -1.953  0.00  0.00    +0.000 A 
ATOM     10  C   LIG    1       -2.007  -7.681  -1.277  0.00  0.00    +0.030 A 
ATOM     11  C   LIG    1       -1.372  -6.468  -1.094  0.00  0.00    +0.020 A 
ENDBRANCH   3   6
BRANCH   5  12
ATOM     12  C   LIG    1        0.703  -1.616  -0.159  0.00  0.00    -0.020 A 
ATOM     13  C   LIG    1       -0.553  -1.009  -0.170  0.00  0.00    +0.040 A 
ATOM     14  C   LIG    1       -0.716   0.243   0.386  0.00  0.00    +0.010 A 
ATOM     15  C   LIG    1        0.363   0.896   0.955  0.00  0.00    +0.020 A 
ATOM     16  C   LIG    1        1.611   0.300   0.969  0.00  0.00    +0.010 A 
ATOM     17  C   LIG    1        1.786  -0.952   0.415  0.00  0.00    +0.040 A 
ENDBRANCH   5  12
BRANCH   1  19
ATOM     18  C   LIG    1        4.527  -3.292  -1.532  0.00  0.00    -0.160 C 
ATOM     19  C   LIG    1        3.298  -2.699  -1.744  0.00  0.00    +0.280 C 
BRANCH  18  22
ATOM     20  N   LIG    1        5.791  -5.209  -0.706  0.00  0.00    -0.720 N 
ATOM     21  H   LIG    1        6.581  -4.840  -1.131  0.00  0.00    +0.400 HD
ATOM     22  C   LIG    1        4.613  -4.559  -0.793  0.00  0.00    +0.570 C 
ATOM     23  O   LIG    1        3.622  -5.022  -0.261  0.00  0.00    -0.520 OA
BRANCH  20  24
ATOM     24  C   LIG    1        5.877  -6.473   0.031  0.00  0.00    +0.300 C 
BRANCH  24  26
ATOM     25  C   LIG    1        7.931  -7.263   1.087  0.00  0.00    +0.050 C 
ATOM     26  C   LIG    1        7.292  -6.990  -0.023  0.00  0.00    -0.060 C 
ENDBRANCH  24  26
ENDBRANCH  20  24
ENDBRANCH  18  22
BRANCH  18  27
ATOM     27  C   LIG    1        5.716  -2.672  -2.032  0.00  0.00    +0.250 C 
ATOM     28  N   LIG    1        6.660  -2.180  -2.429  0.00  0.00    -0.410 NA
ENDBRANCH  18  27
ENDBRANCH   1  19
TORSDOF 7
