REMARK  Name = ZINCpk00000kOvWZ.0
REMARK                            x       y       z     vdW  Elec       q    Type
REMARK                         _______ _______ _______ _____ _____    ______ ____
ROOT
ATOM      1  N   LIG    1       -4.119   7.521   4.902  0.00  0.00    -0.460 N 
ATOM      2  C   LIG    1       -3.270   8.508   4.219  0.00  0.00    +0.240 C 
ATOM      3  C   LIG    1       -3.091   8.096   2.756  0.00  0.00    +0.210 C 
ATOM      4  N   LIG    1       -2.489   6.756   2.697  0.00  0.00    -0.540 NA
ATOM      5  C   LIG    1       -3.337   5.770   3.380  0.00  0.00    +0.200 C 
ATOM      6  C   LIG    1       -3.517   6.182   4.843  0.00  0.00    +0.220 C 
ENDROOT
BRANCH   1  10
ATOM      7  C   LIG    1       -6.262   6.461   9.042  0.00  0.00    +0.150 C 
ATOM      8  C   LIG    1       -5.401   7.385   8.219  0.00  0.00    +0.320 A 
ATOM      9  N   LIG    1       -5.120   7.103   6.966  0.00  0.00    -0.560 NA
ATOM     10  C   LIG    1       -4.362   7.898   6.210  0.00  0.00    +0.550 A 
ATOM     11  N   LIG    1       -3.829   9.020   6.645  0.00  0.00    -0.550 NA
ATOM     12  C   LIG    1       -4.045   9.425   7.910  0.00  0.00    +0.320 A 
ATOM     13  N   LIG    1       -3.680  10.456   8.641  0.00  0.00    -0.300 NA
ATOM     14  N   LIG    1       -4.223  10.324   9.924  0.00  0.00    -0.410 N 
ATOM     15  H   LIG    1       -4.099  10.957  10.648  0.00  0.00    +0.450 HD
ATOM     16  C   LIG    1       -4.940   9.197  10.004  0.00  0.00    +0.350 A 
ATOM     17  C   LIG    1       -4.879   8.569   8.774  0.00  0.00    -0.340 A 
ENDBRANCH   1  10
BRANCH   4  18
ATOM     18  C   LIG    1       -2.231   6.356   1.307  0.00  0.00    +0.360 C 
BRANCH  18  19
ATOM     19  C   LIG    1       -1.398   5.100   1.293  0.00  0.00    +0.190 A 
ATOM     20  N   LIG    1       -1.844   3.867   1.290  0.00  0.00    -0.480 NA
ATOM     21  C   LIG    1       -0.749   3.086   1.275  0.00  0.00    +0.180 A 
ATOM     22  N   LIG    1        0.288   3.869   1.275  0.00  0.00    -0.380 NA
ATOM     23  O   LIG    1       -0.063   5.030   1.280  0.00  0.00    +0.090 OA
BRANCH  21  24
ATOM     24  C   LIG    1       -0.729   1.579   1.267  0.00  0.00    +0.100 C 
ATOM     25  C   LIG    1        0.011   1.072   2.506  0.00  0.00    +0.040 C 
ATOM     26  C   LIG    1       -0.013   1.086   0.008  0.00  0.00    +0.040 C 
ENDBRANCH  21  24
ENDBRANCH  18  19
ENDBRANCH   4  18
TORSDOF 4
