REMARK  Name = ZINCqH0000006XQV.0
REMARK                            x       y       z     vdW  Elec       q    Type
REMARK                         _______ _______ _______ _____ _____    ______ ____
ROOT
ATOM      1  C   LIG    1        1.190   1.800   0.014  0.00  0.00    +0.210 A 
ATOM      2  N   LIG    1        1.218   3.116   0.007  0.00  0.00    -0.450 NA
ATOM      3  C   LIG    1        0.105   3.854   0.007  0.00  0.00    +0.130 A 
ATOM      4  C   LIG    1        0.166   5.259  -0.000  0.00  0.00    +0.050 A 
ATOM      5  C   LIG    1       -0.986   5.984   0.001  0.00  0.00    +0.030 A 
ATOM      6  C   LIG    1       -2.230   5.358   0.009  0.00  0.00    +0.020 A 
ATOM      7  C   LIG    1       -2.327   3.998   0.016  0.00  0.00    +0.060 A 
ATOM      8  C   LIG    1       -1.164   3.222   0.015  0.00  0.00    -0.070 A 
ATOM      9  C   LIG    1       -1.220   1.759   0.017  0.00  0.00    -0.070 A 
ATOM     10  C   LIG    1       -0.013   1.076   0.022  0.00  0.00    +0.020 A 
ENDROOT
BRANCH   1  14
ATOM     11  C   LIG    1        4.870  -0.330   0.011  0.00  0.00    +0.150 A 
ATOM     12  C   LIG    1        4.873   1.059   0.004  0.00  0.00    -0.020 A 
ATOM     13  C   LIG    1        3.682   1.752   0.005  0.00  0.00    +0.110 A 
ATOM     14  C   LIG    1        2.472   1.058   0.013  0.00  0.00    -0.100 A 
ATOM     15  C   LIG    1        2.472  -0.337   0.025  0.00  0.00    +0.070 A 
ATOM     16  C   LIG    1        3.667  -1.024   0.019  0.00  0.00    -0.080 A 
BRANCH  11  18
ATOM     17  C   LIG    1        5.969  -2.438   0.018  0.00  0.00    +0.240 C 
ATOM     18  O   LIG    1        6.045  -1.010   0.010  0.00  0.00    -0.310 OA
ENDBRANCH  11  18
ENDBRANCH   1  14
BRANCH   9  19
ATOM     19  C   LIG    1       -2.511   1.039   0.020  0.00  0.00    +0.560 C 
ATOM     20  N   LIG    1       -2.534  -0.304  -0.088  0.00  0.00    -0.630 N 
ATOM     21  H   LIG    1       -1.703  -0.798  -0.168  0.00  0.00    +0.420 HD
ATOM     22  O   LIG    1       -3.552   1.659   0.120  0.00  0.00    -0.450 OA
BRANCH  20  23
ATOM     23  C   LIG    1       -3.740  -0.976  -0.086  0.00  0.00    +0.400 C 
ATOM     24  N   LIG    1       -4.892  -0.421   0.019  0.00  0.00    -0.520 NA
ATOM     25  C   LIG    1       -6.088  -1.235   0.004  0.00  0.00    +0.270 C 
ATOM     26  C   LIG    1       -5.744  -2.726  -0.134  0.00  0.00    +0.130 C 
ATOM     27  S   LIG    1       -3.924  -2.729  -0.220  0.00  0.00    -0.180 S 
ENDBRANCH  20  23
ENDBRANCH   9  19
TORSDOF 4
