REMARK  Name = ZINCtV00000L6kZy.0
REMARK                            x       y       z     vdW  Elec       q    Type
REMARK                         _______ _______ _______ _____ _____    ______ ____
ROOT
ATOM      1  C   LIG    1       -3.738   4.149  -0.317  0.00  0.00    -0.250 A 
ATOM      2  C   LIG    1       -2.866   5.200  -0.289  0.00  0.00    +0.080 A 
ATOM      3  O   LIG    1       -1.615   4.741  -0.202  0.00  0.00    -0.170 OA
ATOM      4  C   LIG    1       -1.588   3.393  -0.159  0.00  0.00    +0.030 A 
ATOM      5  C   LIG    1       -0.538   2.453  -0.079  0.00  0.00    +0.010 A 
ATOM      6  C   LIG    1        0.801   2.865  -0.013  0.00  0.00    +0.020 A 
ATOM      7  C   LIG    1        1.791   1.931   0.062  0.00  0.00    +0.030 A 
ATOM      8  C   LIG    1        1.490   0.571   0.073  0.00  0.00    +0.010 A 
ATOM      9  C   LIG    1        0.200   0.138   0.011  0.00  0.00    +0.060 A 
ATOM     10  C   LIG    1       -0.844   1.072  -0.072  0.00  0.00    -0.040 A 
ATOM     11  C   LIG    1       -2.192   0.643  -0.143  0.00  0.00    +0.140 A 
ATOM     12  O   LIG    1       -2.456  -0.690  -0.135  0.00  0.00    -0.330 OA
ATOM     13  C   LIG    1       -3.798  -1.093   0.150  0.00  0.00    +0.430 C 
ATOM     14  N   LIG    1       -4.709  -0.292  -0.685  0.00  0.00    -0.530 NA
ATOM     15  C   LIG    1       -4.636   1.122  -0.294  0.00  0.00    +0.280 C 
ATOM     16  C   LIG    1       -3.194   1.560  -0.223  0.00  0.00    -0.170 A 
ATOM     17  C   LIG    1       -3.256   6.655  -0.347  0.00  0.00    +0.190 C 
ATOM     18  C   LIG    1       -2.899   2.935  -0.238  0.00  0.00    -0.050 A 
ENDROOT
BRANCH   1  20
ATOM     19  C   LIG    1       -6.026   4.299   0.849  0.00  0.00    +0.080 C 
ATOM     20  C   LIG    1       -5.197   4.212  -0.407  0.00  0.00    +0.430 C 
ATOM     21  O   LIG    1       -5.739   4.194  -1.492  0.00  0.00    -0.430 OA
ENDBRANCH   1  20
BRANCH  14  22
ATOM     22  C   LIG    1       -4.400  -0.460  -2.111  0.00  0.00    +0.180 C 
ATOM     23  C   LIG    1       -4.587  -1.927  -2.505  0.00  0.00    +0.060 C 
BRANCH  22  24
ATOM     24  C   LIG    1       -5.326   0.402  -2.931  0.00  0.00    -0.080 A 
ATOM     25  C   LIG    1       -6.682   0.409  -2.661  0.00  0.00    +0.030 A 
ATOM     26  C   LIG    1       -7.531   1.203  -3.410  0.00  0.00    +0.000 A 
ATOM     27  C   LIG    1       -7.025   1.982  -4.434  0.00  0.00    +0.010 A 
ATOM     28  C   LIG    1       -5.670   1.969  -4.707  0.00  0.00    +0.010 A 
ATOM     29  C   LIG    1       -4.821   1.179  -3.956  0.00  0.00    +0.000 A 
ENDBRANCH  22  24
ENDBRANCH  14  22
TORSDOF 3
