REMARK  Name = ZINCpk000000omcv.0
REMARK                            x       y       z     vdW  Elec       q    Type
REMARK                         _______ _______ _______ _____ _____    ______ ____
ROOT
ATOM      1  N   LIG    1       -2.626   1.189   0.140  0.00  0.00    -0.520 NA
ATOM      2  C   LIG    1       -1.680   2.152  -0.439  0.00  0.00    +0.210 C 
ENDROOT
BRANCH   1   3
ATOM      3  C   LIG    1       -2.146   0.694   1.437  0.00  0.00    +0.220 C 
BRANCH   3   9
ATOM      4  N   LIG    1        1.485  -1.938   3.169  0.00  0.00    -0.740 N 
ATOM      5  H   LIG    1        1.124  -1.818   4.061  0.00  0.00    +0.400 HD
ATOM      6  C   LIG    1        0.860  -1.385   2.110  0.00  0.00    +0.690 C 
ATOM      7  N   LIG    1       -0.266  -0.667   2.292  0.00  0.00    -0.690 N 
ATOM      8  H   LIG    1       -0.626  -0.547   3.184  0.00  0.00    +0.410 HD
ATOM      9  C   LIG    1       -0.891  -0.115   1.233  0.00  0.00    +0.520 C 
ATOM     10  O   LIG    1       -0.441  -0.264   0.117  0.00  0.00    -0.440 OA
ATOM     11  O   LIG    1        1.311  -1.535   0.992  0.00  0.00    -0.530 OA
BRANCH   4  12
ATOM     12  C   LIG    1        2.708  -2.719   2.971  0.00  0.00    +0.270 C 
BRANCH  12  14
ATOM     13  C   LIG    1        4.489  -4.045   4.117  0.00  0.00    +0.030 C 
ATOM     14  C   LIG    1        3.211  -3.229   4.323  0.00  0.00    +0.000 C 
ENDBRANCH  12  14
ENDBRANCH   4  12
ENDBRANCH   3   9
ENDBRANCH   1   3
BRANCH   1  15
ATOM     15  C   LIG    1       -3.966   1.777   0.263  0.00  0.00    +0.210 C 
BRANCH  15  16
ATOM     16  C   LIG    1       -5.004   0.659   0.389  0.00  0.00    +0.170 C 
ATOM     17  C   LIG    1       -6.406   1.266   0.532  0.00  0.00    +0.180 C 
ATOM     18  N   LIG    1       -7.371   0.177   0.717  0.00  0.00    -0.490 N 
ATOM     19  C   LIG    1       -7.227  -0.825  -0.247  0.00  0.00    +0.040 A 
ATOM     20  C   LIG    1       -8.292  -1.692  -0.471  0.00  0.00    +0.010 A 
ATOM     21  C   LIG    1       -8.183  -2.700  -1.408  0.00  0.00    +0.000 A 
ATOM     22  C   LIG    1       -7.015  -2.853  -2.130  0.00  0.00    +0.020 A 
ATOM     23  C   LIG    1       -5.952  -1.995  -1.916  0.00  0.00    +0.010 A 
ATOM     24  C   LIG    1       -6.054  -0.979  -0.977  0.00  0.00    +0.090 A 
ATOM     25  O   LIG    1       -4.991  -0.148  -0.793  0.00  0.00    -0.290 OA
BRANCH  18  26
ATOM     26  C   LIG    1       -8.747   0.691   0.742  0.00  0.00    +0.190 C 
ATOM     27  C   LIG    1       -8.838   1.859   1.726  0.00  0.00    +0.040 C 
ENDBRANCH  18  26
ENDBRANCH  15  16
ENDBRANCH   1  15
TORSDOF 7
