REMARK  Name = ZINCAx0000000eh7.0
REMARK                            x       y       z     vdW  Elec       q    Type
REMARK                         _______ _______ _______ _____ _____    ______ ____
ROOT
ATOM      1  N   LIG    1        2.491  -3.738  -0.888  0.00  0.00    -0.410 NA
ATOM      2  C   LIG    1        2.621  -3.236  -2.270  0.00  0.00    +0.180 C 
ATOM      3  C   LIG    1        3.403  -4.505  -2.592  0.00  0.00    -0.060 C 
ATOM      4  C   LIG    1        4.596  -4.331  -3.540  0.00  0.00    +0.040 C 
ATOM      5  C   LIG    1        4.765  -5.730  -4.188  0.00  0.00    +0.010 C 
ATOM      6  C   LIG    1        3.302  -6.210  -4.360  0.00  0.00    +0.010 C 
ATOM      7  C   LIG    1        2.580  -5.691  -3.096  0.00  0.00    +0.050 C 
ATOM      8  C   LIG    1        3.734  -4.504  -1.103  0.00  0.00    +0.110 C 
ENDROOT
BRANCH   8   9
ATOM      9  C   LIG    1        3.710  -5.877  -0.481  0.00  0.00    +0.540 C 
ATOM     10  N   LIG    1        4.866  -6.514  -0.209  0.00  0.00    -0.610 N 
ATOM     11  C   LIG    1        6.156  -5.843  -0.419  0.00  0.00    +0.260 C 
ATOM     12  C   LIG    1        7.030  -6.718  -1.319  0.00  0.00    +0.040 C 
ATOM     13  C   LIG    1        7.118  -8.120  -0.734  0.00  0.00    -0.040 C 
ATOM     14  C   LIG    1        7.815  -8.087   0.640  0.00  0.00    +0.240 C 
ATOM     15  O   LIG    1        8.582  -9.305   0.633  0.00  0.00    -0.300 OA
ATOM     16  C   LIG    1        8.878  -9.645  -0.652  0.00  0.00    +0.110 A 
ATOM     17  C   LIG    1        9.848 -10.512  -1.144  0.00  0.00    -0.010 A 
ATOM     18  C   LIG    1        9.972 -10.720  -2.503  0.00  0.00    +0.050 A 
ATOM     19  C   LIG    1        9.133 -10.069  -3.387  0.00  0.00    -0.020 A 
ATOM     20  C   LIG    1        8.167  -9.202  -2.907  0.00  0.00    +0.060 A 
ATOM     21  C   LIG    1        5.739  -8.757  -0.615  0.00  0.00    +0.040 C 
ATOM     22  C   LIG    1        8.043  -8.989  -1.552  0.00  0.00    -0.160 A 
ATOM     23  C   LIG    1        4.858  -7.894   0.296  0.00  0.00    +0.280 C 
ATOM     24  O   LIG    1        2.650  -6.408  -0.226  0.00  0.00    -0.500 OA
ENDBRANCH   8   9
BRANCH   1  26
ATOM     25  C   LIG    1        3.090  -3.260   1.438  0.00  0.00    +0.070 C 
ATOM     26  C   LIG    1        2.699  -2.659   0.086  0.00  0.00    +0.200 C 
BRANCH  26  27
ATOM     27  C   LIG    1        1.427  -1.866   0.238  0.00  0.00    +0.440 A 
ATOM     28  N   LIG    1        1.470  -0.545   0.248  0.00  0.00    -0.640 NA
ATOM     29  C   LIG    1        0.348   0.158   0.382  0.00  0.00    +0.630 A 
ATOM     30  N   LIG    1       -0.816  -0.469   0.510  0.00  0.00    -0.660 NA
ATOM     31  C   LIG    1       -0.856  -1.797   0.494  0.00  0.00    +0.630 A 
ATOM     32  N   LIG    1        0.270  -2.494   0.361  0.00  0.00    -0.600 NA
BRANCH  31  33
ATOM     33  N   LIG    1       -2.063  -2.453   0.622  0.00  0.00    -0.810 N 
ATOM     34  H   LIG    1       -2.884  -1.945   0.719  0.00  0.00    +0.420 HD
ATOM     35  H   LIG    1       -2.092  -3.423   0.614  0.00  0.00    +0.420 HD
ENDBRANCH  31  33
BRANCH  29  36
ATOM     36  N   LIG    1        0.394   1.537   0.392  0.00  0.00    -0.580 N 
ATOM     37  C   LIG    1       -0.842   2.311   0.533  0.00  0.00    +0.300 C 
ATOM     38  C   LIG    1        1.679   2.228   0.256  0.00  0.00    +0.300 C 
ENDBRANCH  29  36
ENDBRANCH  26  27
ENDBRANCH   1  26
TORSDOF 5
