REMARK  Name = ZINCrg000000rNg1.2
REMARK                            x       y       z     vdW  Elec       q    Type
REMARK                         _______ _______ _______ _____ _____    ______ ____
ROOT
ATOM      1  C   LIG    1       -0.542   0.513   0.207  0.00  0.00    +0.670 A 
ATOM      2  N   LIG    1        0.698   0.079   0.211  0.00  0.00    -0.570 NA
ATOM      3  C   LIG    1        1.729   0.926   0.331  0.00  0.00    +0.380 A 
ATOM      4  C   LIG    1        1.481   2.303   0.455  0.00  0.00    -0.380 A 
ATOM      5  C   LIG    1        0.138   2.756   0.449  0.00  0.00    +0.600 A 
ATOM      6  O   LIG    1       -0.122   3.941   0.554  0.00  0.00    -0.520 OA
ATOM      7  C   LIG    1        2.733   2.942   0.564  0.00  0.00    +0.350 A 
ATOM      8  N   LIG    1        3.667   2.033   0.510  0.00  0.00    -0.280 NA
ATOM      9  N   LIG    1        3.082   0.769   0.366  0.00  0.00    -0.310 N 
ATOM     10  N   LIG    1       -0.846   1.838   0.324  0.00  0.00    -0.670 N 
ATOM     11  H   LIG    1       -1.773   2.123   0.313  0.00  0.00    +0.410 HD
ENDROOT
BRANCH   1  18
ATOM     12  C   LIG    1        0.217  -2.079  -0.001  0.00  0.00    +0.080 C 
ATOM     13  C   LIG    1       -1.282  -1.818  -0.157  0.00  0.00    +0.250 C 
ATOM     14  C   LIG    1       -2.063  -2.642   0.879  0.00  0.00    +0.170 C 
ATOM     15  N   LIG    1       -3.483  -2.272   0.822  0.00  0.00    -0.530 NA
ATOM     16  C   LIG    1       -3.682  -0.864   1.191  0.00  0.00    +0.180 C 
ATOM     17  C   LIG    1       -2.968   0.033   0.174  0.00  0.00    +0.300 C 
ATOM     18  N   LIG    1       -1.563  -0.394   0.081  0.00  0.00    -0.580 N 
BRANCH  15  19
ATOM     19  C   LIG    1       -4.293  -3.157   1.670  0.00  0.00    +0.150 C 
BRANCH  19  20
ATOM     20  C   LIG    1       -4.373  -4.544   1.029  0.00  0.00    +0.210 C 
ATOM     21  C   LIG    1       -5.207  -5.469   1.918  0.00  0.00    +0.010 C 
BRANCH  20  22
ATOM     22  O   LIG    1       -4.986  -4.439  -0.257  0.00  0.00    -0.550 OA
ATOM     23  H   LIG    1       -5.885  -4.082  -0.237  0.00  0.00    +0.370 HD
ENDBRANCH  20  22
ENDBRANCH  19  20
ENDBRANCH  15  19
ENDBRANCH   1  18
BRANCH   9  24
ATOM     24  C   LIG    1        3.770  -0.448   0.274  0.00  0.00    +0.150 A 
ATOM     25  C   LIG    1        3.232  -1.596   0.840  0.00  0.00    +0.020 A 
ATOM     26  C   LIG    1        3.910  -2.795   0.742  0.00  0.00    +0.030 A 
ATOM     27  C   LIG    1        5.128  -2.851   0.091  0.00  0.00    +0.010 A 
ATOM     28  C   LIG    1        5.670  -1.708  -0.469  0.00  0.00    +0.030 A 
ATOM     29  C   LIG    1        4.994  -0.507  -0.379  0.00  0.00    +0.020 A 
ENDBRANCH   9  24
TORSDOF 5
