REMARK  Name = ZINCrD000000fDnW.0
REMARK                            x       y       z     vdW  Elec       q    Type
REMARK                         _______ _______ _______ _____ _____    ______ ____
ROOT
ATOM      1  C   LIG    1       -5.207  -6.073  -1.133  0.00  0.00    +0.160 A 
ATOM      2  N   LIG    1       -5.181  -6.138   0.164  0.00  0.00    -0.380 NA
ATOM      3  O   LIG    1       -4.194  -5.579   0.593  0.00  0.00    +0.080 OA
ATOM      4  C   LIG    1       -3.475  -5.088  -0.421  0.00  0.00    +0.160 A 
ATOM      5  N   LIG    1       -4.114  -5.394  -1.524  0.00  0.00    -0.420 NA
ENDROOT
BRANCH   1   6
ATOM      6  C   LIG    1       -6.269  -6.648  -2.034  0.00  0.00    +0.290 C 
ATOM      7  C   LIG    1       -6.883  -5.509  -2.874  0.00  0.00    +0.040 C 
ATOM      8  C   LIG    1       -7.537  -6.111  -4.089  0.00  0.00    +0.010 C 
ATOM      9  C   LIG    1       -9.040  -6.375  -3.876  0.00  0.00    +0.000 C 
ATOM     10  C   LIG    1       -9.353  -6.960  -2.486  0.00  0.00    +0.000 C 
ATOM     11  C   LIG    1       -8.358  -8.007  -2.065  0.00  0.00    +0.030 C 
ATOM     12  C   LIG    1       -7.263  -7.329  -1.216  0.00  0.00    +0.030 C 
BRANCH   6  15
ATOM     13  C   LIG    1       -4.035  -8.235  -4.706  0.00  0.00    +0.090 C 
ATOM     14  C   LIG    1       -4.672  -7.233  -3.778  0.00  0.00    +0.500 C 
ATOM     15  N   LIG    1       -5.650  -7.622  -2.936  0.00  0.00    -0.730 N 
ATOM     16  H   LIG    1       -5.943  -8.547  -2.927  0.00  0.00    +0.400 HD
ATOM     17  O   LIG    1       -4.305  -6.077  -3.789  0.00  0.00    -0.490 OA
ENDBRANCH   6  15
ENDBRANCH   1   6
BRANCH   4  18
ATOM     18  C   LIG    1       -2.180  -4.325  -0.316  0.00  0.00    +0.220 C 
BRANCH  18  19
ATOM     19  C   LIG    1       -2.478  -2.828  -0.204  0.00  0.00    +0.080 C 
BRANCH  19  20
ATOM     20  C   LIG    1       -1.183  -2.065  -0.099  0.00  0.00    +0.520 C 
ATOM     21  N   LIG    1       -1.199  -0.722   0.010  0.00  0.00    -0.670 N 
ATOM     22  H   LIG    1       -2.044  -0.253   0.098  0.00  0.00    +0.410 HD
ATOM     23  O   LIG    1       -0.125  -2.659  -0.113  0.00  0.00    -0.510 OA
BRANCH  21  24
ATOM     24  C   LIG    1        0.002  -0.004  -0.004  0.00  0.00    +0.140 A 
ATOM     25  C   LIG    1        1.072  -0.452  -0.767  0.00  0.00    +0.010 A 
ATOM     26  C   LIG    1        2.256   0.260  -0.779  0.00  0.00    +0.030 A 
ATOM     27  C   LIG    1        2.376   1.416  -0.032  0.00  0.00    -0.010 A 
ATOM     28  C   LIG    1        1.313   1.865   0.730  0.00  0.00    +0.030 A 
ATOM     29  C   LIG    1        0.126   1.159   0.746  0.00  0.00    -0.020 A 
ENDBRANCH  21  24
ENDBRANCH  19  20
ENDBRANCH  18  19
ENDBRANCH   4  18
TORSDOF 6
