REMARK  Name = ZINCnE000001NQxM.0
REMARK                            x       y       z     vdW  Elec       q    Type
REMARK                         _______ _______ _______ _____ _____    ______ ____
ROOT
ATOM      1  C   LIG    1        4.617   4.065  -0.929  0.00  0.00    +0.520 C 
ATOM      2  N   LIG    1        4.782   5.395  -1.075  0.00  0.00    -0.600 N 
ATOM      3  C   LIG    1        3.903   6.339  -0.371  0.00  0.00    +0.280 C 
ATOM      4  C   LIG    1        3.299   7.308  -1.387  0.00  0.00    -0.100 C 
ATOM      5  C   LIG    1        4.423   7.971  -2.186  0.00  0.00    +0.030 C 
ATOM      6  C   LIG    1        5.211   6.901  -2.946  0.00  0.00    +0.000 C 
ATOM      7  C   LIG    1        5.840   5.928  -1.944  0.00  0.00    +0.230 C 
ATOM      8  C   LIG    1        6.878   6.665  -1.095  0.00  0.00    +0.040 C 
ATOM      9  O   LIG    1        5.407   3.297  -1.435  0.00  0.00    -0.530 OA
ENDROOT
BRANCH   4  10
ATOM     10  C   LIG    1        2.504   8.366  -0.665  0.00  0.00    +0.500 C 
ATOM     11  O   LIG    1        2.426   8.346   0.551  0.00  0.00    -0.700 OA
ATOM     12  O   LIG    1        1.938   9.241  -1.298  0.00  0.00    -0.690 OA
ENDBRANCH   4  10
BRANCH   1  14
ATOM     13  C   LIG    1        3.622   3.902   1.336  0.00  0.00    +0.070 C 
ATOM     14  C   LIG    1        3.450   3.533  -0.139  0.00  0.00    +0.160 C 
BRANCH  14  15
ATOM     15  O   LIG    1        3.395   2.111  -0.270  0.00  0.00    -0.270 OA
BRANCH  15  16
ATOM     16  C   LIG    1        2.165   1.533  -0.216  0.00  0.00    +0.150 A 
ATOM     17  C   LIG    1        1.044   2.308   0.038  0.00  0.00    -0.040 A 
ATOM     18  C   LIG    1       -0.205   1.720   0.093  0.00  0.00    +0.090 A 
ATOM     19  C   LIG    1       -0.338   0.357  -0.105  0.00  0.00    -0.070 A 
ATOM     20  C   LIG    1        0.779  -0.420  -0.359  0.00  0.00    +0.090 A 
ATOM     21 CL   LIG    1       -1.908  -0.380  -0.036  0.00  0.00    -0.060 Cl
ATOM     22  C   LIG    1        2.030   0.165  -0.414  0.00  0.00    -0.060 A 
ATOM     23 CL   LIG    1        3.432  -0.809  -0.732  0.00  0.00    -0.040 Cl
ENDBRANCH  15  16
ENDBRANCH  14  15
ENDBRANCH   1  14
TORSDOF 4
