REMARK  Name = ZINCpe000000WFNq.0
REMARK                            x       y       z     vdW  Elec       q    Type
REMARK                         _______ _______ _______ _____ _____    ______ ____
ROOT
ATOM      1  C   LIG    1       -0.014   1.209   0.009  0.00  0.00    +0.480 C 
ATOM      2  N   LIG    1        1.143   1.898   0.001  0.00  0.00    -0.730 N 
ATOM      3  H   LIG    1        1.130   2.868   0.007  0.00  0.00    +0.400 HD
ATOM      4  O   LIG    1        0.002  -0.004   0.002  0.00  0.00    -0.540 OA
ENDROOT
BRANCH   1   5
ATOM      5  C   LIG    1       -1.330   1.944   0.019  0.00  0.00    +0.260 C 
BRANCH   5  10
ATOM      6  N   LIG    1       -4.731  -0.392  -0.562  0.00  0.00    -0.980 NA
ATOM      7  C   LIG    1       -4.425  -1.151   0.631  0.00  0.00    +0.290 C 
ATOM      8  C   LIG    1       -3.802  -0.214   1.696  0.00  0.00    +0.010 C 
ATOM      9  C   LIG    1       -2.455   0.205   1.263  0.00  0.00    +0.170 C 
ATOM     10  N   LIG    1       -2.433   0.975   0.019  0.00  0.00    -0.510 NA
ATOM     11  C   LIG    1       -2.348   0.092  -1.125  0.00  0.00    +0.180 C 
ATOM     12  C   LIG    1       -3.762  -0.200  -1.662  0.00  0.00    +0.280 C 
BRANCH   6  14
ATOM     13  C   LIG    1       -6.052   1.938   0.037  0.00  0.00    -0.290 C 
ATOM     14  S   LIG    1       -6.233   0.291  -0.702  0.00  0.00    +2.600 S 
ATOM     15  O   LIG    1       -7.067  -0.529   0.105  0.00  0.00    -0.960 OA
ATOM     16  O   LIG    1       -6.442   0.394  -2.104  0.00  0.00    -0.960 OA
ENDBRANCH   6  14
ENDBRANCH   5  10
ENDBRANCH   1   5
BRANCH   2  17
ATOM     17  C   LIG    1        2.422   1.183  -0.015  0.00  0.00    +0.290 C 
BRANCH  17  18
ATOM     18  C   LIG    1        3.571   2.193  -0.020  0.00  0.00    +0.190 C 
BRANCH  18  19
ATOM     19  O   LIG    1        3.565   2.929   1.205  0.00  0.00    -0.310 OA
BRANCH  19  20
ATOM     20  C   LIG    1        4.529   3.874   1.362  0.00  0.00    +0.130 A 
ATOM     21  C   LIG    1        5.465   4.085   0.360  0.00  0.00    -0.060 A 
ATOM     22  C   LIG    1        6.441   5.049   0.520  0.00  0.00    +0.070 A 
ATOM     23  C   LIG    1        6.492   5.797   1.683  0.00  0.00    -0.070 A 
ATOM     24  C   LIG    1        5.562   5.585   2.685  0.00  0.00    +0.070 A 
ATOM     25 CL   LIG    1        7.724   7.004   1.884  0.00  0.00    -0.070 Cl
ATOM     26  C   LIG    1        4.582   4.625   2.527  0.00  0.00    +0.000 A 
ENDBRANCH  19  20
ENDBRANCH  18  19
ENDBRANCH  17  18
ENDBRANCH   2  17
TORSDOF 7
