REMARK  Name = ZINCrD0000071IyE.0
REMARK                            x       y       z     vdW  Elec       q    Type
REMARK                         _______ _______ _______ _____ _____    ______ ____
ROOT
ATOM      1  C   LIG    1        5.159   0.340  -0.635  0.00  0.00    -0.150 A 
ATOM      2  C   LIG    1        5.496  -0.965  -0.998  0.00  0.00    +0.130 A 
ATOM      3  C   LIG    1        6.813  -1.292  -1.243  0.00  0.00    +0.030 A 
ATOM      4  C   LIG    1        7.801  -0.328  -1.131  0.00  0.00    +0.080 A 
ATOM      5  C   LIG    1        7.473   0.969  -0.771  0.00  0.00    -0.680 A 
ATOM      6 CL   LIG    1        9.457  -0.747  -1.441  0.00  0.00    -0.020 Cl
ATOM      7  C   LIG    1        6.159   1.309  -0.528  0.00  0.00    +0.220 A 
ENDROOT
BRANCH   1  10
ATOM      8  N   LIG    1        2.786  -0.239  -0.481  0.00  0.00    -0.660 N 
ATOM      9  H   LIG    1        3.024  -1.161  -0.667  0.00  0.00    +0.410 HD
ATOM     10  C   LIG    1        3.750   0.697  -0.372  0.00  0.00    +0.560 C 
ATOM     11  O   LIG    1        3.459   1.834  -0.056  0.00  0.00    -0.500 OA
BRANCH   8  15
ATOM     12  C   LIG    1       -1.127   0.805  -0.031  0.00  0.00    +0.310 A 
ATOM     13  N   LIG    1       -0.289   1.677  -0.552  0.00  0.00    -0.490 NA
ATOM     14  C   LIG    1        0.988   1.375  -0.720  0.00  0.00    +0.340 A 
ATOM     15  C   LIG    1        1.442   0.119  -0.327  0.00  0.00    +0.030 A 
ATOM     16  C   LIG    1        0.525  -0.771   0.225  0.00  0.00    +0.300 A 
ATOM     17  N   LIG    1       -0.737  -0.394   0.354  0.00  0.00    -0.500 NA
BRANCH  12  18
ATOM     18  C   LIG    1       -2.575   1.190   0.136  0.00  0.00    +0.130 C 
BRANCH  18  20
ATOM     19  C   LIG    1       -4.245   2.229   1.677  0.00  0.00    +0.030 C 
ATOM     20  C   LIG    1       -2.776   1.837   1.508  0.00  0.00    +0.010 C 
ENDBRANCH  18  20
ENDBRANCH  12  18
ENDBRANCH   8  15
ENDBRANCH   1  10
BRANCH   5  21
ATOM     21  S   LIG    1        8.737   2.189  -0.631  0.00  0.00    +2.680 S 
ATOM     22  O   LIG    1        8.089   3.397  -0.259  0.00  0.00    -0.940 OA
ATOM     23  O   LIG    1        9.545   2.065  -1.793  0.00  0.00    -0.930 OA
BRANCH  21  24
ATOM     24  N   LIG    1        9.694   1.758   0.651  0.00  0.00    -0.990 NA
BRANCH  24  25
ATOM     25  C   LIG    1        9.270   2.070   2.018  0.00  0.00    +0.290 C 
ATOM     26  C   LIG    1        8.552   0.859   2.618  0.00  0.00    +0.000 C 
ENDBRANCH  24  25
BRANCH  24  27
ATOM     27  C   LIG    1       10.963   1.066   0.417  0.00  0.00    +0.280 C 
ATOM     28  C   LIG    1       12.114   2.072   0.490  0.00  0.00    +0.020 C 
ENDBRANCH  24  27
ENDBRANCH  21  24
ENDBRANCH   5  21
TORSDOF 8
