REMARK  Name = ZINCrg000000sFee.0
REMARK                            x       y       z     vdW  Elec       q    Type
REMARK                         _______ _______ _______ _____ _____    ______ ____
ROOT
ATOM      1  N   LIG    1       -8.218   0.115  -1.714  0.00  0.00    -1.000 NA
ATOM      2  C   LIG    1       -8.522   1.433  -2.287  0.00  0.00    +0.300 C 
ATOM      3  C   LIG    1       -7.277   1.935  -3.037  0.00  0.00    +0.260 C 
ATOM      4  N   LIG    1       -6.805   0.866  -3.929  0.00  0.00    -0.600 N 
ATOM      5  C   LIG    1       -6.506  -0.454  -3.356  0.00  0.00    +0.290 C 
ATOM      6  C   LIG    1       -6.648   1.093  -5.248  0.00  0.00    +0.560 C 
ATOM      7  O   LIG    1       -6.267   0.198  -5.978  0.00  0.00    -0.530 OA
ATOM      8  C   LIG    1       -7.747  -0.954  -2.605  0.00  0.00    +0.300 C 
ENDROOT
BRANCH   6   9
ATOM      9  C   LIG    1       -6.940   2.430  -5.809  0.00  0.00    -0.130 A 
ATOM     10  C   LIG    1       -6.740   3.573  -5.034  0.00  0.00    +0.060 A 
ATOM     11  C   LIG    1       -7.010   4.818  -5.564  0.00  0.00    +0.020 A 
ATOM     12  C   LIG    1       -7.488   4.934  -6.857  0.00  0.00    +0.070 A 
ATOM     13  C   LIG    1       -7.694   3.804  -7.629  0.00  0.00    -0.100 A 
ATOM     14 BR   LIG    1       -8.347   3.974  -9.396  0.00  0.00    -0.040 Br
ATOM     15  C   LIG    1       -7.423   2.553  -7.113  0.00  0.00    +0.110 A 
ENDBRANCH   6   9
BRANCH   1  16
ATOM     16  S   LIG    1       -8.411  -0.164  -0.093  0.00  0.00    +2.720 S 
ATOM     17  O   LIG    1       -9.352   0.794   0.370  0.00  0.00    -0.950 OA
ATOM     18  O   LIG    1       -8.592  -1.566   0.055  0.00  0.00    -0.960 OA
BRANCH  16  22
ATOM     19  C   LIG    1       -3.562  -0.543   1.924  0.00  0.00    +0.350 C 
ATOM     20  N   LIG    1       -4.849   0.033   1.524  0.00  0.00    -0.400 N 
ATOM     21  C   LIG    1       -5.854  -0.633   0.904  0.00  0.00    +0.330 A 
ATOM     22  C   LIG    1       -6.880   0.225   0.689  0.00  0.00    -0.750 A 
ATOM     23  C   LIG    1       -6.509   1.474   1.197  0.00  0.00    +0.110 A 
ATOM     24  C   LIG    1       -5.240   1.338   1.719  0.00  0.00    -0.060 A 
BRANCH  24  25
ATOM     25  C   LIG    1       -4.448   2.394   2.359  0.00  0.00    +0.590 C 
ATOM     26  O   LIG    1       -3.306   2.168   2.712  0.00  0.00    -0.550 OA
ATOM     27  N   LIG    1       -4.986   3.614   2.557  0.00  0.00    -0.840 N 
ATOM     28  H   LIG    1       -4.492   4.288   3.048  0.00  0.00    +0.410 HD
ATOM     29  H   LIG    1       -5.870   3.816   2.210  0.00  0.00    +0.410 HD
ENDBRANCH  24  25
ENDBRANCH  16  22
ENDBRANCH   1  16
TORSDOF 4
