REMARK  Name = ZINCtV00001bB3jb.0
REMARK                            x       y       z     vdW  Elec       q    Type
REMARK                         _______ _______ _______ _____ _____    ______ ____
ROOT
ATOM      1  C   LIG    1        1.751  -1.602  -0.561  0.00  0.00    +0.620 C 
ATOM      2  N   LIG    1        2.875  -2.098  -0.007  0.00  0.00    -0.560 N 
ATOM      3  C   LIG    1        3.846  -1.211   0.641  0.00  0.00    +0.300 C 
ATOM      4  C   LIG    1        4.065  -1.638   2.091  0.00  0.00    +0.050 C 
ATOM      5  C   LIG    1        4.710  -3.025   2.142  0.00  0.00    +0.120 C 
ATOM      6  S   LIG    1        3.530  -4.245   1.502  0.00  0.00    -0.130 S 
ATOM      7  C   LIG    1        3.137  -3.462  -0.032  0.00  0.00    +0.400 C 
ATOM      8  N   LIG    1        3.096  -4.146  -1.152  0.00  0.00    -0.430 NA
ATOM      9  O   LIG    1        0.897  -2.358  -0.986  0.00  0.00    -0.470 OA
ENDROOT
BRANCH   1  12
ATOM     10  C   LIG    1       -0.879  -0.202  -1.444  0.00  0.00    +0.140 C 
ATOM     11  C   LIG    1        0.408   0.468  -1.038  0.00  0.00    -0.050 A 
ATOM     12  C   LIG    1        1.556  -0.150  -0.652  0.00  0.00    -0.060 A 
ATOM     13  O   LIG    1        2.489   0.783  -0.366  0.00  0.00    -0.160 OA
ATOM     14  C   LIG    1        1.978   2.013  -0.557  0.00  0.00    +0.080 A 
ATOM     15  C   LIG    1        2.509   3.312  -0.408  0.00  0.00    -0.030 A 
ATOM     16  C   LIG    1        3.830   3.511   0.019  0.00  0.00    +0.030 A 
ATOM     17  C   LIG    1        4.313   4.778   0.153  0.00  0.00    +0.010 A 
ATOM     18  C   LIG    1        3.513   5.881  -0.129  0.00  0.00    +0.030 A 
ATOM     19  C   LIG    1        2.225   5.724  -0.546  0.00  0.00    +0.030 A 
ATOM     20  C   LIG    1        1.694   4.433  -0.695  0.00  0.00    -0.020 A 
ATOM     21  C   LIG    1        0.363   4.244  -1.125  0.00  0.00    +0.020 A 
ATOM     22  C   LIG    1       -0.138   2.994  -1.270  0.00  0.00    +0.070 A 
ATOM     23  C   LIG    1        0.654   1.863  -0.985  0.00  0.00    -0.140 A 
ENDBRANCH   1  12
BRANCH   8  24
ATOM     24  C   LIG    1        3.504  -5.453  -1.171  0.00  0.00    +0.090 A 
ATOM     25  C   LIG    1        4.865  -5.763  -1.156  0.00  0.00    +0.000 A 
ATOM     26  C   LIG    1        5.269  -7.082  -1.171  0.00  0.00    +0.030 A 
ATOM     27  C   LIG    1        4.329  -8.096  -1.212  0.00  0.00    +0.010 A 
ATOM     28  C   LIG    1        2.978  -7.796  -1.233  0.00  0.00    +0.030 A 
ATOM     29  C   LIG    1        2.560  -6.481  -1.213  0.00  0.00    +0.010 A 
ENDBRANCH   8  24
TORSDOF 2
