REMARK  Name = ZINCrH000004oiRy.0
REMARK                            x       y       z     vdW  Elec       q    Type
REMARK                         _______ _______ _______ _____ _____    ______ ____
ROOT
ATOM      1  N   LIG    1        3.441   1.728   0.866  0.00  0.00    -0.740 N 
ATOM      2  H   LIG    1        3.335   2.673   1.058  0.00  0.00    +0.400 HD
ATOM      3  C   LIG    1        4.464   1.041   1.413  0.00  0.00    +0.710 C 
ATOM      4  N   LIG    1        5.339   1.667   2.224  0.00  0.00    -0.740 N 
ATOM      5  H   LIG    1        5.233   2.611   2.416  0.00  0.00    +0.400 HD
ATOM      6  O   LIG    1        4.597  -0.144   1.173  0.00  0.00    -0.590 OA
ENDROOT
BRANCH   1   8
ATOM      7  C   LIG    1        3.044   1.025  -1.442  0.00  0.00    +0.040 C 
ATOM      8  C   LIG    1        2.490   1.048  -0.016  0.00  0.00    +0.300 C 
BRANCH   8   9
ATOM      9  C   LIG    1        1.175   1.783   0.000  0.00  0.00    -0.080 A 
ATOM     10  C   LIG    1        1.156   3.165   0.008  0.00  0.00    +0.020 A 
ATOM     11  C   LIG    1       -0.050   3.841   0.023  0.00  0.00    +0.040 A 
ATOM     12  C   LIG    1       -1.238   3.135   0.031  0.00  0.00    +0.030 A 
ATOM     13  C   LIG    1       -1.220   1.751   0.017  0.00  0.00    -0.030 A 
ATOM     14 CL   LIG    1       -2.712   0.863   0.019  0.00  0.00    -0.060 Cl
ATOM     15  C   LIG    1       -0.013   1.076   0.008  0.00  0.00    +0.040 A 
ENDBRANCH   8   9
ENDBRANCH   1   8
BRANCH   4  16
ATOM     16  C   LIG    1        6.451   0.919   2.818  0.00  0.00    +0.340 C 
BRANCH  16  17
ATOM     17  C   LIG    1        7.275   1.843   3.677  0.00  0.00    -0.110 A 
ATOM     18  C   LIG    1        8.341   2.531   3.128  0.00  0.00    +0.030 A 
ATOM     19  C   LIG    1        9.093   3.382   3.915  0.00  0.00    +0.030 A 
ATOM     20  C   LIG    1        8.787   3.538   5.254  0.00  0.00    -0.070 A 
ATOM     21  C   LIG    1        7.724   2.846   5.805  0.00  0.00    +0.000 A 
ATOM     22  C   LIG    1        6.968   1.999   5.016  0.00  0.00    +0.020 A 
BRANCH  20  23
ATOM     23  C   LIG    1        9.611   4.461   6.114  0.00  0.00    +0.230 C 
BRANCH  23  24
ATOM     24  N   LIG    1       10.725   3.712   6.709  0.00  0.00    -0.530 NA
ATOM     25  C   LIG    1       10.234   2.705   7.660  0.00  0.00    +0.140 C 
ATOM     26  C   LIG    1       11.421   1.909   8.211  0.00  0.00    +0.220 C 
ATOM     27  O   LIG    1       12.355   2.810   8.810  0.00  0.00    -0.390 OA
ATOM     28  C   LIG    1       12.855   3.804   7.912  0.00  0.00    +0.220 C 
ATOM     29  C   LIG    1       11.683   4.619   7.358  0.00  0.00    +0.150 C 
ENDBRANCH  23  24
ENDBRANCH  20  23
ENDBRANCH  16  17
ENDBRANCH   4  16
TORSDOF 6
