REMARK  Name = ZINCqH0000032fdV.1
REMARK                            x       y       z     vdW  Elec       q    Type
REMARK                         _______ _______ _______ _____ _____    ______ ____
ROOT
ATOM      1  C   LIG    1       -0.013   1.086   0.008  0.00  0.00    +0.360 C 
ENDROOT
BRANCH   1   2
ATOM      2  N   LIG    1       -0.721   1.571  -1.179  0.00  0.00    -0.450 N 
ATOM      3  C   LIG    1       -1.743   0.923  -1.844  0.00  0.00    +0.080 A 
ATOM      4  C   LIG    1       -2.412  -0.278  -1.653  0.00  0.00    +0.020 A 
ATOM      5  C   LIG    1       -3.422  -0.642  -2.518  0.00  0.00    +0.060 A 
ATOM      6  C   LIG    1       -3.778   0.186  -3.572  0.00  0.00    +0.020 A 
ATOM      7  C   LIG    1       -3.135   1.375  -3.772  0.00  0.00    +0.090 A 
ATOM      8  C   LIG    1       -2.108   1.765  -2.909  0.00  0.00    +0.040 A 
ATOM      9  N   LIG    1       -1.301   2.855  -2.845  0.00  0.00    -0.420 NA
ATOM     10  C   LIG    1       -0.490   2.741  -1.833  0.00  0.00    +0.190 A 
BRANCH  10  11
ATOM     11  C   LIG    1        0.552   3.757  -1.444  0.00  0.00    +0.560 C 
ATOM     12  F   LIG    1        1.819   3.289  -1.808  0.00  0.00    -0.160 F 
ATOM     13  F   LIG    1        0.510   3.961  -0.060  0.00  0.00    -0.160 F 
ATOM     14  F   LIG    1        0.294   4.965  -2.101  0.00  0.00    -0.140 F 
ENDBRANCH  10  11
ENDBRANCH   1   2
BRANCH   1  17
ATOM     15  N   LIG    1       -0.242   1.246   2.466  0.00  0.00    -0.620 N 
ATOM     16  H   LIG    1        0.555   0.699   2.544  0.00  0.00    +0.430 HD
ATOM     17  C   LIG    1       -0.718   1.572   1.248  0.00  0.00    +0.490 C 
ATOM     18  O   LIG    1       -1.715   2.256   1.150  0.00  0.00    -0.440 OA
BRANCH  15  22
ATOM     19  C   LIG    1       -1.790   2.313   5.799  0.00  0.00    +0.020 A 
ATOM     20  N   LIG    1       -2.430   2.751   4.761  0.00  0.00    -0.230 NA
ATOM     21  N   LIG    1       -1.963   2.429   3.633  0.00  0.00    -0.260 NA
ATOM     22  C   LIG    1       -0.892   1.694   3.610  0.00  0.00    +0.220 A 
ATOM     23  S   LIG    1       -0.419   1.363   5.223  0.00  0.00    +0.120 S 
BRANCH  19  24
ATOM     24  C   LIG    1       -2.154   2.564   7.239  0.00  0.00    +0.160 C 
BRANCH  24  26
ATOM     25  C   LIG    1       -2.353   0.121   7.726  0.00  0.00    +0.010 C 
ATOM     26  C   LIG    1       -3.094   1.460   7.728  0.00  0.00    -0.010 C 
ATOM     27  C   LIG    1       -3.563   1.781   9.149  0.00  0.00    +0.030 C 
ENDBRANCH  24  26
ENDBRANCH  19  24
ENDBRANCH  15  22
ENDBRANCH   1  17
TORSDOF 6
