REMARK  Name = ZINCqH0000001K8d.0
REMARK                            x       y       z     vdW  Elec       q    Type
REMARK                         _______ _______ _______ _____ _____    ______ ____
ROOT
ATOM      1  C   LIG    1        1.282   1.686  -0.001  0.00  0.00    +0.220 A 
ATOM      2  N   LIG    1        2.004   0.596  -0.014  0.00  0.00    -0.370 NA
ATOM      3  O   LIG    1        1.285  -0.380  -0.012  0.00  0.00    +0.100 OA
ATOM      4  C   LIG    1        0.002  -0.004   0.002  0.00  0.00    +0.160 A 
ATOM      5  N   LIG    1       -0.016   1.306   0.009  0.00  0.00    -0.450 NA
ENDROOT
BRANCH   1   9
ATOM      6  C   LIG    1        2.740   5.681   0.004  0.00  0.00    -0.050 A 
ATOM      7  C   LIG    1        3.630   4.623  -0.009  0.00  0.00    +0.010 A 
ATOM      8  C   LIG    1        3.163   3.324  -0.011  0.00  0.00    +0.050 A 
ATOM      9  C   LIG    1        1.791   3.081   0.001  0.00  0.00    -0.040 A 
ATOM     10  C   LIG    1        0.898   4.151   0.009  0.00  0.00    +0.070 A 
ATOM     11  C   LIG    1        1.377   5.445   0.015  0.00  0.00    +0.010 A 
BRANCH   6  13
ATOM     12  C   LIG    1        2.742   7.828  -1.237  0.00  0.00    +0.030 C 
ATOM     13  C   LIG    1        3.257   7.097   0.004  0.00  0.00    +0.020 C 
ATOM     14  C   LIG    1        2.766   7.818   1.261  0.00  0.00    +0.030 C 
ENDBRANCH   6  13
ENDBRANCH   1   9
BRANCH   4  15
ATOM     15  C   LIG    1       -1.198  -0.916   0.008  0.00  0.00    +0.430 C 
BRANCH  15  16
ATOM     16  N   LIG    1       -1.600  -1.204  -1.371  0.00  0.00    -0.740 N 
ATOM     17  H   LIG    1       -1.104  -0.818  -2.111  0.00  0.00    +0.410 HD
BRANCH  16  18
ATOM     18  C   LIG    1       -2.697  -2.034  -1.621  0.00  0.00    +0.220 A 
ATOM     19  C   LIG    1       -3.403  -2.590  -0.554  0.00  0.00    +0.000 A 
ATOM     20  C   LIG    1       -4.480  -3.400  -0.779  0.00  0.00    +0.080 A 
ATOM     21  C   LIG    1       -4.876  -3.684  -2.079  0.00  0.00    -0.020 A 
ATOM     22  C   LIG    1       -4.169  -3.133  -3.165  0.00  0.00    +0.060 A 
ATOM     23  N   LIG    1       -4.789  -3.590  -4.272  0.00  0.00    -0.270 NA
ATOM     24  N   LIG    1       -5.774  -4.343  -3.926  0.00  0.00    -0.020 NA
ATOM     25  N   LIG    1       -5.877  -4.437  -2.646  0.00  0.00    -0.320 N 
ATOM     26  C   LIG    1       -6.885  -5.213  -1.920  0.00  0.00    +0.380 C 
ATOM     27  C   LIG    1       -3.072  -2.303  -2.924  0.00  0.00    +0.000 A 
ENDBRANCH  16  18
ENDBRANCH  15  16
ENDBRANCH   4  15
TORSDOF 5
