REMARK  Name = ZINCrH000004jg4G.0
REMARK                            x       y       z     vdW  Elec       q    Type
REMARK                         _______ _______ _______ _____ _____    ______ ____
ROOT
ATOM      1  N   LIG    1        0.050   0.842  -0.006  0.00  0.00    -0.660 N 
ATOM      2  H   LIG    1        0.062  -0.018  -0.455  0.00  0.00    +0.410 HD
ATOM      3  C   LIG    1        1.168   1.310   0.583  0.00  0.00    +0.590 C 
ATOM      4  O   LIG    1        1.177   2.423   1.074  0.00  0.00    -0.500 OA
ENDROOT
BRANCH   3   5
ATOM      5  C   LIG    1        2.377   0.476   0.632  0.00  0.00    +0.000 A 
ATOM      6  C   LIG    1        3.562   0.838   1.191  0.00  0.00    +0.080 A 
ATOM      7  C   LIG    1        4.462  -0.243   1.033  0.00  0.00    -0.150 A 
ATOM      8  C   LIG    1        5.798  -0.442   1.404  0.00  0.00    +0.120 A 
ATOM      9  C   LIG    1        6.419  -1.618   1.102  0.00  0.00    -0.090 A 
ATOM     10  C   LIG    1        5.736  -2.627   0.426  0.00  0.00    +0.160 A 
ATOM     11  C   LIG    1        4.417  -2.452   0.050  0.00  0.00    -0.050 A 
ATOM     12  C   LIG    1        3.767  -1.260   0.348  0.00  0.00    +0.160 A 
ATOM     13  N   LIG    1        2.492  -0.800   0.113  0.00  0.00    -0.580 N 
ATOM     14  H   LIG    1        1.790  -1.290  -0.344  0.00  0.00    +0.420 HD
BRANCH  10  15
ATOM     15  O   LIG    1        6.371  -3.792   0.134  0.00  0.00    -0.320 OA
ATOM     16  C   LIG    1        7.733  -3.910   0.549  0.00  0.00    +0.250 C 
ENDBRANCH  10  15
ENDBRANCH   3   5
BRANCH   1  22
ATOM     17  C   LIG    1       -2.367   0.959   0.117  0.00  0.00    -0.050 A 
ATOM     18  C   LIG    1       -3.532   1.722   0.153  0.00  0.00    +0.090 A 
ATOM     19  C   LIG    1       -3.457   3.099   0.089  0.00  0.00    -0.010 A 
ATOM     20  C   LIG    1       -2.227   3.726  -0.006  0.00  0.00    +0.050 A 
ATOM     21  C   LIG    1       -1.064   2.981  -0.038  0.00  0.00    +0.020 A 
ATOM     22  C   LIG    1       -1.124   1.597   0.026  0.00  0.00    +0.180 A 
BRANCH  17  25
ATOM     23  C   LIG    1       -3.277  -2.518   0.234  0.00  0.00    +0.300 A 
ATOM     24  N   LIG    1       -3.570  -1.246   0.168  0.00  0.00    -0.520 NA
ATOM     25  C   LIG    1       -2.443  -0.521   0.178  0.00  0.00    +0.290 A 
ATOM     26  N   LIG    1       -1.415  -1.339   0.247  0.00  0.00    -0.330 NA
ATOM     27  N   LIG    1       -1.939  -2.641   0.289  0.00  0.00    -0.480 N 
ATOM     28  H   LIG    1       -1.434  -3.468   0.343  0.00  0.00    +0.440 HD
BRANCH  23  30
ATOM     29  C   LIG    1       -5.271  -3.442   1.383  0.00  0.00    +0.050 C 
ATOM     30  C   LIG    1       -4.269  -3.652   0.246  0.00  0.00    +0.140 C 
ENDBRANCH  23  30
ENDBRANCH  17  25
ENDBRANCH   1  22
TORSDOF 5
