REMARK  Name = ZINCrH000004ouSj.0
REMARK                            x       y       z     vdW  Elec       q    Type
REMARK                         _______ _______ _______ _____ _____    ______ ____
ROOT
ATOM      1  C   LIG    1        1.149  -0.737  -1.119  0.00  0.00    +0.490 C 
ATOM      2  N   LIG    1        0.619  -1.339  -2.203  0.00  0.00    -0.610 N 
ATOM      3  C   LIG    1       -0.836  -1.361  -2.419  0.00  0.00    +0.310 C 
ATOM      4  C   LIG    1       -1.160  -0.562  -3.692  0.00  0.00    +0.100 C 
ATOM      5  C   LIG    1       -0.201  -0.970  -4.786  0.00  0.00    +0.090 A 
ATOM      6  C   LIG    1        0.973  -1.602  -4.566  0.00  0.00    -0.180 A 
ATOM      7  C   LIG    1        1.599  -1.805  -5.855  0.00  0.00    -0.070 A 
ATOM      8  C   LIG    1        2.806  -2.396  -6.241  0.00  0.00    +0.040 A 
ATOM      9  C   LIG    1        3.087  -2.414  -7.597  0.00  0.00    +0.070 A 
ATOM     10  C   LIG    1        2.217  -1.874  -8.532  0.00  0.00    +0.010 A 
ATOM     11  C   LIG    1        1.017  -1.285  -8.171  0.00  0.00    +0.040 A 
ATOM     12  F   LIG    1        4.242  -2.973  -8.021  0.00  0.00    -0.140 F 
ATOM     13  C   LIG    1        0.709  -1.253  -6.813  0.00  0.00    +0.090 A 
ATOM     14  N   LIG    1       -0.367  -0.760  -6.130  0.00  0.00    -0.580 N 
ATOM     15  H   LIG    1       -1.134  -0.327  -6.537  0.00  0.00    +0.420 HD
ATOM     16  C   LIG    1        1.480  -1.997  -3.201  0.00  0.00    +0.370 C 
ATOM     17  O   LIG    1        2.353  -0.640  -1.008  0.00  0.00    -0.520 OA
ENDROOT
BRANCH   1  18
ATOM     18  C   LIG    1        0.247  -0.186  -0.046  0.00  0.00    +0.130 C 
ATOM     19  C   LIG    1       -0.384   1.121  -0.531  0.00  0.00    +0.080 C 
BRANCH  18  21
ATOM     20  C   LIG    1        0.150   0.654   2.305  0.00  0.00    +0.050 C 
ATOM     21  C   LIG    1        1.063   0.081   1.220  0.00  0.00    +0.030 C 
BRANCH  21  22
ATOM     22  C   LIG    1        1.673  -1.209   1.706  0.00  0.00    -0.080 A 
ATOM     23  C   LIG    1        0.863  -2.209   2.210  0.00  0.00    +0.000 A 
ATOM     24  C   LIG    1        1.422  -3.394   2.652  0.00  0.00    +0.000 A 
ATOM     25  C   LIG    1        2.792  -3.575   2.597  0.00  0.00    +0.000 A 
ATOM     26  C   LIG    1        3.602  -2.572   2.098  0.00  0.00    +0.000 A 
ATOM     27  C   LIG    1        3.043  -1.389   1.652  0.00  0.00    +0.030 A 
ENDBRANCH  21  22
ENDBRANCH  18  21
BRANCH  18  28
ATOM     28  O   LIG    1       -0.784  -1.133   0.243  0.00  0.00    -0.540 OA
ATOM     29  H   LIG    1       -0.458  -2.024   0.431  0.00  0.00    +0.380 HD
ENDBRANCH  18  28
ENDBRANCH   1  18
TORSDOF 4
