REMARK  Name = ZINCrg00000fSoVb.0
REMARK                            x       y       z     vdW  Elec       q    Type
REMARK                         _______ _______ _______ _____ _____    ______ ____
ROOT
ATOM      1  C   LIG    1       -5.349  -0.489  -1.859  0.00  0.00    +0.510 C 
ATOM      2  N   LIG    1       -4.772  -0.360  -0.648  0.00  0.00    -0.600 N 
ATOM      3  C   LIG    1       -4.112  -1.510  -0.024  0.00  0.00    +0.300 C 
ATOM      4  O   LIG    1       -5.895   0.462  -2.376  0.00  0.00    -0.520 OA
ENDROOT
BRANCH   1   5
ATOM      5  C   LIG    1       -5.315  -1.817  -2.571  0.00  0.00    +0.380 C 
BRANCH   5   9
ATOM      6  C   LIG    1       -9.440  -2.157  -4.969  0.00  0.00    +0.180 C 
ATOM      7  C   LIG    1       -7.964  -1.857  -5.012  0.00  0.00    +0.070 A 
ATOM      8  N   LIG    1       -7.263  -1.935  -3.916  0.00  0.00    -0.200 NA
ATOM      9  N   LIG    1       -6.005  -1.698  -3.858  0.00  0.00    -0.330 N 
ATOM     10  C   LIG    1       -5.299  -1.338  -4.949  0.00  0.00    +0.510 A 
ATOM     11  C   LIG    1       -6.003  -1.228  -6.233  0.00  0.00    -0.110 A 
ATOM     12  O   LIG    1       -4.104  -1.112  -4.872  0.00  0.00    -0.510 OA
ATOM     13  C   LIG    1       -7.371  -1.499  -6.228  0.00  0.00    +0.040 A 
ATOM     14  C   LIG    1       -8.185  -1.409  -7.493  0.00  0.00    +0.150 C 
BRANCH  11  15
ATOM     15  C   LIG    1       -5.318  -0.856  -7.434  0.00  0.00    +0.270 C 
ATOM     16  N   LIG    1       -4.774  -0.560  -8.386  0.00  0.00    -0.390 NA
ENDBRANCH  11  15
ENDBRANCH   5   9
ENDBRANCH   1   5
BRANCH   2  17
ATOM     17  C   LIG    1       -4.804   0.931   0.044  0.00  0.00    +0.340 C 
BRANCH  17  18
ATOM     18  C   LIG    1       -3.573   1.750  -0.346  0.00  0.00    +0.120 C 
ATOM     19  C   LIG    1       -3.586   3.091   0.400  0.00  0.00    +0.230 C 
ATOM     20  O   LIG    1       -2.415   3.825   0.033  0.00  0.00    -0.300 OA
ATOM     21  C   LIG    1       -1.238   3.142   0.027  0.00  0.00    +0.050 A 
ATOM     22  C   LIG    1       -0.043   3.845   0.022  0.00  0.00    +0.020 A 
ATOM     23  C   LIG    1        1.160   3.165   0.008  0.00  0.00    +0.020 A 
ATOM     24  C   LIG    1        1.175   1.783   0.000  0.00  0.00    +0.010 A 
ATOM     25  C   LIG    1       -0.013   1.076   0.008  0.00  0.00    +0.020 A 
ATOM     26  C   LIG    1       -1.223   1.752   0.017  0.00  0.00    +0.050 A 
ATOM     27  O   LIG    1       -2.385   1.043   0.025  0.00  0.00    -0.300 OA
ENDBRANCH  17  18
ENDBRANCH   2  17
TORSDOF 5
