REMARK  Name = ZINCwl0000000m56.0
REMARK                            x       y       z     vdW  Elec       q    Type
REMARK                         _______ _______ _______ _____ _____    ______ ____
ROOT
ATOM      1  C   LIG    1        1.248   1.716  -0.001  0.00  0.00    +0.230 C 
ENDROOT
BRANCH   1   2
ATOM      2  N   LIG    1       -0.011   0.966   0.007  0.00  0.00    -0.730 N 
ATOM      3  H   LIG    1        0.002  -0.004   0.002  0.00  0.00    +0.400 HD
ATOM      4  C   LIG    1       -1.187   1.624   0.017  0.00  0.00    +0.570 C 
ATOM      5  O   LIG    1       -1.204   2.840   0.023  0.00  0.00    -0.520 OA
BRANCH   4   6
ATOM      6  C   LIG    1       -2.455   0.869   0.018  0.00  0.00    -0.230 A 
ATOM      7  C   LIG    1       -3.685   1.544   0.028  0.00  0.00    +0.160 A 
ATOM      8  C   LIG    1       -4.836   0.803   0.029  0.00  0.00    -0.040 A 
ATOM      9  C   LIG    1       -4.754  -0.588   0.020  0.00  0.00    +0.340 A 
ATOM     10  N   LIG    1       -3.578  -1.202   0.011  0.00  0.00    -0.530 NA
ATOM     11  C   LIG    1       -2.448  -0.527   0.005  0.00  0.00    +0.320 A 
BRANCH   9  12
ATOM     12  N   LIG    1       -5.916  -1.341   0.021  0.00  0.00    -0.470 N 
ATOM     13  C   LIG    1       -6.772  -0.986   1.161  0.00  0.00    +0.200 C 
ATOM     14  C   LIG    1       -8.105  -1.729   1.050  0.00  0.00    +0.040 C 
ATOM     15  C   LIG    1       -7.844  -3.237   1.034  0.00  0.00    -0.030 C 
ATOM     16  C   LIG    1       -6.912  -3.574  -0.134  0.00  0.00    +0.020 C 
ATOM     17  C   LIG    1       -9.168  -3.985   0.862  0.00  0.00    +0.030 C 
ATOM     18  C   LIG    1       -5.613  -2.778   0.012  0.00  0.00    +0.210 C 
ENDBRANCH   9  12
ENDBRANCH   4   6
ENDBRANCH   1   2
BRANCH   1  20
ATOM     19  C   LIG    1        0.558   3.058  -1.992  0.00  0.00    +0.020 C 
ATOM     20  C   LIG    1        1.608   2.092  -1.439  0.00  0.00    +0.020 C 
ENDBRANCH   1  20
BRANCH   1  21
ATOM     21  C   LIG    1        2.361   0.850   0.594  0.00  0.00    +0.280 C 
BRANCH  21  22
ATOM     22  N   LIG    1        1.963   0.391   1.927  0.00  0.00    -0.730 N 
ATOM     23  H   LIG    1        1.102   0.649   2.292  0.00  0.00    +0.400 HD
ATOM     24  C   LIG    1        2.792  -0.392   2.645  0.00  0.00    +0.510 C 
ATOM     25  O   LIG    1        3.868  -0.715   2.188  0.00  0.00    -0.520 OA
BRANCH  24  26
ATOM     26  C   LIG    1        2.383  -0.864   4.017  0.00  0.00    +0.230 C 
BRANCH  26  27
ATOM     27  N   LIG    1        3.451  -1.695   4.587  0.00  0.00    -0.520 NA
ATOM     28  C   LIG    1        3.612  -2.942   3.827  0.00  0.00    +0.220 C 
ATOM     29  C   LIG    1        4.771  -3.750   4.415  0.00  0.00    +0.280 C 
ATOM     30  N   LIG    1        4.493  -4.049   5.826  0.00  0.00    -0.390 N 
ATOM     31  C   LIG    1        4.360  -2.794   6.577  0.00  0.00    +0.280 C 
ATOM     32  H   LIG    1        3.634  -4.575   5.896  0.00  0.00    +0.420 HD
ATOM     33  C   LIG    1        3.197  -1.978   6.007  0.00  0.00    +0.220 C 
BRANCH  30  34
ATOM     34  C   LIG    1        5.597  -4.839   6.386  0.00  0.00    +0.250 C 
ATOM     35  C   LIG    1        5.657  -6.199   5.686  0.00  0.00    +0.080 C 
ENDBRANCH  30  34
ENDBRANCH  26  27
ENDBRANCH  24  26
ENDBRANCH  21  22
ENDBRANCH   1  21
TORSDOF 9
