REMARK  Name = ZINCrH000004k6J3.0
REMARK                            x       y       z     vdW  Elec       q    Type
REMARK                         _______ _______ _______ _____ _____    ______ ____
ROOT
ATOM      1  N   LIG    1        1.104   1.892  -2.423  0.00  0.00    -0.720 N 
ATOM      2  H   LIG    1        0.742   1.061  -2.771  0.00  0.00    +0.410 HD
ATOM      3  C   LIG    1        0.715   3.069  -2.951  0.00  0.00    +0.710 C 
ATOM      4  N   LIG    1       -0.177   3.093  -3.961  0.00  0.00    -0.720 N 
ATOM      5  H   LIG    1       -0.539   2.263  -4.308  0.00  0.00    +0.400 HD
ATOM      6  O   LIG    1        1.168   4.110  -2.516  0.00  0.00    -0.590 OA
ENDROOT
BRANCH   1  12
ATOM      7  C   LIG    1        0.077  -1.893  -1.764  0.00  0.00    +0.220 C 
ATOM      8  N   LIG    1        0.634  -0.591  -1.374  0.00  0.00    -0.500 N 
ATOM      9  C   LIG    1        0.092  -0.153  -0.081  0.00  0.00    +0.190 C 
ATOM     10  C   LIG    1        0.000   1.359  -0.010  0.00  0.00    +0.030 C 
ATOM     11  C   LIG    1        1.348   2.057   0.010  0.00  0.00    +0.020 C 
ATOM     12  C   LIG    1        2.074   1.866  -1.326  0.00  0.00    +0.320 C 
ATOM     13  C   LIG    1        2.776   0.524  -1.296  0.00  0.00    -0.100 A 
ATOM     14  C   LIG    1        4.155   0.473  -1.243  0.00  0.00    +0.040 A 
ATOM     15  C   LIG    1        4.795  -0.754  -1.220  0.00  0.00    +0.000 A 
ATOM     16  C   LIG    1        4.057  -1.923  -1.248  0.00  0.00    +0.020 A 
ATOM     17  C   LIG    1        2.677  -1.872  -1.300  0.00  0.00    -0.030 A 
ATOM     18  C   LIG    1        2.035  -0.638  -1.323  0.00  0.00    +0.110 A 
ENDBRANCH   1  12
BRANCH   4  19
ATOM     19  C   LIG    1       -0.601   4.373  -4.534  0.00  0.00    +0.300 C 
ATOM     20  C   LIG    1       -1.971   4.424  -5.213  0.00  0.00    -0.030 C 
ATOM     21  C   LIG    1       -2.652   3.102  -5.593  0.00  0.00    +0.120 C 
ATOM     22  C   LIG    1       -1.766   2.425  -6.611  0.00  0.00    -0.070 A 
ATOM     23  C   LIG    1       -1.931   1.209  -7.258  0.00  0.00    +0.000 A 
ATOM     24  C   LIG    1       -0.985   0.770  -8.166  0.00  0.00    +0.100 A 
ATOM     25  C   LIG    1        0.130   1.547  -8.430  0.00  0.00    -0.010 A 
ATOM     26  C   LIG    1        0.292   2.757  -7.786  0.00  0.00    +0.060 A 
ATOM     27  F   LIG    1       -1.148  -0.415  -8.794  0.00  0.00    -0.140 F 
ATOM     28  C   LIG    1       -0.656   3.198  -6.874  0.00  0.00    -0.070 A 
ATOM     29  C   LIG    1       -0.692   4.468  -6.058  0.00  0.00    -0.010 C 
ENDBRANCH   4  19
TORSDOF 2
