REMARK  Name = ZINCrD000000C3jR.0
REMARK                            x       y       z     vdW  Elec       q    Type
REMARK                         _______ _______ _______ _____ _____    ______ ____
ROOT
ATOM      1  O   LIG    1       -5.954   7.125  -0.304  0.00  0.00    -0.500 OA
ATOM      2  C   LIG    1       -4.929   7.778  -0.332  0.00  0.00    +0.590 C 
ATOM      3  N   LIG    1       -4.988   9.120  -0.436  0.00  0.00    -0.650 N 
ATOM      4  H   LIG    1       -4.171   9.636  -0.520  0.00  0.00    +0.420 HD
ENDROOT
BRANCH   3   5
ATOM      5  C   LIG    1       -6.224   9.767  -0.423  0.00  0.00    +0.180 A 
ATOM      6  C   LIG    1       -6.344  11.017   0.187  0.00  0.00    -0.020 A 
ATOM      7  C   LIG    1       -7.543  11.670   0.212  0.00  0.00    +0.110 A 
ATOM      8  C   LIG    1       -8.664  11.084  -0.378  0.00  0.00    -0.170 A 
ATOM      9  C   LIG    1       -9.972  11.743  -0.378  0.00  0.00    +0.550 A 
ATOM     10  N   LIG    1      -11.020  11.130  -0.964  0.00  0.00    -0.630 N 
ATOM     11  H   LIG    1      -11.883  11.571  -0.959  0.00  0.00    +0.420 HD
ATOM     12  C   LIG    1      -10.908   9.907  -1.562  0.00  0.00    +0.270 A 
ATOM     13  C   LIG    1       -9.748   9.233  -1.609  0.00  0.00    -0.050 A 
ATOM     14  O   LIG    1      -10.113  12.834   0.146  0.00  0.00    -0.530 OA
ATOM     15  C   LIG    1       -8.551   9.817  -1.000  0.00  0.00    +0.020 A 
ATOM     16  C   LIG    1       -7.320   9.166  -1.021  0.00  0.00    +0.020 A 
ENDBRANCH   3   5
BRANCH   2  17
ATOM     17  C   LIG    1       -3.618   7.099  -0.252  0.00  0.00    -0.020 A 
ATOM     18  C   LIG    1       -3.556   5.710  -0.144  0.00  0.00    +0.360 A 
ATOM     19  N   LIG    1       -2.384   5.105  -0.078  0.00  0.00    -0.490 NA
ATOM     20  C   LIG    1       -1.267   5.819  -0.103  0.00  0.00    +0.300 A 
ATOM     21  C   LIG    1       -1.328   7.210  -0.212  0.00  0.00    +0.250 A 
ATOM     22  N   LIG    1       -2.494   7.814  -0.283  0.00  0.00    -0.380 NA
BRANCH  20  23
ATOM     23  O   LIG    1       -0.065   5.198  -0.030  0.00  0.00    -0.230 OA
BRANCH  23  24
ATOM     24  C   LIG    1       -0.048   3.839  -0.033  0.00  0.00    +0.080 A 
ATOM     25  C   LIG    1       -0.460   3.142  -1.160  0.00  0.00    +0.010 A 
ATOM     26  C   LIG    1       -0.442   1.761  -1.160  0.00  0.00    +0.030 A 
ATOM     27  C   LIG    1       -0.013   1.073  -0.040  0.00  0.00    +0.020 A 
ATOM     28  C   LIG    1        0.392   1.766   1.086  0.00  0.00    +0.020 A 
ATOM     29  C   LIG    1        0.381   3.147   1.090  0.00  0.00    +0.020 A 
ENDBRANCH  23  24
ENDBRANCH  20  23
ENDBRANCH   2  17
TORSDOF 4
