REMARK  Name = ZINCrg00000fRwvy.0
REMARK                            x       y       z     vdW  Elec       q    Type
REMARK                         _______ _______ _______ _____ _____    ______ ____
ROOT
ATOM      1  C   LIG    1       -0.014   1.211   0.009  0.00  0.00    +0.510 C 
ATOM      2  O   LIG    1        0.002  -0.004   0.002  0.00  0.00    -0.490 OA
ENDROOT
BRANCH   1   3
ATOM      3  C   LIG    1        1.250   1.964   0.001  0.00  0.00    -0.150 A 
ATOM      4  C   LIG    1        2.463   1.280  -0.015  0.00  0.00    +0.200 A 
ATOM      5  C   LIG    1        3.669   2.010  -0.023  0.00  0.00    -0.080 A 
ATOM      6  C   LIG    1        4.912   1.356  -0.039  0.00  0.00    +0.050 A 
ATOM      7  C   LIG    1        6.059   2.090  -0.046  0.00  0.00    +0.010 A 
ATOM      8  C   LIG    1        6.019   3.481  -0.039  0.00  0.00    +0.030 A 
ATOM      9  C   LIG    1        4.831   4.148  -0.024  0.00  0.00    +0.030 A 
ATOM     10  C   LIG    1        3.628   3.426  -0.015  0.00  0.00    -0.040 A 
ATOM     11  C   LIG    1        2.381   4.090   0.000  0.00  0.00    +0.100 A 
ATOM     12  C   LIG    1        1.226   3.373   0.003  0.00  0.00    +0.060 A 
BRANCH  11  13
ATOM     13  O   LIG    1        2.336   5.449   0.008  0.00  0.00    -0.490 OA
ATOM     14  H   LIG    1        2.315   5.846  -0.874  0.00  0.00    +0.390 HD
ENDBRANCH  11  13
BRANCH   4  15
ATOM     15  O   LIG    1        2.484  -0.075  -0.022  0.00  0.00    -0.470 OA
ATOM     16  H   LIG    1        2.481  -0.464  -0.908  0.00  0.00    +0.400 HD
ENDBRANCH   4  15
ENDBRANCH   1   3
BRANCH   1  17
ATOM     17  O   LIG    1       -1.191   1.869   0.018  0.00  0.00    -0.330 OA
BRANCH  17  18
ATOM     18  C   LIG    1       -2.398   1.062   0.019  0.00  0.00    +0.270 C 
BRANCH  18  21
ATOM     19  C   LIG    1       -5.016  -0.023   0.026  0.00  0.00    +0.290 C 
ATOM     20  N   LIG    1       -4.843   1.432   0.033  0.00  0.00    -0.600 N 
ATOM     21  C   LIG    1       -3.605   1.964   0.030  0.00  0.00    +0.520 C 
ATOM     22  O   LIG    1       -3.462   3.168   0.036  0.00  0.00    -0.510 OA
BRANCH  20  23
ATOM     23  C   LIG    1       -6.017   2.308   0.043  0.00  0.00    +0.280 C 
ATOM     24  C   LIG    1       -6.859   2.030   1.301  0.00  0.00    +0.070 C 
ATOM     25  C   LIG    1       -8.225   2.733   1.085  0.00  0.00    -0.310 C 
ATOM     26  S   LIG    1       -8.603   2.338  -0.665  0.00  0.00    +2.400 S 
ATOM     27  O   LIG    1       -9.098   3.502  -1.313  0.00  0.00    -0.930 OA
ATOM     28  O   LIG    1       -9.340   1.125  -0.725  0.00  0.00    -0.930 OA
ATOM     29  C   LIG    1       -6.882   2.031  -1.202  0.00  0.00    -0.330 C 
ENDBRANCH  20  23
ENDBRANCH  18  21
ENDBRANCH  17  18
ENDBRANCH   1  17
TORSDOF 7
