REMARK  Name = ZINCpk000000oIHX.0
REMARK                            x       y       z     vdW  Elec       q    Type
REMARK                         _______ _______ _______ _____ _____    ______ ____
ROOT
ATOM      1  S   LIG    1       -0.346  -2.841  -1.601  0.00  0.00    +0.120 S 
ENDROOT
BRANCH   1   2
ATOM      2  C   LIG    1       -1.465  -1.905  -0.614  0.00  0.00    +0.210 A 
ATOM      3  N   LIG    1       -2.714  -2.214  -0.338  0.00  0.00    -0.330 NA
ATOM      4  N   LIG    1       -3.247  -1.315   0.408  0.00  0.00    -0.020 NA
ATOM      5  N   LIG    1       -2.396  -0.382   0.669  0.00  0.00    -0.060 NA
ATOM      6  N   LIG    1       -1.202  -0.723   0.010  0.00  0.00    -0.320 N 
BRANCH   6   7
ATOM      7  C   LIG    1        0.002  -0.004   0.002  0.00  0.00    +0.150 A 
ATOM      8  C   LIG    1       -0.017   1.384   0.010  0.00  0.00    +0.050 A 
ATOM      9  C   LIG    1        1.170   2.091   0.002  0.00  0.00    +0.080 A 
ATOM     10  C   LIG    1        2.377   1.417  -0.013  0.00  0.00    +0.010 A 
ATOM     11  C   LIG    1        2.401   0.033  -0.021  0.00  0.00    +0.130 A 
ATOM     12  F   LIG    1        3.582  -0.623  -0.035  0.00  0.00    -0.120 F 
ATOM     13  C   LIG    1        1.215  -0.679  -0.013  0.00  0.00    +0.000 A 
ENDBRANCH   6   7
ENDBRANCH   1   2
BRANCH   1  14
ATOM     14  C   LIG    1       -1.414  -4.231  -2.054  0.00  0.00    +0.000 C 
ATOM     15  C   LIG    1       -1.777  -5.026  -0.798  0.00  0.00    +0.100 C 
BRANCH  14  21
ATOM     16  N   LIG    1       -2.729  -6.679  -6.189  0.00  0.00    -0.540 NA
ATOM     17  C   LIG    1       -1.268  -6.534  -6.227  0.00  0.00    +0.170 C 
ATOM     18  C   LIG    1       -0.697  -6.789  -4.828  0.00  0.00    +0.300 C 
ATOM     19  N   LIG    1       -1.386  -5.906  -3.874  0.00  0.00    -0.600 N 
ATOM     20  C   LIG    1       -2.857  -5.900  -3.869  0.00  0.00    +0.280 C 
ATOM     21  C   LIG    1       -0.688  -5.128  -3.023  0.00  0.00    +0.540 C 
ATOM     22  O   LIG    1        0.525  -5.149  -3.038  0.00  0.00    -0.520 OA
ATOM     23  C   LIG    1       -3.343  -5.676  -5.309  0.00  0.00    +0.170 C 
BRANCH  16  25
ATOM     24  C   LIG    1       -4.824  -6.517  -7.448  0.00  0.00    +0.030 C 
ATOM     25  C   LIG    1       -3.300  -6.613  -7.541  0.00  0.00    +0.160 C 
ENDBRANCH  16  25
ENDBRANCH  14  21
ENDBRANCH   1  14
TORSDOF 5
