REMARK  Name = ZINCpe00000MJIs1.0
REMARK                            x       y       z     vdW  Elec       q    Type
REMARK                         _______ _______ _______ _____ _____    ______ ____
ROOT
ATOM      1  C   LIG    1       -6.749   4.184   2.990  0.00  0.00    +0.000 C 
ATOM      2  C   LIG    1       -7.034   3.854   1.520  0.00  0.00    +0.060 C 
ATOM      3  C   LIG    1       -7.910   4.965   0.936  0.00  0.00    +0.090 C 
ATOM      4  C   LIG    1       -9.070   5.235   1.851  0.00  0.00    +0.520 C 
ATOM      5  N   LIG    1       -9.107   4.847   3.126  0.00  0.00    -0.590 N 
ATOM      6  C   LIG    1      -10.280   5.219   3.922  0.00  0.00    +0.280 C 
ATOM      7  O   LIG    1      -10.024   5.837   1.405  0.00  0.00    -0.550 OA
ATOM      8  C   LIG    1       -8.054   4.081   3.780  0.00  0.00    +0.360 C 
ENDROOT
BRANCH   8   9
ATOM      9  C   LIG    1       -7.836   4.614   5.173  0.00  0.00    +0.190 A 
ATOM     10  N   LIG    1       -7.730   5.873   5.497  0.00  0.00    -0.480 NA
ATOM     11  C   LIG    1       -7.543   5.975   6.822  0.00  0.00    +0.140 A 
ATOM     12  C   LIG    1       -7.532   4.731   7.337  0.00  0.00    +0.120 A 
ATOM     13  N   LIG    1       -7.723   3.868   6.293  0.00  0.00    -0.430 N 
ATOM     14  C   LIG    1       -7.790   2.406   6.374  0.00  0.00    +0.340 C 
ENDBRANCH   8   9
BRANCH   1  17
ATOM     15  N   LIG    1       -4.517   3.116   2.992  0.00  0.00    -0.720 N 
ATOM     16  H   LIG    1       -4.280   3.683   2.241  0.00  0.00    +0.400 HD
ATOM     17  C   LIG    1       -5.744   3.205   3.542  0.00  0.00    +0.530 C 
ATOM     18  O   LIG    1       -6.041   2.498   4.481  0.00  0.00    -0.540 OA
BRANCH  15  19
ATOM     19  C   LIG    1       -3.541   2.165   3.529  0.00  0.00    +0.380 C 
BRANCH  19  23
ATOM     20  N   LIG    1       -0.704   1.998   1.216  0.00  0.00    -0.370 N 
ATOM     21  C   LIG    1       -0.203   2.855   2.130  0.00  0.00    +0.240 A 
ATOM     22  C   LIG    1       -1.144   3.036   3.085  0.00  0.00    -0.110 A 
ATOM     23  C   LIG    1       -2.259   2.263   2.743  0.00  0.00    +0.050 A 
ATOM     24  N   LIG    1       -1.998   1.645   1.619  0.00  0.00    -0.270 NA
BRANCH  20  26
ATOM     25  C   LIG    1        0.002  -0.004   0.002  0.00  0.00    +0.040 C 
ATOM     26  C   LIG    1       -0.019   1.526   0.010  0.00  0.00    +0.320 C 
ENDBRANCH  20  26
ENDBRANCH  19  23
ENDBRANCH  15  19
ENDBRANCH   1  17
TORSDOF 5
