REMARK  Name = ZINCrg000000olhB.0
REMARK                            x       y       z     vdW  Elec       q    Type
REMARK                         _______ _______ _______ _____ _____    ______ ____
ROOT
ATOM      1  C   LIG    1        3.071   0.243  -0.015  0.00  0.00    +0.260 C 
ATOM      2  C   LIG    1        3.910   0.053  -1.280  0.00  0.00    +0.100 C 
ENDROOT
BRANCH   1   3
ATOM      3  N   LIG    1        2.511   1.597   0.001  0.00  0.00    -0.400 N 
ATOM      4  C   LIG    1        3.205   2.752  -0.005  0.00  0.00    +0.530 A 
ATOM      5  N   LIG    1        2.377   3.765   0.014  0.00  0.00    -0.500 NA
ATOM      6  C   LIG    1        1.118   3.320   0.034  0.00  0.00    +0.330 A 
ATOM      7  N   LIG    1       -0.120   3.941   0.058  0.00  0.00    -0.510 N 
ATOM      8  C   LIG    1       -0.204   5.404   0.067  0.00  0.00    +0.340 C 
ATOM      9  C   LIG    1       -1.246   3.203   0.073  0.00  0.00    +0.710 A 
ATOM     10  O   LIG    1       -2.323   3.766   0.095  0.00  0.00    -0.530 OA
ATOM     11  N   LIG    1       -1.208   1.859   0.060  0.00  0.00    -0.550 N 
ATOM     12  C   LIG    1       -2.463   1.103   0.072  0.00  0.00    +0.360 C 
ATOM     13  C   LIG    1       -0.033   1.197   0.043  0.00  0.00    +0.600 A 
ATOM     14  O   LIG    1       -0.012  -0.021   0.036  0.00  0.00    -0.520 OA
ATOM     15  C   LIG    1        1.172   1.932   0.026  0.00  0.00    -0.160 A 
ENDBRANCH   1   3
BRANCH   1  18
ATOM     16  N   LIG    1        4.564  -1.134   1.397  0.00  0.00    -0.650 N 
ATOM     17  H   LIG    1        4.402  -1.875   0.792  0.00  0.00    +0.420 HD
ATOM     18  C   LIG    1        3.940   0.045   1.200  0.00  0.00    +0.510 C 
ATOM     19  O   LIG    1        4.079   0.945   2.000  0.00  0.00    -0.510 OA
BRANCH  16  25
ATOM     20  C   LIG    1        6.571  -2.099   2.346  0.00  0.00    +0.110 A 
ATOM     21  C   LIG    1        7.442  -2.245   3.414  0.00  0.00    -0.060 A 
ATOM     22  C   LIG    1        7.187  -1.594   4.607  0.00  0.00    +0.040 A 
ATOM     23  C   LIG    1        6.068  -0.793   4.737  0.00  0.00    -0.010 A 
ATOM     24  C   LIG    1        5.197  -0.639   3.675  0.00  0.00    +0.070 A 
ATOM     25  C   LIG    1        5.446  -1.288   2.475  0.00  0.00    +0.110 A 
BRANCH  20  26
ATOM     26  O   LIG    1        6.817  -2.743   1.174  0.00  0.00    -0.320 OA
BRANCH  26  28
ATOM     27  C   LIG    1        8.097  -4.196  -0.272  0.00  0.00    +0.070 C 
ATOM     28  C   LIG    1        7.989  -3.558   1.114  0.00  0.00    +0.180 C 
ENDBRANCH  26  28
ENDBRANCH  20  26
ENDBRANCH  16  25
ENDBRANCH   1  18
TORSDOF 5
