REMARK  Name = ZINCnE000001TQoZ.0
REMARK                            x       y       z     vdW  Elec       q    Type
REMARK                         _______ _______ _______ _____ _____    ______ ____
ROOT
ATOM      1  C   LIG    1        1.412   0.492   4.282  0.00  0.00    -0.130 A 
ATOM      2  C   LIG    1        1.191  -0.885   4.372  0.00  0.00    +0.040 A 
ATOM      3  C   LIG    1        1.590  -1.574   5.494  0.00  0.00    +0.040 A 
ATOM      4  C   LIG    1        2.206  -0.895   6.549  0.00  0.00    +0.030 A 
ATOM      5  C   LIG    1        2.422   0.482   6.462  0.00  0.00    +0.050 A 
ATOM      6  C   LIG    1        2.028   1.171   5.337  0.00  0.00    +0.080 A 
ENDROOT
BRANCH   1   8
ATOM      7  O   LIG    1        1.676   2.138   2.646  0.00  0.00    -0.530 OA
ATOM      8  C   LIG    1        0.989   1.231   3.076  0.00  0.00    +0.580 C 
ATOM      9  N   LIG    1       -0.159   0.901   2.451  0.00  0.00    -0.610 N 
ATOM     10  C   LIG    1       -1.020  -0.242   2.788  0.00  0.00    +0.250 C 
ATOM     11  C   LIG    1       -2.261  -0.177   1.877  0.00  0.00    +0.030 C 
ATOM     12  C   LIG    1       -2.245   1.270   1.351  0.00  0.00    -0.020 C 
ATOM     13  C   LIG    1       -3.006   1.431   0.073  0.00  0.00    +0.030 C 
ATOM     14  C   LIG    1       -2.256   1.042  -1.185  0.00  0.00    +0.000 C 
ATOM     15  C   LIG    1       -0.851   1.639  -1.185  0.00  0.00    +0.010 C 
ATOM     16  C   LIG    1       -0.096   1.113   0.035  0.00  0.00    +0.010 C 
ATOM     17  C   LIG    1       -0.762   1.629   1.312  0.00  0.00    +0.240 C 
ENDBRANCH   1   8
BRANCH   4  18
ATOM     18  C   LIG    1        2.629  -1.635   7.756  0.00  0.00    +0.160 A 
ATOM     19  N   LIG    1        3.210  -1.111   8.797  0.00  0.00    -0.290 NA
ATOM     20  N   LIG    1        3.446  -2.142   9.719  0.00  0.00    -0.380 NA
ATOM     21  C   LIG    1        2.976  -3.279   9.163  0.00  0.00    +0.350 A 
ATOM     22  S   LIG    1        3.011  -4.840   9.866  0.00  0.00    -0.690 S 
ATOM     23  O   LIG    1        2.471  -2.961   7.959  0.00  0.00    -0.260 OA
ENDBRANCH   4  18
TORSDOF 2
