REMARK  Name = ZINCvU0000000CKD.0
REMARK                            x       y       z     vdW  Elec       q    Type
REMARK                         _______ _______ _______ _____ _____    ______ ____
ROOT
ATOM      1  O   LIG    1       -3.548   3.495  -0.655  0.00  0.00    -0.530 OA
ATOM      2  C   LIG    1       -2.784   3.254  -1.570  0.00  0.00    +0.560 C 
ATOM      3  N   LIG    1       -1.647   2.569  -1.336  0.00  0.00    -0.730 N 
ATOM      4  H   LIG    1       -1.038   2.377  -2.067  0.00  0.00    +0.400 HD
ENDROOT
BRANCH   2   5
ATOM      5  C   LIG    1       -3.102   3.713  -2.936  0.00  0.00    -0.180 A 
ATOM      6  C   LIG    1       -2.223   3.442  -3.988  0.00  0.00    +0.090 A 
ATOM      7  C   LIG    1       -2.526   3.867  -5.263  0.00  0.00    -0.080 A 
ATOM      8  C   LIG    1       -3.699   4.573  -5.502  0.00  0.00    +0.160 A 
ATOM      9  C   LIG    1       -4.573   4.850  -4.457  0.00  0.00    -0.020 A 
ATOM     10  C   LIG    1       -4.280   4.424  -3.180  0.00  0.00    +0.130 A 
BRANCH   8  11
ATOM     11  O   LIG    1       -3.991   4.995  -6.758  0.00  0.00    -0.310 OA
BRANCH  11  12
ATOM     12  C   LIG    1       -3.049   4.677  -7.784  0.00  0.00    +0.320 C 
BRANCH  12  13
ATOM     13  C   LIG    1       -3.539   5.222  -9.102  0.00  0.00    +0.050 A 
ATOM     14  C   LIG    1       -4.689   5.892  -9.224  0.00  0.00    -0.040 A 
ATOM     15  S   LIG    1       -4.875   6.343 -10.917  0.00  0.00    +0.140 S 
ATOM     16  C   LIG    1       -3.388   5.586 -11.292  0.00  0.00    +0.240 A 
ATOM     17  N   LIG    1       -2.865   5.081 -10.226  0.00  0.00    -0.470 NA
ENDBRANCH  12  13
ENDBRANCH  11  12
ENDBRANCH   8  11
ENDBRANCH   2   5
BRANCH   3  18
ATOM     18  C   LIG    1       -1.332   2.114   0.020  0.00  0.00    +0.320 C 
BRANCH  18  19
ATOM     19  C   LIG    1       -0.017   1.378   0.010  0.00  0.00    -0.110 A 
ATOM     20  C   LIG    1        0.002  -0.004   0.002  0.00  0.00    +0.030 A 
ATOM     21  C   LIG    1        1.209  -0.679  -0.014  0.00  0.00    +0.010 A 
ATOM     22  C   LIG    1        2.396   0.028  -0.021  0.00  0.00    +0.020 A 
ATOM     23  C   LIG    1        2.377   1.411  -0.014  0.00  0.00    +0.030 A 
ATOM     24  C   LIG    1        1.171   2.085   0.002  0.00  0.00    -0.070 A 
BRANCH  24  25
ATOM     25  C   LIG    1        1.151   3.592   0.010  0.00  0.00    +0.260 C 
BRANCH  25  26
ATOM     26  O   LIG    1        2.491   4.087   0.000  0.00  0.00    -0.310 OA
BRANCH  26  27
ATOM     27  C   LIG    1        2.651   5.436   0.006  0.00  0.00    +0.130 A 
ATOM     28  C   LIG    1        1.540   6.268   0.015  0.00  0.00    -0.080 A 
ATOM     29  C   LIG    1        1.706   7.639   0.027  0.00  0.00    +0.050 A 
ATOM     30  C   LIG    1        2.976   8.184   0.018  0.00  0.00    -0.040 A 
ATOM     31  C   LIG    1        4.085   7.357   0.003  0.00  0.00    +0.050 A 
ATOM     32  C   LIG    1        3.925   5.985  -0.003  0.00  0.00    -0.020 A 
ENDBRANCH  26  27
ENDBRANCH  25  26
ENDBRANCH  24  25
ENDBRANCH  18  19
ENDBRANCH   3  18
TORSDOF 9
