REMARK  Name = ZINCvU00000005W5.0
REMARK                            x       y       z     vdW  Elec       q    Type
REMARK                         _______ _______ _______ _____ _____    ______ ____
ROOT
ATOM      1  C   LIG    1       -0.748   1.610  -1.244  0.00  0.00    +0.080 C 
ATOM      2  C   LIG    1       -0.016   1.094  -0.003  0.00  0.00    +0.020 C 
ENDROOT
BRANCH   2   3
ATOM      3  C   LIG    1        1.400   1.609  -0.005  0.00  0.00    +0.540 C 
ATOM      4  N   LIG    1        2.336   1.006  -0.765  0.00  0.00    -0.660 N 
ATOM      5  H   LIG    1        2.118   0.194  -1.249  0.00  0.00    +0.420 HD
ATOM      6  O   LIG    1        1.699   2.566   0.678  0.00  0.00    -0.500 OA
BRANCH   4   7
ATOM      7  C   LIG    1        3.619   1.551  -0.857  0.00  0.00    +0.160 A 
ATOM      8  C   LIG    1        3.819   2.905  -0.632  0.00  0.00    +0.020 A 
ATOM      9  C   LIG    1        5.090   3.440  -0.717  0.00  0.00    +0.040 A 
ATOM     10  C   LIG    1        6.167   2.634  -1.038  0.00  0.00    +0.000 A 
ATOM     11  C   LIG    1        5.983   1.286  -1.270  0.00  0.00    +0.050 A 
ATOM     12  C   LIG    1        4.708   0.733  -1.182  0.00  0.00    -0.080 A 
BRANCH  12  13
ATOM     13  C   LIG    1        4.504  -0.715  -1.430  0.00  0.00    -0.050 A 
ATOM     14  C   LIG    1        3.792  -1.488  -0.515  0.00  0.00    +0.000 A 
ATOM     15  C   LIG    1        3.602  -2.834  -0.754  0.00  0.00    +0.010 A 
ATOM     16  C   LIG    1        4.125  -3.418  -1.893  0.00  0.00    +0.000 A 
ATOM     17  C   LIG    1        4.837  -2.656  -2.802  0.00  0.00    +0.010 A 
ATOM     18  C   LIG    1        5.030  -1.309  -2.576  0.00  0.00    +0.030 A 
ENDBRANCH  12  13
ENDBRANCH   4   7
ENDBRANCH   2   3
BRANCH   2  19
ATOM     19  S   LIG    1       -0.868   1.676   1.484  0.00  0.00    +0.080 S 
BRANCH  19  20
ATOM     20  C   LIG    1       -2.402   0.828   1.310  0.00  0.00    +0.140 A 
ATOM     21  N   LIG    1       -2.742   0.022   0.330  0.00  0.00    -0.290 NA
ATOM     22  N   LIG    1       -3.932  -0.423   0.524  0.00  0.00    -0.280 NA
ATOM     23  C   LIG    1       -4.422   0.074   1.624  0.00  0.00    +0.200 A 
ATOM     24  N   LIG    1       -3.465   0.888   2.165  0.00  0.00    -0.460 N 
ATOM     25  C   LIG    1       -3.561   1.665   3.403  0.00  0.00    +0.360 C 
BRANCH  23  26
ATOM     26  C   LIG    1       -5.789  -0.198   2.196  0.00  0.00    +0.210 C 
BRANCH  26  27
ATOM     27  C   LIG    1       -6.769   0.811   1.657  0.00  0.00    -0.090 A 
ATOM     28  C   LIG    1       -6.983   1.998   2.333  0.00  0.00    +0.010 A 
ATOM     29  C   LIG    1       -7.878   2.926   1.836  0.00  0.00    +0.000 A 
ATOM     30  C   LIG    1       -8.568   2.663   0.667  0.00  0.00    +0.000 A 
ATOM     31  C   LIG    1       -8.359   1.475  -0.007  0.00  0.00    +0.010 A 
ATOM     32  C   LIG    1       -7.460   0.549   0.488  0.00  0.00    +0.030 A 
ENDBRANCH  26  27
ENDBRANCH  23  26
ENDBRANCH  19  20
ENDBRANCH   2  19
TORSDOF 7
