REMARK  Name = ZINCkj00000GeRtn.0
REMARK                            x       y       z     vdW  Elec       q    Type
REMARK                         _______ _______ _______ _____ _____    ______ ____
ROOT
ATOM      1  C   LIG    1       -3.429   4.380   6.381  0.00  0.00    +0.250 C 
ENDROOT
BRANCH   1   2
ATOM      2  N   LIG    1       -2.786   4.781   7.639  0.00  0.00    -0.500 N 
ATOM      3  H   LIG    1       -2.283   5.645   7.500  0.00  0.00    +0.430 HD
ATOM      4  H   LIG    1       -2.142   4.061   7.932  0.00  0.00    +0.430 HD
BRANCH   2   5
ATOM      5  C   LIG    1       -3.811   4.972   8.674  0.00  0.00    +0.250 C 
BRANCH   5   6
ATOM      6  C   LIG    1       -3.141   5.389   9.985  0.00  0.00    +0.100 C 
BRANCH   6   7
ATOM      7  C   LIG    1       -4.193   5.585  11.046  0.00  0.00    -0.110 A 
ATOM      8  C   LIG    1       -4.774   6.827  11.223  0.00  0.00    +0.010 A 
ATOM      9  C   LIG    1       -5.742   7.005  12.193  0.00  0.00    +0.020 A 
ATOM     10  C   LIG    1       -6.122   5.944  12.994  0.00  0.00    +0.030 A 
ATOM     11  C   LIG    1       -5.538   4.704  12.821  0.00  0.00    +0.020 A 
ATOM     12  C   LIG    1       -4.573   4.524  11.847  0.00  0.00    +0.010 A 
ENDBRANCH   6   7
ENDBRANCH   5   6
ENDBRANCH   2   5
ENDBRANCH   1   2
BRANCH   1  13
ATOM     13  C   LIG    1       -2.361   4.181   5.303  0.00  0.00    +0.220 C 
BRANCH  13  14
ATOM     14  O   LIG    1       -1.649   5.405   5.106  0.00  0.00    -0.540 OA
ATOM     15  H   LIG    1       -2.207   6.143   4.823  0.00  0.00    +0.390 HD
ENDBRANCH  13  14
BRANCH  13  16
ATOM     16  C   LIG    1       -3.031   3.764   3.993  0.00  0.00    +0.160 C 
BRANCH  16  17
ATOM     17  O   LIG    1       -2.028   3.466   3.019  0.00  0.00    -0.370 OA
BRANCH  17  18
ATOM     18  C   LIG    1       -2.550   3.063   1.751  0.00  0.00    +0.200 C 
BRANCH  18  19
ATOM     19  C   LIG    1       -1.394   2.771   0.793  0.00  0.00    +0.160 C 
ATOM     20  C   LIG    1       -1.928   2.453  -0.626  0.00  0.00    +0.020 C 
ATOM     21  C   LIG    1       -0.778   1.606  -1.224  0.00  0.00    +0.000 C 
ATOM     22  C   LIG    1       -0.013   1.086   0.008  0.00  0.00    +0.190 C 
ATOM     23  O   LIG    1       -0.705   1.559   1.176  0.00  0.00    -0.370 OA
ENDBRANCH  18  19
ENDBRANCH  17  18
ENDBRANCH  16  17
ENDBRANCH  13  16
ENDBRANCH   1  13
TORSDOF 10
