REMARK  Name = ZINCpe000000ZsKb.0
REMARK                            x       y       z     vdW  Elec       q    Type
REMARK                         _______ _______ _______ _____ _____    ______ ____
ROOT
ATOM      1  C   LIG    1        2.921   0.806  -1.464  0.00  0.00    +0.280 C 
ENDROOT
BRANCH   1   3
ATOM      2  O   LIG    1        4.669  -0.405  -0.440  0.00  0.00    -0.500 OA
ATOM      3  C   LIG    1        4.172  -0.035  -1.482  0.00  0.00    +0.510 C 
ATOM      4  N   LIG    1        4.737  -0.376  -2.657  0.00  0.00    -0.600 N 
ATOM      5  C   LIG    1        4.143   0.060  -3.928  0.00  0.00    +0.290 C 
ATOM      6  C   LIG    1        3.917  -1.161  -4.817  0.00  0.00    +0.050 C 
ATOM      7  C   LIG    1        5.230  -1.932  -4.964  0.00  0.00    +0.260 C 
ATOM      8  O   LIG    1        5.033  -3.061  -5.824  0.00  0.00    -0.370 OA
ATOM      9  C   LIG    1        5.929  -2.907  -6.944  0.00  0.00    +0.200 C 
ATOM     10  C   LIG    1        7.010  -1.942  -6.397  0.00  0.00    +0.210 C 
ATOM     11  C   LIG    1        5.709  -2.410  -3.591  0.00  0.00    +0.030 C 
ATOM     12  O   LIG    1        6.226  -1.074  -5.544  0.00  0.00    -0.370 OA
ATOM     13  C   LIG    1        5.956  -1.195  -2.691  0.00  0.00    +0.300 C 
ENDBRANCH   1   3
BRANCH   1  14
ATOM     14  N   LIG    1        3.188   2.092  -2.115  0.00  0.00    -0.300 N 
ATOM     15  C   LIG    1        4.341   2.784  -2.074  0.00  0.00    +0.390 A 
ATOM     16  N   LIG    1        4.154   3.870  -2.784  0.00  0.00    -0.300 NA
ATOM     17  N   LIG    1        2.948   3.845  -3.237  0.00  0.00    -0.070 NA
ATOM     18  N   LIG    1        2.363   2.770  -2.839  0.00  0.00    -0.080 NA
ENDBRANCH   1  14
BRANCH   1  19
ATOM     19  C   LIG    1        2.490   1.048  -0.016  0.00  0.00    +0.130 C 
BRANCH  19  20
ATOM     20  C   LIG    1        1.175   1.783   0.000  0.00  0.00    -0.100 A 
ATOM     21  C   LIG    1       -0.013   1.076   0.008  0.00  0.00    +0.010 A 
ATOM     22  C   LIG    1       -1.219   1.751   0.017  0.00  0.00    +0.000 A 
ATOM     23  C   LIG    1       -1.238   3.133   0.030  0.00  0.00    +0.010 A 
ATOM     24  C   LIG    1       -0.050   3.840   0.022  0.00  0.00    +0.010 A 
ATOM     25  C   LIG    1        1.156   3.165   0.008  0.00  0.00    +0.010 A 
ENDBRANCH  19  20
ENDBRANCH   1  19
TORSDOF 4
