REMARK  Name = ZINCvU0000000B4f.0
REMARK                            x       y       z     vdW  Elec       q    Type
REMARK                         _______ _______ _______ _____ _____    ______ ____
ROOT
ATOM      1  C   LIG    1       -3.332   5.018   9.656  0.00  0.00    +0.180 C 
ENDROOT
BRANCH   1   2
ATOM      2  C   LIG    1       -3.700   5.612  10.991  0.00  0.00    +0.460 A 
ATOM      3  N   LIG    1       -2.758   5.806  11.870  0.00  0.00    -0.570 NA
ATOM      4  C   LIG    1       -3.023   6.338  13.075  0.00  0.00    +0.550 A 
ATOM      5  C   LIG    1       -4.419   6.696  13.401  0.00  0.00    -0.220 A 
ATOM      6  C   LIG    1       -5.376   6.462  12.433  0.00  0.00    +0.050 A 
ATOM      7  S   LIG    1       -6.952   6.955  13.026  0.00  0.00    +0.180 S 
ATOM      8  C   LIG    1       -6.292   7.470  14.569  0.00  0.00    -0.190 A 
ATOM      9  C   LIG    1       -7.113   8.060  15.701  0.00  0.00    +0.120 C 
ATOM     10  C   LIG    1       -6.292   7.997  16.992  0.00  0.00    -0.010 C 
ATOM     11  C   LIG    1       -6.990   8.809  18.085  0.00  0.00    +0.030 C 
ATOM     12  C   LIG    1       -4.902   8.584  16.726  0.00  0.00    +0.020 C 
ATOM     13  C   LIG    1       -4.117   7.625  15.829  0.00  0.00    +0.110 C 
ATOM     14  C   LIG    1       -4.972   7.276  14.617  0.00  0.00    -0.030 A 
ATOM     15  O   LIG    1       -2.129   6.517  13.887  0.00  0.00    -0.470 OA
ATOM     16  N   LIG    1       -4.986   5.915  11.228  0.00  0.00    -0.580 N 
ATOM     17  H   LIG    1       -5.651   5.747  10.542  0.00  0.00    +0.430 HD
ENDBRANCH   1   2
BRANCH   1  18
ATOM     18  S   LIG    1       -1.546   4.708   9.604  0.00  0.00    +0.140 S 
BRANCH  18  22
ATOM     19  C   LIG    1       -0.560   3.037   5.828  0.00  0.00    +0.300 A 
ATOM     20  N   LIG    1       -1.828   3.286   5.922  0.00  0.00    -0.340 NA
ATOM     21  N   LIG    1       -2.242   3.826   7.120  0.00  0.00    -0.270 NA
ATOM     22  C   LIG    1       -1.308   4.026   7.997  0.00  0.00    -0.010 A 
ATOM     23  S   LIG    1        0.235   3.508   7.326  0.00  0.00    +0.100 S 
BRANCH  19  24
ATOM     24  N   LIG    1        0.074   2.490   4.717  0.00  0.00    -0.620 N 
ATOM     25  H   LIG    1        1.014   2.257   4.761  0.00  0.00    +0.430 HD
BRANCH  24  30
ATOM     26  C   LIG    1       -2.849   1.615  -0.063  0.00  0.00    +0.090 C 
ATOM     27  C   LIG    1       -2.070   1.849   1.206  0.00  0.00    -0.100 A 
ATOM     28  C   LIG    1       -1.000   1.031   1.520  0.00  0.00    +0.040 A 
ATOM     29  C   LIG    1       -0.288   1.240   2.684  0.00  0.00    -0.020 A 
ATOM     30  C   LIG    1       -0.645   2.276   3.538  0.00  0.00    +0.150 A 
ATOM     31  C   LIG    1       -1.717   3.099   3.217  0.00  0.00    +0.020 A 
ATOM     32  C   LIG    1       -2.425   2.885   2.051  0.00  0.00    -0.060 A 
ATOM     33  C   LIG    1       -3.588   3.777   1.702  0.00  0.00    +0.090 C 
ENDBRANCH  24  30
ENDBRANCH  19  24
ENDBRANCH  18  22
ENDBRANCH   1  18
TORSDOF 5
