REMARK  Name = ZINCpe000000UDhJ.0
REMARK                            x       y       z     vdW  Elec       q    Type
REMARK                         _______ _______ _______ _____ _____    ______ ____
ROOT
ATOM      1  C   LIG    1       -3.706  -0.968   0.014  0.00  0.00    +0.200 C 
ENDROOT
BRANCH   1   2
ATOM      2  O   LIG    1       -4.374  -0.625  -1.202  0.00  0.00    -0.540 OA
ATOM      3  H   LIG    1       -3.928  -0.945  -1.998  0.00  0.00    +0.380 HD
ENDBRANCH   1   2
BRANCH   1   4
ATOM      4  C   LIG    1       -3.609  -2.490   0.131  0.00  0.00    +0.270 C 
BRANCH   4   6
ATOM      5  C   LIG    1       -5.667  -3.260   1.401  0.00  0.00    +0.290 C 
ATOM      6  N   LIG    1       -4.956  -3.067   0.135  0.00  0.00    -0.610 N 
ATOM      7  C   LIG    1       -5.541  -3.419  -1.027  0.00  0.00    +0.540 C 
ATOM      8  O   LIG    1       -4.952  -3.259  -2.076  0.00  0.00    -0.520 OA
BRANCH   7   9
ATOM      9  C   LIG    1       -6.926  -4.012  -1.024  0.00  0.00    +0.150 C 
ATOM     10  C   LIG    1       -6.846  -5.498  -0.664  0.00  0.00    +0.200 C 
ATOM     11  O   LIG    1       -8.153  -6.072  -0.736  0.00  0.00    -0.370 OA
ATOM     12  C   LIG    1       -8.766  -5.950  -2.022  0.00  0.00    +0.180 C 
ATOM     13  C   LIG    1       -8.866  -4.469  -2.396  0.00  0.00    +0.210 C 
ATOM     14  N   LIG    1       -7.525  -3.868  -2.359  0.00  0.00    -0.660 NA
ATOM     15  H   LIG    1       -6.929  -4.269  -3.068  0.00  0.00    +0.350 HD
ENDBRANCH   7   9
ENDBRANCH   4   6
ENDBRANCH   1   4
BRANCH   1  16
ATOM     16  C   LIG    1       -2.299  -0.366   0.011  0.00  0.00    +0.180 C 
BRANCH  16  17
ATOM     17  O   LIG    1       -2.391   1.060   0.019  0.00  0.00    -0.290 OA
BRANCH  17  18
ATOM     18  C   LIG    1       -1.223   1.754   0.017  0.00  0.00    +0.180 A 
ATOM     19  C   LIG    1       -0.013   1.076   0.008  0.00  0.00    -0.070 A 
ATOM     20  C   LIG    1        1.174   1.783   0.000  0.00  0.00    +0.090 A 
ATOM     21  C   LIG    1        1.156   3.166   0.008  0.00  0.00    -0.020 A 
ATOM     22  C   LIG    1       -0.049   3.844   0.023  0.00  0.00    +0.120 A 
ATOM     23  C   LIG    1       -1.238   3.141   0.030  0.00  0.00    -0.220 A 
BRANCH  23  24
ATOM     24  C   LIG    1       -2.551   3.881   0.047  0.00  0.00    +0.520 C 
ATOM     25  F   LIG    1       -3.270   3.529   1.194  0.00  0.00    -0.170 F 
ATOM     26  F   LIG    1       -3.292   3.541  -1.090  0.00  0.00    -0.170 F 
ATOM     27  F   LIG    1       -2.310   5.258   0.052  0.00  0.00    -0.180 F 
ENDBRANCH  23  24
ENDBRANCH  17  18
ENDBRANCH  16  17
ENDBRANCH   1  16
TORSDOF 8
