REMARK  Name = ZINCqH0000050X0T.0
REMARK                            x       y       z     vdW  Elec       q    Type
REMARK                         _______ _______ _______ _____ _____    ______ ____
ROOT
ATOM      1  C   LIG    1       -6.587   3.792   2.415  0.00  0.00    +0.540 C 
ATOM      2  N   LIG    1       -5.452   3.386   1.813  0.00  0.00    -0.610 N 
ATOM      3  C   LIG    1       -5.502   2.602   0.571  0.00  0.00    +0.290 C 
ATOM      4  C   LIG    1       -4.682   1.322   0.762  0.00  0.00    +0.060 C 
ATOM      5  C   LIG    1       -3.267   1.691   1.216  0.00  0.00    +0.030 C 
ATOM      6  C   LIG    1       -3.336   2.425   2.557  0.00  0.00    +0.030 C 
ATOM      7  C   LIG    1       -4.140   3.718   2.386  0.00  0.00    +0.260 C 
ATOM      8  O   LIG    1       -7.663   3.437   1.982  0.00  0.00    -0.510 OA
ENDROOT
BRANCH   1  12
ATOM      9  C   LIG    1       -6.811   3.960   4.947  0.00  0.00    +0.090 C 
ATOM     10  C   LIG    1       -8.293   4.296   4.715  0.00  0.00    +0.060 C 
ATOM     11  C   LIG    1       -7.809   5.488   3.872  0.00  0.00    +0.060 C 
ATOM     12  C   LIG    1       -6.519   4.688   3.625  0.00  0.00    -0.030 C 
BRANCH   9  18
ATOM     13  C   LIG    1       -4.598   2.429   6.545  0.00  0.00    +0.330 C 
ATOM     14  N   LIG    1       -5.550   1.836   5.601  0.00  0.00    -0.480 N 
ATOM     15  C   LIG    1       -5.645   0.531   5.251  0.00  0.00    +0.370 A 
ATOM     16  N   LIG    1       -6.620   0.430   4.389  0.00  0.00    -0.290 NA
ATOM     17  N   LIG    1       -7.139   1.589   4.186  0.00  0.00    -0.260 NA
ATOM     18  C   LIG    1       -6.513   2.483   4.902  0.00  0.00    +0.170 A 
ENDBRANCH   9  18
ENDBRANCH   1  12
BRANCH   5  19
ATOM     19  S   LIG    1       -2.280   0.180   1.404  0.00  0.00    -0.140 S 
BRANCH  19  20
ATOM     20  C   LIG    1       -0.675   0.800   1.781  0.00  0.00    -0.120 A 
ATOM     21  C   LIG    1        0.183   1.179   0.755  0.00  0.00    +0.080 A 
ATOM     22  C   LIG    1        1.439   1.671   1.054  0.00  0.00    +0.020 A 
ATOM     23  C   LIG    1        1.845   1.780   2.372  0.00  0.00    -0.010 A 
ATOM     24  C   LIG    1        0.995   1.398   3.395  0.00  0.00    +0.020 A 
ATOM     25 CL   LIG    1        3.424   2.399   2.744  0.00  0.00    -0.060 Cl
ATOM     26  C   LIG    1       -0.262   0.906   3.103  0.00  0.00    +0.080 A 
ENDBRANCH  19  20
ENDBRANCH   5  19
TORSDOF 4
