REMARK  Name = ZINCpk00000xIcSP.0
REMARK                            x       y       z     vdW  Elec       q    Type
REMARK                         _______ _______ _______ _____ _____    ______ ____
ROOT
ATOM      1  C   LIG    1       -4.882   1.090   0.253  0.00  0.00    +0.230 C 
ENDROOT
BRANCH   1   2
ATOM      2  C   LIG    1       -5.974   2.096   0.512  0.00  0.00    +0.520 C 
ATOM      3  N   LIG    1       -7.230   1.677   0.763  0.00  0.00    -0.680 N 
ATOM      4  H   LIG    1       -7.446   0.733   0.712  0.00  0.00    +0.410 HD
ATOM      5  O   LIG    1       -5.722   3.282   0.495  0.00  0.00    -0.480 OA
BRANCH   3   6
ATOM      6  C   LIG    1       -8.223   2.605   1.096  0.00  0.00    +0.200 A 
ATOM      7  C   LIG    1       -8.215   3.870   0.523  0.00  0.00    +0.030 A 
ATOM      8  C   LIG    1       -9.200   4.781   0.849  0.00  0.00    +0.070 A 
ATOM      9  C   LIG    1      -10.187   4.439   1.755  0.00  0.00    +0.000 A 
ATOM     10  C   LIG    1      -10.195   3.183   2.333  0.00  0.00    +0.090 A 
ATOM     11  C   LIG    1       -9.216   2.265   2.006  0.00  0.00    -0.220 A 
BRANCH  11  12
ATOM     12  C   LIG    1       -9.225   0.896   2.635  0.00  0.00    +0.510 C 
ATOM     13  F   LIG    1       -8.036   0.702   3.346  0.00  0.00    -0.170 F 
ATOM     14  F   LIG    1       -9.336  -0.076   1.636  0.00  0.00    -0.180 F 
ATOM     15  F   LIG    1      -10.313   0.792   3.509  0.00  0.00    -0.170 F 
ENDBRANCH  11  12
ENDBRANCH   3   6
ENDBRANCH   1   2
BRANCH   1  16
ATOM     16  N   LIG    1       -3.616   1.794   0.009  0.00  0.00    -0.500 NA
ATOM     17  C   LIG    1       -3.677   2.571  -1.236  0.00  0.00    +0.220 C 
BRANCH  16  18
ATOM     18  C   LIG    1       -2.487   0.854  -0.013  0.00  0.00    +0.190 C 
ATOM     19  C   LIG    1       -2.570  -0.014  -1.270  0.00  0.00    +0.030 C 
BRANCH  18  26
ATOM     20  C   LIG    1        3.577   1.746  -0.085  0.00  0.00    +0.300 C 
ATOM     21  N   LIG    1        2.318   0.997  -0.073  0.00  0.00    -0.740 N 
ATOM     22  H   LIG    1        2.331   0.027  -0.083  0.00  0.00    +0.400 HD
ATOM     23  C   LIG    1        1.142   1.655  -0.049  0.00  0.00    +0.690 C 
ATOM     24  N   LIG    1       -0.016   0.966  -0.038  0.00  0.00    -0.690 N 
ATOM     25  H   LIG    1       -0.003  -0.004  -0.048  0.00  0.00    +0.410 HD
ATOM     26  C   LIG    1       -1.192   1.625  -0.019  0.00  0.00    +0.520 C 
ATOM     27  O   LIG    1       -1.208   2.837  -0.006  0.00  0.00    -0.440 OA
ATOM     28  O   LIG    1        1.126   2.871  -0.036  0.00  0.00    -0.530 OA
ENDBRANCH  18  26
ENDBRANCH  16  18
ENDBRANCH   1  16
TORSDOF 6
