REMARK  Name = ZINCqH0000007wjJ.0
REMARK                            x       y       z     vdW  Elec       q    Type
REMARK                         _______ _______ _______ _____ _____    ______ ____
ROOT
ATOM      1  C   LIG    1        1.709  -1.885  -0.024  0.00  0.00    +0.360 C 
ENDROOT
BRANCH   1  10
ATOM      2  C   LIG    1       -1.811  -2.332   3.329  0.00  0.00    +0.120 A 
ATOM      3  C   LIG    1       -1.136  -1.149   3.065  0.00  0.00    -0.060 A 
ATOM      4  C   LIG    1        0.079  -1.182   2.415  0.00  0.00    +0.040 A 
ATOM      5  C   LIG    1        0.637  -2.398   2.017  0.00  0.00    +0.060 A 
ATOM      6  C   LIG    1       -0.037  -3.576   2.286  0.00  0.00    -0.070 A 
ATOM      7  C   LIG    1        0.518  -4.922   1.891  0.00  0.00    +0.080 C 
ATOM      8  C   LIG    1        1.643  -4.736   0.870  0.00  0.00    -0.010 C 
ATOM      9  C   LIG    1        2.579  -3.639   1.393  0.00  0.00    +0.240 C 
ATOM     10  N   LIG    1        1.867  -2.360   1.357  0.00  0.00    -0.490 N 
ATOM     11  C   LIG    1       -1.259  -3.541   2.938  0.00  0.00    -0.010 A 
BRANCH   2  13
ATOM     12  C   LIG    1       -3.518  -1.022   4.341  0.00  0.00    +0.250 C 
ATOM     13  O   LIG    1       -3.011  -2.305   3.969  0.00  0.00    -0.320 OA
ENDBRANCH   2  13
ENDBRANCH   1  10
BRANCH   1  14
ATOM     14  C   LIG    1        1.264  -0.445  -0.012  0.00  0.00    +0.180 A 
ATOM     15  N   LIG    1        2.041   0.609  -0.014  0.00  0.00    -0.460 NA
ATOM     16  C   LIG    1        1.208   1.675  -0.001  0.00  0.00    +0.210 A 
ATOM     17  N   LIG    1       -0.014   1.209   0.009  0.00  0.00    -0.350 NA
ATOM     18  O   LIG    1        0.002  -0.004   0.002  0.00  0.00    +0.090 OA
BRANCH  16  19
ATOM     19  C   LIG    1        1.606   3.103   0.003  0.00  0.00    -0.060 A 
ATOM     20  C   LIG    1        2.954   3.454  -0.003  0.00  0.00    +0.100 A 
ATOM     21  C   LIG    1        3.319   4.785  -0.004  0.00  0.00    -0.030 A 
ATOM     22  C   LIG    1        2.350   5.774   0.010  0.00  0.00    +0.070 A 
ATOM     23  C   LIG    1        1.010   5.437   0.021  0.00  0.00    -0.070 A 
ATOM     24  C   LIG    1        0.629   4.104   0.018  0.00  0.00    +0.160 A 
BRANCH  24  25
ATOM     25  O   LIG    1       -0.688   3.772   0.029  0.00  0.00    -0.300 OA
ATOM     26  C   LIG    1       -1.628   4.848   0.044  0.00  0.00    +0.240 C 
ENDBRANCH  24  25
ENDBRANCH  16  19
ENDBRANCH   1  14
TORSDOF 5
