REMARK  Name = ZINCrH000004uG8L.0
REMARK                            x       y       z     vdW  Elec       q    Type
REMARK                         _______ _______ _______ _____ _____    ______ ____
ROOT
ATOM      1  C   LIG    1       -1.926   2.796  -2.538  0.00  0.00    -0.060 A 
ATOM      2  C   LIG    1       -1.462   2.708  -1.260  0.00  0.00    +0.090 A 
ATOM      3  C   LIG    1       -1.723   3.668  -0.130  0.00  0.00    +0.140 C 
ATOM      4  C   LIG    1       -0.400   3.979   0.578  0.00  0.00    +0.020 C 
ATOM      5  C   LIG    1       -0.157   2.948   1.676  0.00  0.00    +0.010 C 
ATOM      6  C   LIG    1       -0.716   1.587   1.266  0.00  0.00    +0.030 C 
ATOM      7  C   LIG    1       -0.004   1.091   0.005  0.00  0.00    +0.280 C 
ATOM      8  N   LIG    1       -0.718   1.574  -1.181  0.00  0.00    -0.440 N 
ATOM      9  C   LIG    1       -0.754   0.977  -2.408  0.00  0.00    +0.240 A 
ATOM     10  N   LIG    1       -1.476   1.718  -3.215  0.00  0.00    -0.440 NA
ENDROOT
BRANCH   9  11
ATOM     11  C   LIG    1       -0.088  -0.294  -2.769  0.00  0.00    -0.020 A 
ATOM     12  C   LIG    1        0.968  -0.776  -1.995  0.00  0.00    +0.050 A 
ATOM     13  C   LIG    1        1.582  -1.964  -2.333  0.00  0.00    -0.010 A 
ATOM     14  C   LIG    1        1.158  -2.673  -3.445  0.00  0.00    +0.110 A 
ATOM     15  C   LIG    1        0.113  -2.197  -4.220  0.00  0.00    -0.010 A 
ATOM     16  F   LIG    1        1.767  -3.833  -3.776  0.00  0.00    -0.130 F 
ATOM     17  C   LIG    1       -0.511  -1.013  -3.888  0.00  0.00    +0.100 A 
ENDBRANCH   9  11
BRANCH   1  19
ATOM     18  O   LIG    1       -3.111   4.799  -2.370  0.00  0.00    -0.540 OA
ATOM     19  C   LIG    1       -2.769   3.876  -3.083  0.00  0.00    +0.610 C 
ATOM     20  N   LIG    1       -3.159   3.839  -4.373  0.00  0.00    -0.710 N 
ATOM     21  H   LIG    1       -2.886   3.102  -4.941  0.00  0.00    +0.410 HD
BRANCH  20  22
ATOM     22  C   LIG    1       -3.997   4.912  -4.915  0.00  0.00    +0.350 C 
BRANCH  22  23
ATOM     23  C   LIG    1       -4.290   4.634  -6.367  0.00  0.00    +0.100 A 
ATOM     24  C   LIG    1       -5.459   3.984  -6.715  0.00  0.00    -0.010 A 
ATOM     25  C   LIG    1       -5.721   3.738  -8.055  0.00  0.00    +0.060 A 
ATOM     26  C   LIG    1       -4.790   4.147  -8.996  0.00  0.00    -0.030 A 
ATOM     27  C   LIG    1       -3.641   4.787  -8.572  0.00  0.00    +0.260 A 
ATOM     28  N   LIG    1       -3.426   5.010  -7.290  0.00  0.00    -0.470 NA
ENDBRANCH  22  23
ENDBRANCH  20  22
ENDBRANCH   1  19
TORSDOF 4
