REMARK  Name = ZINCpe000000XDlZ.0
REMARK                            x       y       z     vdW  Elec       q    Type
REMARK                         _______ _______ _______ _____ _____    ______ ____
ROOT
ATOM      1  C   LIG    1       -0.016   1.344   0.009  0.00  0.00    +0.520 C 
ATOM      2  N   LIG    1        0.002  -0.004   0.002  0.00  0.00    -0.620 N 
ATOM      3  C   LIG    1       -1.250  -0.776   0.016  0.00  0.00    +0.300 C 
ATOM      4  C   LIG    1       -1.197  -1.801  -1.129  0.00  0.00    +0.190 C 
ATOM      5  N   LIG    1        0.028  -2.602  -1.005  0.00  0.00    -0.480 N 
ATOM      6  C   LIG    1        1.228  -1.768  -1.151  0.00  0.00    +0.210 C 
ATOM      7  C   LIG    1        1.274  -0.742  -0.014  0.00  0.00    +0.290 C 
ATOM      8  O   LIG    1        1.026   1.964   0.003  0.00  0.00    -0.530 OA
ENDROOT
BRANCH   5   9
ATOM      9  C   LIG    1        0.034  -3.648  -1.921  0.00  0.00    +0.310 A 
ATOM     10  C   LIG    1       -1.023  -4.553  -1.941  0.00  0.00    -0.050 A 
ATOM     11  C   LIG    1       -1.005  -5.588  -2.858  0.00  0.00    +0.090 A 
ATOM     12  C   LIG    1        0.073  -5.684  -3.728  0.00  0.00    -0.060 A 
ATOM     13  C   LIG    1        1.088  -4.751  -3.653  0.00  0.00    +0.290 A 
ATOM     14  N   LIG    1        1.042  -3.770  -2.771  0.00  0.00    -0.520 NA
ENDBRANCH   5   9
BRANCH   1  15
ATOM     15  C   LIG    1       -1.331   2.079   0.020  0.00  0.00    +0.050 C 
BRANCH  15  16
ATOM     16  C   LIG    1       -1.072   3.587   0.027  0.00  0.00    +0.290 C 
BRANCH  16  18
ATOM     17  C   LIG    1       -2.369   5.650   0.044  0.00  0.00    +0.600 C 
ATOM     18  N   LIG    1       -2.351   4.302   0.037  0.00  0.00    -0.720 N 
ATOM     19  H   LIG    1       -3.184   3.806   0.038  0.00  0.00    +0.410 HD
ATOM     20  O   LIG    1       -1.325   6.272   0.042  0.00  0.00    -0.510 OA
BRANCH  17  24
ATOM     21  C   LIG    1       -5.964   9.229   0.081  0.00  0.00    +0.200 C 
ATOM     22  C   LIG    1       -5.200   7.930   0.070  0.00  0.00    -0.030 A 
ATOM     23  C   LIG    1       -3.855   7.784   0.063  0.00  0.00    -0.010 A 
ATOM     24  C   LIG    1       -3.664   6.374   0.054  0.00  0.00    -0.030 A 
ATOM     25  N   LIG    1       -4.862   5.845   0.051  0.00  0.00    -0.330 NA
ATOM     26  O   LIG    1       -5.721   6.695   0.066  0.00  0.00    +0.120 OA
ENDBRANCH  17  24
ENDBRANCH  16  18
ENDBRANCH  15  16
ENDBRANCH   1  15
TORSDOF 5
