REMARK  Name = ZINCrH000004nBC0.0
REMARK                            x       y       z     vdW  Elec       q    Type
REMARK                         _______ _______ _______ _____ _____    ______ ____
ROOT
ATOM      1  N   LIG    1        3.630  -0.643  -0.037  0.00  0.00    -0.490 N 
ATOM      2  C   LIG    1        4.391  -0.385   1.193  0.00  0.00    +0.180 C 
ATOM      3  C   LIG    1        5.633  -1.281   1.219  0.00  0.00    +0.280 C 
ATOM      4  N   LIG    1        6.382  -1.077  -0.030  0.00  0.00    -0.620 N 
ATOM      5  C   LIG    1        5.654  -1.184  -1.304  0.00  0.00    +0.300 C 
ATOM      6  C   LIG    1        7.701  -0.799  -0.008  0.00  0.00    +0.520 C 
ATOM      7  O   LIG    1        8.303  -0.633  -1.048  0.00  0.00    -0.520 OA
ATOM      8  C   LIG    1        4.411  -0.291  -1.230  0.00  0.00    +0.180 C 
ENDROOT
BRANCH   1  14
ATOM      9  C   LIG    1        1.210  -0.680  -0.013  0.00  0.00    +0.150 A 
ATOM     10  C   LIG    1        0.002  -0.004   0.002  0.00  0.00    -0.080 A 
ATOM     11  C   LIG    1       -0.017   1.379   0.010  0.00  0.00    +0.050 A 
ATOM     12  C   LIG    1        1.169   2.090   0.002  0.00  0.00    -0.030 A 
ATOM     13  C   LIG    1        2.379   1.422  -0.013  0.00  0.00    +0.010 A 
ATOM     14  C   LIG    1        2.406   0.036  -0.021  0.00  0.00    +0.050 A 
BRANCH   9  16
ATOM     15  C   LIG    1       -0.033  -2.708  -0.011  0.00  0.00    +0.220 C 
ATOM     16  O   LIG    1        1.230  -2.040  -0.020  0.00  0.00    -0.300 OA
ENDBRANCH   9  16
ENDBRANCH   1  14
BRANCH   6  17
ATOM     17  C   LIG    1        8.427  -0.694   1.308  0.00  0.00    +0.150 C 
BRANCH  17  18
ATOM     18  C   LIG    1        9.879  -0.378   1.057  0.00  0.00    +0.090 A 
ATOM     19  C   LIG    1       10.481   0.677   1.611  0.00  0.00    -0.070 A 
ATOM     20  S   LIG    1       12.160   0.699   1.077  0.00  0.00    +0.090 S 
ATOM     21  C   LIG    1       11.874  -0.759   0.131  0.00  0.00    +0.140 A 
ATOM     22  N   LIG    1       10.633  -1.127   0.282  0.00  0.00    -0.440 NA
BRANCH  21  23
ATOM     23  C   LIG    1       12.880  -1.456  -0.697  0.00  0.00    -0.050 A 
ATOM     24  C   LIG    1       12.601  -2.571  -1.402  0.00  0.00    +0.030 A 
ATOM     25  S   LIG    1       14.043  -3.103  -2.256  0.00  0.00    +0.140 S 
ATOM     26  C   LIG    1       14.970  -1.761  -1.601  0.00  0.00    -0.040 A 
ATOM     27  C   LIG    1       14.197  -1.012  -0.820  0.00  0.00    +0.020 A 
ENDBRANCH  21  23
ENDBRANCH  17  18
ENDBRANCH   6  17
TORSDOF 5
