REMARK  Name = ZINCrg000000tUte.0
REMARK                            x       y       z     vdW  Elec       q    Type
REMARK                         _______ _______ _______ _____ _____    ______ ____
ROOT
ATOM      1  C   LIG    1        3.008  -6.441  -0.901  0.00  0.00    +0.570 C 
ATOM      2  N   LIG    1        2.845  -5.116  -1.084  0.00  0.00    -0.720 N 
ATOM      3  H   LIG    1        3.252  -4.678  -1.848  0.00  0.00    +0.400 HD
ATOM      4  O   LIG    1        2.499  -6.990   0.057  0.00  0.00    -0.520 OA
ENDROOT
BRANCH   1  13
ATOM      5  O   LIG    1        5.720 -12.649  -3.028  0.00  0.00    -0.570 OA
ATOM      6  C   LIG    1        5.616 -11.460  -3.257  0.00  0.00    +0.710 C 
ATOM      7  N   LIG    1        6.224 -10.962  -4.350  0.00  0.00    -0.730 N 
ATOM      8  H   LIG    1        6.732 -11.544  -4.937  0.00  0.00    +0.430 HD
ATOM      9  C   LIG    1        6.109  -9.524  -4.643  0.00  0.00    +0.300 C 
ATOM     10  C   LIG    1        5.299  -8.690  -3.676  0.00  0.00    -0.120 A 
ATOM     11  C   LIG    1        5.135  -7.336  -3.866  0.00  0.00    +0.070 A 
ATOM     12  C   LIG    1        4.390  -6.599  -2.966  0.00  0.00    +0.020 A 
ATOM     13  C   LIG    1        3.805  -7.229  -1.866  0.00  0.00    -0.100 A 
ATOM     14  C   LIG    1        3.978  -8.600  -1.673  0.00  0.00    +0.050 A 
ATOM     15  C   LIG    1        4.722  -9.333  -2.584  0.00  0.00    +0.170 A 
ATOM     16  N   LIG    1        4.902 -10.706  -2.411  0.00  0.00    -0.660 N 
ATOM     17  H   LIG    1        4.492 -11.134  -1.644  0.00  0.00    +0.430 HD
ENDBRANCH   1  13
BRANCH   2  18
ATOM     18  C   LIG    1        2.056  -4.336  -0.128  0.00  0.00    +0.240 C 
ATOM     19  C   LIG    1        0.570  -4.267  -0.570  0.00  0.00    +0.050 C 
ATOM     20  C   LIG    1        0.110  -2.944   0.097  0.00  0.00    +0.280 C 
ATOM     21  N   LIG    1        1.270  -2.042  -0.021  0.00  0.00    -0.590 N 
ATOM     22  C   LIG    1        2.489  -2.855  -0.141  0.00  0.00    +0.270 C 
BRANCH  21  23
ATOM     23  C   LIG    1        1.220  -0.658  -0.013  0.00  0.00    +0.270 A 
ATOM     24  C   LIG    1        2.387   0.082  -0.067  0.00  0.00    -0.240 A 
ATOM     25  C   LIG    1        2.306   1.482  -0.059  0.00  0.00    +0.530 A 
ATOM     26  N   LIG    1        1.098   2.078   0.002  0.00  0.00    -0.520 N 
ATOM     27  H   LIG    1        1.039   3.046   0.008  0.00  0.00    +0.440 HD
ATOM     28  N   LIG    1       -0.071   1.312   0.056  0.00  0.00    -0.180 NA
ATOM     29  O   LIG    1        3.323   2.158  -0.101  0.00  0.00    -0.530 OA
ATOM     30 CL   LIG    1        3.930  -0.710  -0.145  0.00  0.00    -0.030 Cl
ATOM     31  C   LIG    1       -0.021   0.009   0.049  0.00  0.00    +0.270 A 
ENDBRANCH  21  23
ENDBRANCH   2  18
TORSDOF 3
