REMARK  Name = ZINCrg00000SjSrq.0
REMARK                            x       y       z     vdW  Elec       q    Type
REMARK                         _______ _______ _______ _____ _____    ______ ____
ROOT
ATOM      1  N   LIG    1       -5.466   0.617   1.725  0.00  0.00    -0.520 N 
ATOM      2  H   LIG    1       -6.103   0.613   0.993  0.00  0.00    +0.430 HD
ATOM      3  C   LIG    1       -4.144   0.637   1.466  0.00  0.00    +0.510 C 
ATOM      4  O   LIG    1       -3.347   0.642   2.380  0.00  0.00    -0.490 OA
ENDROOT
BRANCH   1  16
ATOM      5  C   LIG    1       -6.514   2.972   2.738  0.00  0.00    +0.180 C 
ATOM      6  C   LIG    1       -6.443   1.734   3.594  0.00  0.00    +0.400 A 
ATOM      7  N   LIG    1       -6.884   1.802   4.813  0.00  0.00    -0.500 NA
ATOM      8  C   LIG    1       -6.853   0.728   5.641  0.00  0.00    +0.150 A 
ATOM      9  C   LIG    1       -7.328   0.800   6.952  0.00  0.00    +0.030 A 
ATOM     10  C   LIG    1       -7.277  -0.316   7.758  0.00  0.00    +0.070 A 
ATOM     11  C   LIG    1       -6.758  -1.513   7.284  0.00  0.00    +0.010 A 
ATOM     12  C   LIG    1       -6.284  -1.609   5.993  0.00  0.00    +0.100 A 
ATOM     13  C   LIG    1       -6.326  -0.492   5.162  0.00  0.00    -0.190 A 
ATOM     14  C   LIG    1       -5.840  -0.536   3.775  0.00  0.00    +0.550 A 
ATOM     15  O   LIG    1       -5.378  -1.557   3.299  0.00  0.00    -0.490 OA
ATOM     16  N   LIG    1       -5.920   0.604   3.050  0.00  0.00    -0.340 N 
ENDBRANCH   1  16
BRANCH   3  17
ATOM     17  C   LIG    1       -3.655   0.651   0.040  0.00  0.00    +0.390 C 
BRANCH  17  18
ATOM     18  N   LIG    1       -2.190   0.671   0.027  0.00  0.00    -0.560 N 
ATOM     19  C   LIG    1       -1.444   1.790   0.031  0.00  0.00    +0.580 C 
ATOM     20  C   LIG    1       -0.017   1.406   0.010  0.00  0.00    -0.140 A 
ATOM     21  C   LIG    1        1.175   2.111   0.002  0.00  0.00    +0.100 A 
ATOM     22  C   LIG    1        2.380   1.424  -0.013  0.00  0.00    +0.060 A 
ATOM     23  C   LIG    1        2.399   0.043  -0.021  0.00  0.00    +0.060 A 
ATOM     24  C   LIG    1        1.213  -0.676  -0.013  0.00  0.00    +0.100 A 
ATOM     25  C   LIG    1        0.002  -0.004   0.002  0.00  0.00    -0.140 A 
ATOM     26  O   LIG    1       -1.871   2.927   0.044  0.00  0.00    -0.460 OA
ATOM     27  C   LIG    1       -1.414  -0.428   0.013  0.00  0.00    +0.580 C 
ATOM     28  O   LIG    1       -1.810  -1.576   0.011  0.00  0.00    -0.450 OA
ENDBRANCH  17  18
ENDBRANCH   3  17
TORSDOF 3
