REMARK  Name = ZINCvU00000008Xa.0
REMARK                            x       y       z     vdW  Elec       q    Type
REMARK                         _______ _______ _______ _____ _____    ______ ____
ROOT
ATOM      1  C   LIG    1        2.386   5.444   0.007  0.00  0.00    +0.050 C 
ENDROOT
BRANCH   1   2
ATOM      2  C   LIG    1        2.239   5.951  -1.405  0.00  0.00    -0.090 A 
ATOM      3  C   LIG    1        3.197   5.644  -2.352  0.00  0.00    +0.030 A 
ATOM      4  C   LIG    1        3.060   6.105  -3.648  0.00  0.00    +0.000 A 
ATOM      5  C   LIG    1        1.970   6.882  -3.994  0.00  0.00    -0.070 A 
ATOM      6  C   LIG    1        1.015   7.193  -3.045  0.00  0.00    +0.000 A 
ATOM      7  C   LIG    1        1.824   7.390  -5.405  0.00  0.00    +0.090 C 
ATOM      8  C   LIG    1        1.149   6.728  -1.750  0.00  0.00    +0.070 A 
ENDBRANCH   1   2
BRANCH   1   9
ATOM      9  C   LIG    1        2.413   3.937  -0.001  0.00  0.00    +0.430 C 
ATOM     10  O   LIG    1        3.474   3.350  -0.014  0.00  0.00    -0.430 OA
BRANCH   9  15
ATOM     11  C   LIG    1       -2.513   0.973   0.019  0.00  0.00    +0.100 C 
ATOM     12  C   LIG    1       -1.222   1.750   0.017  0.00  0.00    -0.050 A 
ATOM     13  C   LIG    1       -0.013   1.076   0.008  0.00  0.00    +0.000 A 
ATOM     14  C   LIG    1        1.173   1.780   0.000  0.00  0.00    +0.090 A 
ATOM     15  C   LIG    1        1.152   3.178   0.008  0.00  0.00    -0.170 A 
ATOM     16  C   LIG    1       -0.074   3.852   0.022  0.00  0.00    +0.070 A 
ATOM     17  C   LIG    1       -1.251   3.133   0.030  0.00  0.00    +0.000 A 
ENDBRANCH   9  15
ENDBRANCH   1   9
BRANCH   1  18
ATOM     18  S   LIG    1        3.928   6.071   0.716  0.00  0.00    +0.050 S 
BRANCH  18  19
ATOM     19  C   LIG    1        3.572   7.797   0.744  0.00  0.00    +0.150 A 
ATOM     20  N   LIG    1        2.466   8.372   0.334  0.00  0.00    -0.280 NA
ATOM     21  N   LIG    1        2.547   9.644   0.503  0.00  0.00    -0.280 NA
ATOM     22  C   LIG    1        3.702   9.954   1.018  0.00  0.00    +0.190 A 
ATOM     23  C   LIG    1        4.184  11.340   1.361  0.00  0.00    +0.200 C 
ATOM     24  N   LIG    1        4.397   8.789   1.191  0.00  0.00    -0.460 N 
BRANCH  24  25
ATOM     25  C   LIG    1        5.747   8.637   1.740  0.00  0.00    +0.370 C 
BRANCH  25  26
ATOM     26  C   LIG    1        6.756   8.717   0.624  0.00  0.00    -0.120 A 
ATOM     27  C   LIG    1        7.150   7.567  -0.035  0.00  0.00    +0.040 A 
ATOM     28  C   LIG    1        8.072   7.641  -1.062  0.00  0.00    +0.010 A 
ATOM     29  C   LIG    1        8.608   8.863  -1.423  0.00  0.00    +0.030 A 
ATOM     30  C   LIG    1        8.217  10.012  -0.761  0.00  0.00    +0.010 A 
ATOM     31  C   LIG    1        7.291   9.939   0.263  0.00  0.00    +0.020 A 
ENDBRANCH  25  26
ENDBRANCH  24  25
ENDBRANCH  18  19
ENDBRANCH   1  18
TORSDOF 7
