REMARK  Name = ZINCvU0000000FSd.0
REMARK                            x       y       z     vdW  Elec       q    Type
REMARK                         _______ _______ _______ _____ _____    ______ ____
ROOT
ATOM      1  C   LIG    1        3.111  -2.719   1.150  0.00  0.00    +0.500 C 
ATOM      2  N   LIG    1        3.139  -3.968   0.646  0.00  0.00    -0.600 N 
ATOM      3  C   LIG    1        2.036  -4.904   0.902  0.00  0.00    +0.270 C 
ATOM      4  C   LIG    1        1.525  -5.444  -0.437  0.00  0.00    +0.020 C 
ATOM      5  C   LIG    1        2.694  -6.049  -1.218  0.00  0.00    +0.030 C 
ATOM      6  C   LIG    1        3.736  -4.965  -1.500  0.00  0.00    +0.030 C 
ATOM      7  C   LIG    1        4.270  -4.418  -0.177  0.00  0.00    +0.330 C 
ATOM      8  O   LIG    1        4.072  -1.991   1.021  0.00  0.00    -0.510 OA
ENDROOT
BRANCH   7   9
ATOM      9  C   LIG    1        5.191  -3.256  -0.447  0.00  0.00    +0.120 A 
ATOM     10  N   LIG    1        6.356  -3.127   0.067  0.00  0.00    -0.460 NA
ATOM     11  C   LIG    1        7.071  -2.035  -0.264  0.00  0.00    +0.090 A 
ATOM     12  C   LIG    1        8.362  -1.646   0.147  0.00  0.00    +0.060 A 
ATOM     13  C   LIG    1        8.912  -0.488  -0.312  0.00  0.00    +0.020 A 
ATOM     14  C   LIG    1        8.217   0.329  -1.191  0.00  0.00    +0.020 A 
ATOM     15  C   LIG    1        6.954  -0.026  -1.611  0.00  0.00    +0.060 A 
ATOM     16  C   LIG    1        6.375  -1.207  -1.152  0.00  0.00    -0.180 A 
ATOM     17  S   LIG    1        4.815  -1.954  -1.483  0.00  0.00    +0.110 S 
ENDBRANCH   7   9
BRANCH   1  18
ATOM     18  C   LIG    1        1.885  -2.226   1.876  0.00  0.00    +0.330 C 
BRANCH  18  21
ATOM     19  O   LIG    1        0.081  -0.756   3.239  0.00  0.00    -0.500 OA
ATOM     20  C   LIG    1        1.136  -0.199   3.001  0.00  0.00    +0.590 C 
ATOM     21  N   LIG    1        2.103  -0.849   2.325  0.00  0.00    -0.710 N 
ATOM     22  H   LIG    1        2.945  -0.405   2.135  0.00  0.00    +0.410 HD
BRANCH  20  23
ATOM     23  C   LIG    1        1.355   1.182   3.450  0.00  0.00    -0.230 A 
ATOM     24  C   LIG    1        0.458   1.915   4.122  0.00  0.00    +0.040 A 
ATOM     25  C   LIG    1        0.872   3.214   4.461  0.00  0.00    -0.090 A 
ATOM     26  C   LIG    1        0.161   4.216   5.164  0.00  0.00    +0.070 A 
ATOM     27  C   LIG    1        0.729   5.430   5.396  0.00  0.00    +0.020 A 
ATOM     28  C   LIG    1        2.014   5.709   4.949  0.00  0.00    +0.060 A 
ATOM     29  C   LIG    1        2.729   4.757   4.263  0.00  0.00    +0.050 A 
ATOM     30  C   LIG    1        2.167   3.501   4.012  0.00  0.00    -0.120 A 
ATOM     31 CL   LIG    1       -1.108   1.299   4.549  0.00  0.00    -0.010 Cl
ATOM     32  S   LIG    1        2.824   2.100   3.174  0.00  0.00    +0.160 S 
ENDBRANCH  20  23
ENDBRANCH  18  21
ENDBRANCH   1  18
TORSDOF 4
