REMARK  Name = ZINCrD000000C66E.1
REMARK                            x       y       z     vdW  Elec       q    Type
REMARK                         _______ _______ _______ _____ _____    ______ ____
ROOT
ATOM      1  O   LIG    1       -1.424   3.082   1.142  0.00  0.00    -0.570 OA
ATOM      2  C   LIG    1       -1.299   2.020   0.563  0.00  0.00    +0.710 C 
ATOM      3  N   LIG    1       -0.108   1.388   0.564  0.00  0.00    -0.630 N 
ATOM      4  C   LIG    1        1.081   2.020   1.155  0.00  0.00    +0.310 C 
ATOM      5  C   LIG    1        1.727   1.028   2.127  0.00  0.00    +0.170 C 
ATOM      6  N   LIG    1        1.978  -0.241   1.432  0.00  0.00    -0.540 NA
ATOM      7  C   LIG    1        0.724  -0.864   0.988  0.00  0.00    +0.170 C 
ATOM      8  C   LIG    1        0.037   0.051  -0.032  0.00  0.00    +0.270 C 
ATOM      9  N   LIG    1       -2.350   1.475  -0.080  0.00  0.00    -0.690 N 
ATOM     10  H   LIG    1       -2.273   0.593  -0.477  0.00  0.00    +0.410 HD
ENDROOT
BRANCH   9  11
ATOM     11  C   LIG    1       -3.555   2.182  -0.176  0.00  0.00    +0.170 A 
ATOM     12  C   LIG    1       -3.543   3.567  -0.273  0.00  0.00    +0.020 A 
ATOM     13  C   LIG    1       -4.733   4.261  -0.368  0.00  0.00    +0.030 A 
ATOM     14  C   LIG    1       -5.936   3.578  -0.367  0.00  0.00    +0.000 A 
ATOM     15  C   LIG    1       -5.951   2.199  -0.270  0.00  0.00    -0.070 A 
ATOM     16  C   LIG    1       -4.764   1.498  -0.180  0.00  0.00    -0.010 A 
BRANCH  15  17
ATOM     17  C   LIG    1       -7.263   1.458  -0.269  0.00  0.00    +0.100 C 
BRANCH  17  18
ATOM     18  C   LIG    1       -7.652   1.107  -1.706  0.00  0.00    +0.060 C 
BRANCH  18  19
ATOM     19  C   LIG    1       -8.985   0.355  -1.705  0.00  0.00    +0.450 C 
ATOM     20  F   LIG    1       -8.857  -0.819  -0.956  0.00  0.00    -0.180 F 
ATOM     21  F   LIG    1       -9.340   0.034  -3.019  0.00  0.00    -0.180 F 
ATOM     22  F   LIG    1       -9.976   1.164  -1.139  0.00  0.00    -0.180 F 
ENDBRANCH  18  19
ENDBRANCH  17  18
ENDBRANCH  15  17
ENDBRANCH   9  11
BRANCH   6  23
ATOM     23  C   LIG    1        2.751  -1.161   2.278  0.00  0.00    +0.190 C 
BRANCH  23  24
ATOM     24  C   LIG    1        4.148  -0.584   2.515  0.00  0.00    -0.030 C 
ATOM     25  C   LIG    1        5.000  -1.541   3.392  0.00  0.00    +0.010 C 
ATOM     26  C   LIG    1        6.430  -1.188   2.910  0.00  0.00    +0.200 C 
ATOM     27  O   LIG    1        6.298  -0.934   1.502  0.00  0.00    -0.390 OA
ATOM     28  C   LIG    1        4.955  -0.540   1.199  0.00  0.00    +0.210 C 
ENDBRANCH  23  24
ENDBRANCH   6  23
TORSDOF 6
