REMARK  Name = ZINCrH000004lhSa.0
REMARK                            x       y       z     vdW  Elec       q    Type
REMARK                         _______ _______ _______ _____ _____    ______ ____
ROOT
ATOM      1  N   LIG    1       -3.866   1.966  -0.069  0.00  0.00    -0.580 N 
ATOM      2  C   LIG    1       -3.389   1.655  -1.290  0.00  0.00    +0.580 C 
ATOM      3  O   LIG    1       -3.784   0.656  -1.861  0.00  0.00    -0.510 OA
ENDROOT
BRANCH   2   4
ATOM      4  C   LIG    1       -2.387   2.526  -1.935  0.00  0.00    -0.170 A 
ATOM      5  C   LIG    1       -1.267   2.956  -1.219  0.00  0.00    +0.110 A 
ATOM      6  C   LIG    1       -0.338   3.773  -1.825  0.00  0.00    -0.010 A 
ATOM      7  C   LIG    1       -0.507   4.165  -3.144  0.00  0.00    +0.160 A 
ATOM      8  C   LIG    1       -1.612   3.739  -3.863  0.00  0.00    -0.040 A 
ATOM      9  F   LIG    1        0.408   4.966  -3.731  0.00  0.00    -0.120 F 
ATOM     10  C   LIG    1       -2.552   2.919  -3.268  0.00  0.00    +0.180 A 
ATOM     11  F   LIG    1       -3.629   2.503  -3.969  0.00  0.00    -0.110 F 
ENDBRANCH   2   4
BRANCH   1  12
ATOM     12  C   LIG    1       -3.426   3.193   0.599  0.00  0.00    +0.300 C 
BRANCH  12  13
ATOM     13  C   LIG    1       -3.677   4.392  -0.319  0.00  0.00    +0.150 C 
BRANCH  13  15
ATOM     14  C   LIG    1       -5.417   5.550  -1.492  0.00  0.00    +0.180 C 
ATOM     15  O   LIG    1       -5.080   4.524  -0.556  0.00  0.00    -0.350 OA
ENDBRANCH  13  15
ENDBRANCH  12  13
ENDBRANCH   1  12
BRANCH   1  16
ATOM     16  C   LIG    1       -4.826   1.077   0.591  0.00  0.00    +0.340 C 
BRANCH  16  17
ATOM     17  C   LIG    1       -4.113   0.249   1.627  0.00  0.00    -0.090 A 
ATOM     18  C   LIG    1       -3.236   0.851   2.510  0.00  0.00    +0.030 A 
ATOM     19  C   LIG    1       -2.585   0.092   3.464  0.00  0.00    +0.050 A 
ATOM     20  C   LIG    1       -2.803  -1.272   3.529  0.00  0.00    -0.080 A 
ATOM     21  C   LIG    1       -3.676  -1.876   2.643  0.00  0.00    +0.050 A 
ATOM     22 BR   LIG    1       -1.908  -2.312   4.830  0.00  0.00    -0.040 Br
ATOM     23  C   LIG    1       -4.331  -1.115   1.692  0.00  0.00    +0.060 A 
ENDBRANCH  16  17
BRANCH  16  24
ATOM     24  C   LIG    1       -5.898   1.901   1.256  0.00  0.00    +0.450 C 
ATOM     25  O   LIG    1       -5.884   3.105   1.157  0.00  0.00    -0.450 OA
BRANCH  24  26
ATOM     26  O   LIG    1       -6.868   1.297   1.961  0.00  0.00    -0.350 OA
ATOM     27  C   LIG    1       -7.867   2.153   2.575  0.00  0.00    +0.270 C 
ENDBRANCH  24  26
ENDBRANCH  16  24
ENDBRANCH   1  16
TORSDOF 8
