REMARK  Name = ZINCrD00000ce5hk.0
REMARK                            x       y       z     vdW  Elec       q    Type
REMARK                         _______ _______ _______ _____ _____    ______ ____
ROOT
ATOM      1  C   LIG    1       -3.573  -1.559   5.260  0.00  0.00    +0.240 C 
ENDROOT
BRANCH   1   4
ATOM      2  C   LIG    1       -3.790  -0.549   8.947  0.00  0.00    +0.080 C 
ATOM      3  C   LIG    1       -3.952  -0.555   7.448  0.00  0.00    +0.520 C 
ATOM      4  N   LIG    1       -3.417  -1.553   6.717  0.00  0.00    -0.720 N 
ATOM      5  H   LIG    1       -2.927  -2.267   7.155  0.00  0.00    +0.400 HD
ATOM      6  O   LIG    1       -4.563   0.338   6.901  0.00  0.00    -0.520 OA
ENDBRANCH   1   4
BRANCH   1   7
ATOM      7  C   LIG    1       -2.954  -0.312   4.683  0.00  0.00    +0.500 C 
ATOM      8  N   LIG    1       -2.613  -0.270   3.380  0.00  0.00    -0.720 N 
ATOM      9  H   LIG    1       -2.765  -1.043   2.814  0.00  0.00    +0.400 HD
ATOM     10  O   LIG    1       -2.764   0.654   5.391  0.00  0.00    -0.500 OA
BRANCH   8  11
ATOM     11  C   LIG    1       -2.011   0.942   2.819  0.00  0.00    +0.230 C 
ATOM     12  C   LIG    1       -2.228   1.094   1.305  0.00  0.00    +0.020 C 
ATOM     13  C   LIG    1       -0.779   1.603   1.227  0.00  0.00    -0.010 C 
ATOM     14  C   LIG    1       -0.509   0.801   2.511  0.00  0.00    +0.000 C 
BRANCH  13  15
ATOM     15  C   LIG    1       -0.013   1.086   0.008  0.00  0.00    -0.010 C 
ATOM     16  C   LIG    1       -0.641   1.627  -1.301  0.00  0.00    +0.010 C 
ATOM     17  C   LIG    1        0.535   1.540  -2.305  0.00  0.00    -0.010 C 
ATOM     18  C   LIG    1        1.773   1.934  -1.473  0.00  0.00    -0.010 C 
ATOM     19  C   LIG    1        1.425   1.645  -0.003  0.00  0.00    +0.000 C 
ENDBRANCH  13  15
ENDBRANCH   8  11
ENDBRANCH   1   7
BRANCH   1  20
ATOM     20  C   LIG    1       -5.062  -1.599   4.908  0.00  0.00    +0.120 C 
BRANCH  20  21
ATOM     21  C   LIG    1       -5.654  -2.903   5.378  0.00  0.00    -0.160 A 
ATOM     22  C   LIG    1       -5.815  -4.017   4.646  0.00  0.00    +0.220 A 
ATOM     23  N   LIG    1       -6.385  -4.999   5.410  0.00  0.00    -0.600 N 
ATOM     24  H   LIG    1       -6.598  -5.893   5.100  0.00  0.00    +0.420 HD
ATOM     25  C   LIG    1       -6.611  -4.529   6.684  0.00  0.00    +0.090 A 
ATOM     26  C   LIG    1       -7.154  -5.096   7.832  0.00  0.00    -0.010 A 
ATOM     27  C   LIG    1       -7.248  -4.349   8.986  0.00  0.00    +0.020 A 
ATOM     28  C   LIG    1       -6.805  -3.034   9.016  0.00  0.00    -0.030 A 
ATOM     29  C   LIG    1       -6.268  -2.457   7.900  0.00  0.00    +0.050 A 
ATOM     30  C   LIG    1       -6.157  -3.197   6.722  0.00  0.00    -0.090 A 
ENDBRANCH  20  21
ENDBRANCH   1  20
TORSDOF 6
