REMARK  Name = ZINCvU0000000FB6.0
REMARK                            x       y       z     vdW  Elec       q    Type
REMARK                         _______ _______ _______ _____ _____    ______ ____
ROOT
ATOM      1  C   LIG    1        1.896   4.307   0.299  0.00  0.00    +0.160 A 
ATOM      2  N   LIG    1        0.780   4.941   0.584  0.00  0.00    -0.290 NA
ATOM      3  N   LIG    1        1.039   6.142   0.960  0.00  0.00    -0.260 NA
ATOM      4  C   LIG    1        2.334   6.352   0.930  0.00  0.00    +0.230 A 
ATOM      5  N   LIG    1        2.923   5.184   0.506  0.00  0.00    -0.460 N 
ENDROOT
BRANCH   4   6
ATOM      6  C   LIG    1        3.029   7.608   1.286  0.00  0.00    -0.070 A 
ATOM      7  C   LIG    1        2.373   8.601   2.022  0.00  0.00    +0.120 A 
ATOM      8  C   LIG    1        3.068   9.757   2.329  0.00  0.00    -0.010 A 
ATOM      9  C   LIG    1        4.377   9.893   1.904  0.00  0.00    +0.280 A 
ATOM     10  N   LIG    1        4.971   8.940   1.211  0.00  0.00    -0.470 NA
ATOM     11  C   LIG    1        4.353   7.820   0.898  0.00  0.00    +0.260 A 
ENDBRANCH   4   6
BRANCH   1  12
ATOM     12  S   LIG    1        2.040   2.641  -0.255  0.00  0.00    +0.080 S 
BRANCH  12  13
ATOM     13  C   LIG    1        0.294   2.165  -0.277  0.00  0.00    +0.090 C 
BRANCH  13  14
ATOM     14  C   LIG    1        0.168   0.734  -0.733  0.00  0.00    +0.420 C 
ATOM     15  O   LIG    1        1.161   0.099  -1.015  0.00  0.00    -0.430 OA
BRANCH  14  20
ATOM     16  C   LIG    1       -3.538   0.205  -0.504  0.00  0.00    -0.100 A 
ATOM     17  C   LIG    1       -3.659  -1.070  -1.029  0.00  0.00    +0.050 A 
ATOM     18  C   LIG    1       -2.538  -1.759  -1.457  0.00  0.00    +0.000 A 
ATOM     19  C   LIG    1       -1.291  -1.178  -1.369  0.00  0.00    -0.020 A 
ATOM     20  C   LIG    1       -1.160   0.108  -0.835  0.00  0.00    -0.160 A 
ATOM     21  C   LIG    1       -2.297   0.799  -0.405  0.00  0.00    +0.060 A 
BRANCH  16  23
ATOM     22  C   LIG    1       -5.341   1.756  -1.205  0.00  0.00    +0.030 C 
ATOM     23  C   LIG    1       -4.765   0.947  -0.041  0.00  0.00    +0.050 C 
ENDBRANCH  16  23
BRANCH  19  24
ATOM     24  C   LIG    1       -0.073  -1.928  -1.842  0.00  0.00    +0.070 C 
ATOM     25  C   LIG    1        0.347  -1.404  -3.217  0.00  0.00    +0.030 C 
ENDBRANCH  19  24
ENDBRANCH  14  20
ENDBRANCH  13  14
ENDBRANCH  12  13
ENDBRANCH   1  12
BRANCH   5  26
ATOM     26  C   LIG    1        4.354   4.931   0.315  0.00  0.00    +0.440 C 
BRANCH  26  27
ATOM     27  C   LIG    1        4.709   5.124  -1.137  0.00  0.00    -0.060 A 
ATOM     28  C   LIG    1        4.996   6.298  -1.728  0.00  0.00    -0.020 A 
ATOM     29  C   LIG    1        5.271   6.016  -3.086  0.00  0.00    -0.060 A 
ATOM     30  C   LIG    1        5.127   4.688  -3.245  0.00  0.00    +0.200 A 
ATOM     31  O   LIG    1        4.787   4.153  -2.061  0.00  0.00    -0.160 OA
ENDBRANCH  26  27
ENDBRANCH   5  26
TORSDOF 9
