REMARK  Name = ZINCpk00000ea1Gg.0
REMARK                            x       y       z     vdW  Elec       q    Type
REMARK                         _______ _______ _______ _____ _____    ______ ____
ROOT
ATOM      1  C   LIG    1       -0.712  -1.293   3.568  0.00  0.00    +0.020 C 
ATOM      2  C   LIG    1        0.139  -1.084   2.302  0.00  0.00    +0.290 C 
ATOM      3  N   LIG    1       -0.234   0.264   1.813  0.00  0.00    -0.620 N 
ATOM      4  C   LIG    1       -0.375   1.075   3.045  0.00  0.00    +0.290 C 
ATOM      5  C   LIG    1       -0.412   0.662   0.538  0.00  0.00    +0.540 C 
ATOM      6  O   LIG    1       -0.616   1.831   0.290  0.00  0.00    -0.510 OA
ATOM      7  C   LIG    1       -1.055   0.129   4.059  0.00  0.00    +0.060 C 
ENDROOT
BRANCH   5   8
ATOM      8  C   LIG    1       -0.357  -0.347  -0.580  0.00  0.00    +0.260 C 
ATOM      9  C   LIG    1       -1.228   0.129  -1.745  0.00  0.00    +0.050 C 
ATOM     10  C   LIG    1       -2.436   0.896  -1.238  0.00  0.00    +0.010 C 
ATOM     11  C   LIG    1       -3.426   0.041  -0.469  0.00  0.00    +0.030 C 
ATOM     12  C   LIG    1       -2.813  -0.448   0.846  0.00  0.00    +0.040 C 
ATOM     13  C   LIG    1       -2.020  -1.708   0.567  0.00  0.00    +0.520 C 
ATOM     14  O   LIG    1       -2.432  -2.780   0.957  0.00  0.00    -0.530 OA
ATOM     15  N   LIG    1       -0.871  -1.643  -0.107  0.00  0.00    -0.720 N 
ATOM     16  H   LIG    1       -0.371  -2.454  -0.286  0.00  0.00    +0.410 HD
ENDBRANCH   5   8
BRANCH   7  17
ATOM     17  C   LIG    1       -0.498   0.354   5.441  0.00  0.00    -0.100 A 
ATOM     18  C   LIG    1        0.869   0.410   5.635  0.00  0.00    +0.020 A 
ATOM     19  C   LIG    1        1.379   0.622   6.902  0.00  0.00    +0.000 A 
ATOM     20  C   LIG    1        0.522   0.768   7.977  0.00  0.00    +0.010 A 
ATOM     21  C   LIG    1       -0.845   0.706   7.784  0.00  0.00    +0.000 A 
ATOM     22  C   LIG    1       -1.356   0.499   6.516  0.00  0.00    +0.020 A 
ENDBRANCH   7  17
BRANCH   1  23
ATOM     23  C   LIG    1        0.077  -2.033   4.617  0.00  0.00    +0.480 C 
ATOM     24  O   LIG    1        1.283  -2.066   4.555  0.00  0.00    -0.500 OA
BRANCH  23  26
ATOM     25  C   LIG    1        0.264  -3.350   6.595  0.00  0.00    +0.260 C 
ATOM     26  O   LIG    1       -0.560  -2.657   5.620  0.00  0.00    -0.350 OA
ENDBRANCH  23  26
ENDBRANCH   1  23
TORSDOF 4
