REMARK  Name = ZINCpk00000k8R9l.0
REMARK                            x       y       z     vdW  Elec       q    Type
REMARK                         _______ _______ _______ _____ _____    ______ ____
ROOT
ATOM      1  N   LIG    1       -2.311   0.884   2.981  0.00  0.00    -0.920 N 
ATOM      2  C   LIG    1       -3.353   1.393   2.309  0.00  0.00    +0.530 C 
ATOM      3  C   LIG    1       -4.594   0.602   2.258  0.00  0.00    -0.080 A 
ATOM      4  C   LIG    1       -5.819   0.888   1.631  0.00  0.00    +0.120 A 
ATOM      5  C   LIG    1       -6.868   0.004   1.713  0.00  0.00    +0.100 A 
ATOM      6  C   LIG    1       -6.739  -1.194   2.419  0.00  0.00    -0.110 A 
ATOM      7  C   LIG    1       -5.524  -1.489   3.047  0.00  0.00    +0.220 A 
ATOM      8  C   LIG    1       -4.487  -0.605   2.961  0.00  0.00    -0.630 A 
ATOM      9  O   LIG    1       -3.275   2.471   1.755  0.00  0.00    -0.440 OA
ATOM     10  S   LIG    1       -2.830  -0.585   3.587  0.00  0.00    +2.660 S 
ATOM     11  O   LIG    1       -2.904  -0.462   5.001  0.00  0.00    -0.910 OA
ATOM     12  O   LIG    1       -2.106  -1.605   2.913  0.00  0.00    -0.910 OA
ENDROOT
BRANCH   6  13
ATOM     13  C   LIG    1       -7.874  -2.140   2.501  0.00  0.00    +0.560 C 
ATOM     14  N   LIG    1       -9.040  -1.848   1.892  0.00  0.00    -0.720 N 
ATOM     15  H   LIG    1       -9.136  -1.018   1.401  0.00  0.00    +0.400 HD
ATOM     16  O   LIG    1       -7.754  -3.181   3.117  0.00  0.00    -0.520 OA
BRANCH  14  17
ATOM     17  C   LIG    1      -10.164  -2.785   1.974  0.00  0.00    +0.330 C 
BRANCH  17  18
ATOM     18  C   LIG    1      -11.340  -2.227   1.216  0.00  0.00    +0.000 C 
ATOM     19  C   LIG    1      -11.776  -2.837   0.138  0.00  0.00    -0.130 C 
ATOM     20  C   LIG    1      -12.872  -2.215  -0.689  0.00  0.00    +0.100 C 
ATOM     21  C   LIG    1      -11.180  -4.159  -0.273  0.00  0.00    +0.100 C 
ATOM     22  F   LIG    1      -11.946  -1.098   1.645  0.00  0.00    -0.140 F 
ENDBRANCH  17  18
ENDBRANCH  14  17
ENDBRANCH   6  13
BRANCH   1  23
ATOM     23  C   LIG    1       -0.991   1.493   3.155  0.00  0.00    +0.370 C 
BRANCH  23  24
ATOM     24  C   LIG    1       -0.108   1.149   1.953  0.00  0.00    +0.170 C 
BRANCH  24  26
ATOM     25  C   LIG    1        0.102   1.491  -0.410  0.00  0.00    +0.200 C 
ATOM     26  O   LIG    1       -0.651   1.752   0.776  0.00  0.00    -0.380 OA
ENDBRANCH  24  26
ENDBRANCH  23  24
ENDBRANCH   1  23
TORSDOF 6
