REMARK  Name = ZINCpe000000Zokb.0
REMARK                            x       y       z     vdW  Elec       q    Type
REMARK                         _______ _______ _______ _____ _____    ______ ____
ROOT
ATOM      1  O   LIG    1        4.782   0.237   0.050  0.00  0.00    -0.570 OA
ATOM      2  C   LIG    1        4.769   1.453   0.065  0.00  0.00    +0.710 C 
ATOM      3  N   LIG    1        5.926   2.138   0.159  0.00  0.00    -0.620 N 
ATOM      4  C   LIG    1        5.921   3.602   0.279  0.00  0.00    +0.270 C 
ATOM      5  C   LIG    1        6.740   4.000   1.510  0.00  0.00    +0.020 C 
ATOM      6  C   LIG    1        8.137   3.382   1.410  0.00  0.00    +0.010 C 
ATOM      7  C   LIG    1        8.021   1.856   1.378  0.00  0.00    +0.220 C 
ATOM      8  C   LIG    1        7.216   1.434   0.151  0.00  0.00    +0.300 C 
ATOM      9  N   LIG    1        3.598   2.115  -0.012  0.00  0.00    -0.680 N 
ATOM     10  H   LIG    1        3.590   3.084  -0.040  0.00  0.00    +0.410 HD
ENDROOT
BRANCH   9  11
ATOM     11  C   LIG    1        2.391   1.403  -0.051  0.00  0.00    +0.190 A 
ATOM     12  C   LIG    1        2.373   0.091  -0.505  0.00  0.00    +0.040 A 
ATOM     13  C   LIG    1        1.183  -0.612  -0.544  0.00  0.00    +0.050 A 
ATOM     14  C   LIG    1        0.008  -0.013  -0.131  0.00  0.00    +0.020 A 
ATOM     15  C   LIG    1        0.017   1.298   0.324  0.00  0.00    +0.050 A 
ATOM     16  O   LIG    1       -0.989   2.105   0.774  0.00  0.00    -0.310 OA
ATOM     17  C   LIG    1       -0.332   3.175   1.482  0.00  0.00    +0.430 C 
ATOM     18  O   LIG    1        0.957   3.262   0.847  0.00  0.00    -0.310 OA
ATOM     19  C   LIG    1        1.210   2.009   0.365  0.00  0.00    -0.010 A 
ENDBRANCH   9  11
BRANCH   7  20
ATOM     20  N   LIG    1        9.360   1.265   1.315  0.00  0.00    -0.600 N 
ATOM     21  C   LIG    1        9.781   0.376   2.393  0.00  0.00    +0.220 C 
ATOM     22  C   LIG    1       10.972  -0.472   1.935  0.00  0.00    +0.230 C 
ATOM     23  N   LIG    1       11.993   0.423   1.365  0.00  0.00    -0.680 NA
ATOM     24  H   LIG    1       12.239   1.153   2.016  0.00  0.00    +0.350 HD
ATOM     25  C   LIG    1       11.517   0.989   0.095  0.00  0.00    +0.260 C 
ATOM     26  C   LIG    1       10.143   1.569   0.274  0.00  0.00    +0.480 C 
ATOM     27  O   LIG    1        9.727   2.345  -0.559  0.00  0.00    -0.540 OA
ENDBRANCH   7  20
TORSDOF 2
