REMARK  Name = ZINCrH000004lLqe.0
REMARK                            x       y       z     vdW  Elec       q    Type
REMARK                         _______ _______ _______ _____ _____    ______ ____
ROOT
ATOM      1  C   LIG    1        1.621   1.355   2.266  0.00  0.00    +0.540 C 
ATOM      2  N   LIG    1        1.758   0.102   1.789  0.00  0.00    -0.640 N 
ATOM      3  O   LIG    1        2.603   2.038   2.466  0.00  0.00    -0.440 OA
ENDROOT
BRANCH   2   4
ATOM      4  C   LIG    1        1.258  -0.224   0.523  0.00  0.00    +0.160 A 
ATOM      5  C   LIG    1        2.124  -0.635  -0.482  0.00  0.00    +0.040 A 
ATOM      6  C   LIG    1        1.634  -0.963  -1.733  0.00  0.00    +0.040 A 
ATOM      7  C   LIG    1        0.282  -0.874  -1.994  0.00  0.00    +0.070 A 
ATOM      8  C   LIG    1       -0.597  -0.456  -0.992  0.00  0.00    -0.010 A 
ATOM      9  C   LIG    1       -0.102  -0.131   0.271  0.00  0.00    +0.040 A 
BRANCH   8  10
ATOM     10  C   LIG    1       -2.000  -0.362  -1.261  0.00  0.00    +0.250 C 
ATOM     11  N   LIG    1       -3.114  -0.288  -1.474  0.00  0.00    -0.400 NA
ENDBRANCH   8  10
ENDBRANCH   2   4
BRANCH   1  12
ATOM     12  C   LIG    1        0.248   1.906   2.552  0.00  0.00    +0.160 C 
BRANCH  12  13
ATOM     13  C   LIG    1       -0.218   2.753   1.366  0.00  0.00    +0.000 C 
ATOM     14  C   LIG    1       -1.571   2.233   0.800  0.00  0.00    +0.010 C 
ATOM     15  C   LIG    1       -1.492   2.660  -0.682  0.00  0.00    +0.200 C 
ATOM     16  O   LIG    1       -0.110   2.857  -1.003  0.00  0.00    -0.370 OA
ATOM     17  C   LIG    1        0.707   2.553   0.139  0.00  0.00    +0.190 C 
ENDBRANCH  12  13
BRANCH  12  19
ATOM     18  C   LIG    1        0.047   2.001   4.938  0.00  0.00    +0.220 C 
ATOM     19  O   LIG    1        0.296   2.717   3.727  0.00  0.00    -0.350 OA
ENDBRANCH  12  19
ENDBRANCH   1  12
BRANCH   2  20
ATOM     20  C   LIG    1        2.432  -0.920   2.595  0.00  0.00    +0.360 C 
BRANCH  20  21
ATOM     21  C   LIG    1        1.419  -1.629   3.456  0.00  0.00    -0.110 A 
ATOM     22  C   LIG    1        1.136  -1.154   4.723  0.00  0.00    +0.030 A 
ATOM     23  C   LIG    1        0.203  -1.801   5.511  0.00  0.00    +0.030 A 
ATOM     24  C   LIG    1       -0.440  -2.930   5.036  0.00  0.00    -0.030 A 
ATOM     25  C   LIG    1       -0.152  -3.408   3.770  0.00  0.00    +0.030 A 
ATOM     26 CL   LIG    1       -1.607  -3.748   6.028  0.00  0.00    -0.060 Cl
ATOM     27  C   LIG    1        0.777  -2.757   2.981  0.00  0.00    +0.050 A 
ENDBRANCH  20  21
ENDBRANCH   2  20
TORSDOF 7
