REMARK  Name = ZINCpk000000pQS3.0
REMARK                            x       y       z     vdW  Elec       q    Type
REMARK                         _______ _______ _______ _____ _____    ______ ____
ROOT
ATOM      1  N   LIG    1       -6.194   1.025  -5.800  0.00  0.00    -0.530 NA
ATOM      2  C   LIG    1       -5.704   2.266  -6.415  0.00  0.00    +0.180 C 
ATOM      3  C   LIG    1       -4.173   2.245  -6.449  0.00  0.00    +0.290 C 
ATOM      4  N   LIG    1       -3.678   1.988  -5.088  0.00  0.00    -0.610 N 
ATOM      5  C   LIG    1       -4.222   0.834  -4.356  0.00  0.00    +0.280 C 
ATOM      6  C   LIG    1       -2.747   2.786  -4.529  0.00  0.00    +0.560 C 
ATOM      7  O   LIG    1       -2.386   3.795  -5.103  0.00  0.00    -0.530 OA
ATOM      8  C   LIG    1       -5.756   0.914  -4.402  0.00  0.00    +0.170 C 
ENDROOT
BRANCH   6   9
ATOM      9  C   LIG    1       -2.164   2.434  -3.216  0.00  0.00    -0.120 A 
ATOM     10  C   LIG    1       -1.816   3.439  -2.312  0.00  0.00    +0.070 A 
ATOM     11  C   LIG    1       -1.273   3.103  -1.089  0.00  0.00    +0.040 A 
ATOM     12  C   LIG    1       -1.074   1.775  -0.758  0.00  0.00    -0.090 A 
ATOM     13  C   LIG    1       -1.411   0.775  -1.652  0.00  0.00    +0.020 A 
ATOM     14  C   LIG    1       -1.960   1.096  -2.876  0.00  0.00    +0.040 A 
BRANCH  12  15
ATOM     15  C   LIG    1       -0.480   1.416   0.580  0.00  0.00    +0.380 C 
BRANCH  15  16
ATOM     16  N   LIG    1       -1.554   1.246   1.562  0.00  0.00    -0.370 N 
ATOM     17  C   LIG    1       -1.769   0.152   2.322  0.00  0.00    +0.220 A 
ATOM     18  C   LIG    1       -2.852   0.394   3.096  0.00  0.00    -0.120 A 
ATOM     19  C   LIG    1       -3.321   1.676   2.792  0.00  0.00    +0.220 A 
ATOM     20  N   LIG    1       -2.544   2.188   1.872  0.00  0.00    -0.290 NA
ENDBRANCH  15  16
ENDBRANCH  12  15
ENDBRANCH   6   9
BRANCH   1  21
ATOM     21  C   LIG    1       -7.656   0.928  -5.902  0.00  0.00    +0.190 C 
BRANCH  21  22
ATOM     22  C   LIG    1       -8.303   1.839  -4.856  0.00  0.00    +0.170 C 
BRANCH  22  24
ATOM     23  C   LIG    1      -10.448   2.432  -3.722  0.00  0.00    +0.010 C 
ATOM     24  C   LIG    1       -9.816   1.616  -4.851  0.00  0.00    -0.010 C 
ENDBRANCH  22  24
BRANCH  22  25
ATOM     25  O   LIG    1       -8.024   3.204  -5.175  0.00  0.00    -0.560 OA
ATOM     26  H   LIG    1       -8.356   3.482  -6.039  0.00  0.00    +0.370 HD
ENDBRANCH  22  25
ENDBRANCH  21  22
ENDBRANCH   1  21
TORSDOF 7
