REMARK  Name = ZINCrH000004orE7.0
REMARK                            x       y       z     vdW  Elec       q    Type
REMARK                         _______ _______ _______ _____ _____    ______ ____
ROOT
ATOM      1  C   LIG    1       -3.800   8.350  -1.212  0.00  0.00    +0.520 C 
ATOM      2  N   LIG    1       -4.472   9.395  -0.690  0.00  0.00    -0.670 N 
ATOM      3  H   LIG    1       -4.867   9.325   0.194  0.00  0.00    +0.410 HD
ATOM      4  O   LIG    1       -3.227   8.467  -2.274  0.00  0.00    -0.490 OA
ENDROOT
BRANCH   2   5
ATOM      5  C   LIG    1       -4.601  10.582  -1.423  0.00  0.00    +0.120 A 
ATOM      6  C   LIG    1       -4.624  11.805  -0.766  0.00  0.00    +0.020 A 
ATOM      7  C   LIG    1       -4.746  12.974  -1.489  0.00  0.00    +0.020 A 
ATOM      8  C   LIG    1       -4.855  12.927  -2.872  0.00  0.00    +0.150 A 
ATOM      9  C   LIG    1       -4.837  11.704  -3.529  0.00  0.00    -0.010 A 
ATOM     10  C   LIG    1       -4.710  10.534  -2.807  0.00  0.00    +0.050 A 
BRANCH   8  11
ATOM     11  N   LIG    1       -4.984  14.114  -3.606  0.00  0.00    -0.560 N 
ATOM     12  C   LIG    1       -5.226  14.171  -5.052  0.00  0.00    +0.260 C 
ATOM     13  C   LIG    1       -4.862  15.612  -5.474  0.00  0.00    +0.060 C 
ATOM     14  C   LIG    1       -5.077  16.391  -4.155  0.00  0.00    +0.070 C 
ATOM     15  C   LIG    1       -4.907  15.346  -3.074  0.00  0.00    +0.520 C 
ATOM     16  O   LIG    1       -4.726  15.585  -1.899  0.00  0.00    -0.510 OA
ENDBRANCH   8  11
ENDBRANCH   2   5
BRANCH   1  18
ATOM     17  C   LIG    1       -5.170   6.447  -0.406  0.00  0.00    +0.060 C 
ATOM     18  C   LIG    1       -3.760   7.036  -0.475  0.00  0.00    +0.170 C 
BRANCH  18  19
ATOM     19  O   LIG    1       -2.897   6.129  -1.164  0.00  0.00    -0.280 OA
BRANCH  19  20
ATOM     20  C   LIG    1       -2.352   5.121  -0.435  0.00  0.00    +0.130 A 
ATOM     21  C   LIG    1       -2.604   5.032   0.926  0.00  0.00    -0.080 A 
ATOM     22  C   LIG    1       -2.048   4.006   1.663  0.00  0.00    +0.050 A 
ATOM     23  C   LIG    1       -1.239   3.064   1.049  0.00  0.00    -0.130 A 
ATOM     24  C   LIG    1       -0.519   1.861   1.631  0.00  0.00    +0.070 C 
ATOM     25  C   LIG    1        0.540   1.480   0.575  0.00  0.00    +0.030 C 
ATOM     26  C   LIG    1       -0.083   2.012  -0.733  0.00  0.00    +0.080 C 
ATOM     27  C   LIG    1       -0.986   3.150  -0.307  0.00  0.00    -0.060 A 
ATOM     28  C   LIG    1       -1.542   4.178  -1.049  0.00  0.00    -0.010 A 
ENDBRANCH  19  20
ENDBRANCH  18  19
ENDBRANCH   1  18
TORSDOF 5
