REMARK  Name = ZINCpk000000oYiw.0
REMARK                            x       y       z     vdW  Elec       q    Type
REMARK                         _______ _______ _______ _____ _____    ______ ____
ROOT
ATOM      1  C   LIG    1        6.017  -1.407   2.938  0.00  0.00    +0.180 C 
ATOM      2  C   LIG    1        5.040  -2.125   3.871  0.00  0.00    +0.020 C 
ENDROOT
BRANCH   1   7
ATOM      3  C   LIG    1        9.819  -5.091   4.129  0.00  0.00    +0.650 C 
ATOM      4  N   LIG    1        9.242  -4.024   3.541  0.00  0.00    -0.600 N 
ATOM      5  C   LIG    1        9.350  -2.684   4.136  0.00  0.00    +0.310 C 
ATOM      6  C   LIG    1        7.944  -2.083   4.240  0.00  0.00    +0.170 C 
ATOM      7  N   LIG    1        7.297  -2.127   2.921  0.00  0.00    -0.510 NA
ATOM      8  C   LIG    1        7.117  -3.511   2.462  0.00  0.00    +0.190 C 
ATOM      9  C   LIG    1        8.489  -4.170   2.286  0.00  0.00    +0.290 C 
ATOM     10  O   LIG    1       10.438  -4.952   5.166  0.00  0.00    -0.580 OA
BRANCH   3  11
ATOM     11  O   LIG    1        9.710  -6.310   3.569  0.00  0.00    -0.370 OA
BRANCH  11  13
ATOM     12  C   LIG    1       10.124  -8.708   3.477  0.00  0.00    +0.070 C 
ATOM     13  C   LIG    1       10.356  -7.413   4.258  0.00  0.00    +0.220 C 
ENDBRANCH  11  13
ENDBRANCH   3  11
ENDBRANCH   1   7
BRANCH   1  14
ATOM     14  C   LIG    1        5.444  -1.368   1.544  0.00  0.00    +0.520 C 
ATOM     15  N   LIG    1        4.266  -0.755   1.317  0.00  0.00    -0.720 N 
ATOM     16  H   LIG    1        3.787  -0.338   2.050  0.00  0.00    +0.400 HD
ATOM     17  O   LIG    1        6.044  -1.889   0.628  0.00  0.00    -0.520 OA
BRANCH  15  18
ATOM     18  C   LIG    1        3.710  -0.717  -0.038  0.00  0.00    +0.330 C 
BRANCH  18  19
ATOM     19  C   LIG    1        2.396   0.022  -0.021  0.00  0.00    -0.150 A 
ATOM     20  C   LIG    1        1.208  -0.681  -0.013  0.00  0.00    +0.070 A 
ATOM     21  C   LIG    1        0.002  -0.004   0.002  0.00  0.00    -0.030 A 
ATOM     22  C   LIG    1       -0.017   1.378   0.010  0.00  0.00    +0.060 A 
ATOM     23  C   LIG    1        1.170   2.086   0.002  0.00  0.00    -0.080 A 
ATOM     24  C   LIG    1        2.380   1.409  -0.014  0.00  0.00    +0.140 A 
BRANCH  24  25
ATOM     25  O   LIG    1        3.548   2.104  -0.021  0.00  0.00    -0.310 OA
ATOM     26  C   LIG    1        3.456   3.530  -0.013  0.00  0.00    +0.250 C 
ENDBRANCH  24  25
ENDBRANCH  18  19
ENDBRANCH  15  18
ENDBRANCH   1  14
TORSDOF 7
