REMARK  Name = ZINCb80000002GLg.0
REMARK                            x       y       z     vdW  Elec       q    Type
REMARK                         _______ _______ _______ _____ _____    ______ ____
ROOT
ATOM      1  O   LIG    1       -1.082   2.074   0.018  0.00  0.00    -0.440 OA
ATOM      2  C   LIG    1       -0.018   1.503   0.010  0.00  0.00    +0.350 C 
ATOM      3  C   LIG    1        1.249   2.317   0.003  0.00  0.00    +0.080 C 
ATOM      4  C   LIG    1        2.114   1.872  -1.201  0.00  0.00    -0.360 C 
ATOM      5  C   LIG    1        1.138   1.747  -2.395  0.00  0.00    +0.060 C 
ATOM      6  C   LIG    1        0.417   0.404  -2.395  0.00  0.00    +0.060 C 
ATOM      7  C   LIG    1        0.851  -0.479  -1.201  0.00  0.00    -0.360 C 
ATOM      8  S   LIG    1        2.560   0.118  -0.866  0.00  0.00    +2.370 S 
ATOM      9  O   LIG    1        3.447  -0.359  -1.868  0.00  0.00    -0.920 OA
ATOM     10  O   LIG    1        2.872  -0.050   0.510  0.00  0.00    -0.920 OA
ATOM     11  C   LIG    1        0.002  -0.004   0.002  0.00  0.00    +0.080 C 
ENDROOT
TORSDOF 0
