REMARK  Name = ZINCpk00000e9hwF.0
REMARK                            x       y       z     vdW  Elec       q    Type
REMARK                         _______ _______ _______ _____ _____    ______ ____
ROOT
ATOM      1  C   LIG    1       -5.786   0.384  -5.353  0.00  0.00    -0.120 A 
ATOM      2  C   LIG    1       -6.589  -0.548  -4.693  0.00  0.00    +0.030 A 
ATOM      3  C   LIG    1       -6.367  -0.829  -3.360  0.00  0.00    +0.040 A 
ATOM      4  C   LIG    1       -5.351  -0.190  -2.674  0.00  0.00    +0.010 A 
ATOM      5  C   LIG    1       -4.546   0.740  -3.322  0.00  0.00    +0.140 A 
ATOM      6  C   LIG    1       -4.764   1.033  -4.659  0.00  0.00    +0.090 A 
ENDROOT
BRANCH   1   9
ATOM      7  N   LIG    1       -7.014   0.063  -7.447  0.00  0.00    -0.720 N 
ATOM      8  H   LIG    1       -7.572  -0.585  -6.990  0.00  0.00    +0.410 HD
ATOM      9  C   LIG    1       -6.022   0.687  -6.781  0.00  0.00    +0.560 C 
ATOM     10  O   LIG    1       -5.322   1.499  -7.353  0.00  0.00    -0.530 OA
BRANCH   7  11
ATOM     11  C   LIG    1       -7.248   0.363  -8.862  0.00  0.00    +0.300 C 
BRANCH  11  13
ATOM     12  N   LIG    1       -8.802  -0.351 -10.649  0.00  0.00    -0.610 N 
ATOM     13  C   LIG    1       -8.404  -0.462  -9.366  0.00  0.00    +0.510 C 
ATOM     14  O   LIG    1       -8.976  -1.225  -8.617  0.00  0.00    -0.540 OA
BRANCH  12  16
ATOM     15  C   LIG    1      -11.230  -0.380 -10.935  0.00  0.00    +0.020 C 
ATOM     16  C   LIG    1       -9.926  -1.152 -11.139  0.00  0.00    +0.280 C 
ENDBRANCH  12  16
BRANCH  12  17
ATOM     17  C   LIG    1       -8.111   0.572 -11.553  0.00  0.00    +0.270 C 
ATOM     18  C   LIG    1       -6.956  -0.159 -12.242  0.00  0.00    +0.020 C 
ENDBRANCH  12  17
ENDBRANCH  11  13
ENDBRANCH   7  11
ENDBRANCH   1   9
BRANCH   5  19
ATOM     19  N   LIG    1       -3.519   1.385  -2.623  0.00  0.00    -0.670 N 
ATOM     20  H   LIG    1       -3.627   1.588  -1.681  0.00  0.00    +0.410 HD
ATOM     21  C   LIG    1       -2.381   1.723  -3.259  0.00  0.00    +0.510 C 
ATOM     22  O   LIG    1       -2.205   1.385  -4.411  0.00  0.00    -0.490 OA
BRANCH  21  23
ATOM     23  C   LIG    1       -1.324   2.522  -2.540  0.00  0.00    +0.160 C 
ATOM     24  C   LIG    1       -1.868   3.923  -2.199  0.00  0.00    +0.020 C 
ATOM     25  C   LIG    1       -0.887   4.892  -2.902  0.00  0.00    +0.010 C 
ATOM     26  C   LIG    1        0.369   4.004  -3.091  0.00  0.00    +0.210 C 
ATOM     27  O   LIG    1       -0.182   2.703  -3.393  0.00  0.00    -0.350 OA
ENDBRANCH  21  23
ENDBRANCH   5  19
TORSDOF 7
