REMARK  Name = ZINCrg00000cfun9.1
REMARK                            x       y       z     vdW  Elec       q    Type
REMARK                         _______ _______ _______ _____ _____    ______ ____
ROOT
ATOM      1  C   LIG    1        6.759  -0.115   1.493  0.00  0.00    -0.060 C 
ATOM      2  C   LIG    1        7.916   0.412   1.177  0.00  0.00    -0.090 C 
ATOM      3  C   LIG    1        8.123   1.910   1.220  0.00  0.00    +0.050 C 
ATOM      4  C   LIG    1        9.362   2.198   2.086  0.00  0.00    +0.290 C 
ATOM      5  N   LIG    1       10.465   1.343   1.628  0.00  0.00    -0.600 N 
ATOM      6  C   LIG    1       10.289  -0.115   1.624  0.00  0.00    +0.290 C 
ATOM      7  C   LIG    1       11.626   1.890   1.218  0.00  0.00    +0.580 C 
ATOM      8  O   LIG    1       12.535   1.176   0.840  0.00  0.00    -0.530 OA
ATOM      9  C   LIG    1        9.075  -0.463   0.753  0.00  0.00    +0.070 C 
ENDROOT
BRANCH   7  10
ATOM     10  C   LIG    1       11.794   3.354   1.225  0.00  0.00    -0.190 A 
ATOM     11  C   LIG    1       12.296   4.001   2.364  0.00  0.00    +0.170 A 
ATOM     12  C   LIG    1       12.454   5.378   2.358  0.00  0.00    +0.000 A 
ATOM     13  C   LIG    1       12.110   6.112   1.240  0.00  0.00    +0.090 A 
ATOM     14  C   LIG    1       11.609   5.481   0.114  0.00  0.00    -0.010 A 
ATOM     15  C   LIG    1       11.449   4.109   0.098  0.00  0.00    +0.150 A 
ATOM     16  F   LIG    1       10.960   3.497  -1.002  0.00  0.00    -0.130 F 
BRANCH  11  17
ATOM     17  O   LIG    1       12.630   3.281   3.464  0.00  0.00    -0.490 OA
ATOM     18  H   LIG    1       13.549   2.980   3.473  0.00  0.00    +0.400 HD
ENDBRANCH  11  17
ENDBRANCH   7  10
BRANCH   1  19
ATOM     19  C   LIG    1        5.572   0.776   1.757  0.00  0.00    +0.300 C 
BRANCH  19  21
ATOM     20  C   LIG    1        3.273   1.010   0.984  0.00  0.00    +0.500 C 
ATOM     21  N   LIG    1        4.448   0.353   0.917  0.00  0.00    -0.720 N 
ATOM     22  H   LIG    1        4.550  -0.399   0.313  0.00  0.00    +0.400 HD
ATOM     23  O   LIG    1        3.146   1.951   1.739  0.00  0.00    -0.520 OA
BRANCH  20  28
ATOM     24  O   LIG    1       -1.164   1.768   0.187  0.00  0.00    -0.530 OA
ATOM     25  C   LIG    1       -0.139   1.120   0.206  0.00  0.00    +0.520 C 
ATOM     26  C   LIG    1       -0.067  -0.381   0.384  0.00  0.00    +0.060 C 
ATOM     27  C   LIG    1        1.412  -0.648   0.747  0.00  0.00    +0.070 C 
ATOM     28  C   LIG    1        2.117   0.575   0.121  0.00  0.00    +0.220 C 
ATOM     29  N   LIG    1        1.097   1.629   0.066  0.00  0.00    -0.710 N 
ATOM     30  H   LIG    1        1.290   2.572  -0.055  0.00  0.00    +0.420 HD
ENDBRANCH  20  28
ENDBRANCH  19  21
ENDBRANCH   1  19
TORSDOF 5
