REMARK  Name = ZINCpk00000KfLiI.0
REMARK                            x       y       z     vdW  Elec       q    Type
REMARK                         _______ _______ _______ _____ _____    ______ ____
ROOT
ATOM      1  N   LIG    1       -1.352  -0.572  -0.029  0.00  0.00    -0.530 NA
ATOM      2  C   LIG    1       -2.142   0.007  -1.125  0.00  0.00    +0.200 C 
ATOM      3  C   LIG    1       -3.515  -0.666  -1.172  0.00  0.00    +0.200 C 
ATOM      4  N   LIG    1       -4.194  -0.479   0.118  0.00  0.00    -0.520 NA
ATOM      5  C   LIG    1       -3.405  -1.058   1.214  0.00  0.00    +0.200 C 
ATOM      6  C   LIG    1       -2.031  -0.385   1.261  0.00  0.00    +0.180 C 
ENDROOT
BRANCH   1   7
ATOM      7  C   LIG    1        0.002  -0.004   0.002  0.00  0.00    +0.270 C 
ATOM      8  C   LIG    1        0.721  -0.327  -1.310  0.00  0.00    +0.080 C 
BRANCH   7  13
ATOM      9  C   LIG    1        2.885  -0.631   4.048  0.00  0.00    +0.210 C 
ATOM     10  C   LIG    1        1.986  -0.877   2.864  0.00  0.00    +0.170 A 
ATOM     11  N   LIG    1        1.543  -2.031   2.461  0.00  0.00    -0.390 NA
ATOM     12  O   LIG    1        0.842  -1.892   1.480  0.00  0.00    +0.090 OA
ATOM     13  C   LIG    1        0.770  -0.598   1.155  0.00  0.00    +0.190 A 
ATOM     14  N   LIG    1        1.499   0.056   2.027  0.00  0.00    -0.480 NA
ENDBRANCH   7  13
ENDBRANCH   1   7
BRANCH   4  15
ATOM     15  C   LIG    1       -5.548  -1.047   0.087  0.00  0.00    +0.190 C 
BRANCH  15  16
ATOM     16  C   LIG    1       -6.326  -0.431  -1.047  0.00  0.00    -0.100 A 
ATOM     17  C   LIG    1       -6.202   0.919  -1.316  0.00  0.00    +0.080 A 
ATOM     18  C   LIG    1       -6.910   1.485  -2.359  0.00  0.00    -0.010 A 
ATOM     19  C   LIG    1       -7.753   0.701  -3.128  0.00  0.00    +0.110 A 
ATOM     20  C   LIG    1       -7.882  -0.650  -2.854  0.00  0.00    -0.010 A 
ATOM     21  F   LIG    1       -8.451   1.254  -4.144  0.00  0.00    -0.140 F 
ATOM     22  C   LIG    1       -7.168  -1.215  -1.814  0.00  0.00    +0.050 A 
ENDBRANCH  15  16
BRANCH  15  23
ATOM     23  C   LIG    1       -6.245  -0.755   1.391  0.00  0.00    +0.530 C 
ATOM     24  O   LIG    1       -5.670  -0.135   2.260  0.00  0.00    -0.520 OA
ATOM     25  N   LIG    1       -7.508  -1.183   1.591  0.00  0.00    -0.850 N 
ATOM     26  H   LIG    1       -7.956  -0.996   2.431  0.00  0.00    +0.410 HD
ATOM     27  H   LIG    1       -7.967  -1.679   0.896  0.00  0.00    +0.400 HD
ENDBRANCH  15  23
ENDBRANCH   4  15
TORSDOF 5
