REMARK  Name = ZINCpe000027pHjB.0
REMARK                            x       y       z     vdW  Elec       q    Type
REMARK                         _______ _______ _______ _____ _____    ______ ____
ROOT
ATOM      1  N   LIG    1        2.137  -0.726  -0.818  0.00  0.00    -0.600 N 
ATOM      2  C   LIG    1        2.241  -0.742   0.522  0.00  0.00    +0.530 C 
ATOM      3  C   LIG    1        0.878  -0.552   1.152  0.00  0.00    +0.080 C 
ATOM      4  C   LIG    1        0.002  -0.004   0.002  0.00  0.00    +0.010 C 
ATOM      5  O   LIG    1        3.276  -0.887   1.137  0.00  0.00    -0.520 OA
ATOM      6  C   LIG    1        0.744  -0.540  -1.242  0.00  0.00    +0.330 C 
ENDROOT
BRANCH   6   7
ATOM      7  C   LIG    1        0.151  -1.856  -1.677  0.00  0.00    +0.180 A 
ATOM      8  N   LIG    1        0.330  -3.004  -1.082  0.00  0.00    -0.460 NA
ATOM      9  C   LIG    1       -0.347  -3.954  -1.743  0.00  0.00    +0.140 A 
ATOM     10  C   LIG    1       -0.968  -3.373  -2.787  0.00  0.00    +0.130 A 
ATOM     11  N   LIG    1       -0.657  -2.041  -2.742  0.00  0.00    -0.450 N 
ATOM     12  C   LIG    1       -1.114  -1.010  -3.677  0.00  0.00    +0.330 C 
ENDBRANCH   6   7
BRANCH   1  14
ATOM     13  C   LIG    1        3.473  -2.356  -2.058  0.00  0.00    +0.020 C 
ATOM     14  C   LIG    1        3.268  -0.874  -1.736  0.00  0.00    +0.290 C 
ENDBRANCH   1  14
BRANCH   4  15
ATOM     15  C   LIG    1       -0.019   1.526   0.010  0.00  0.00    +0.290 C 
BRANCH  15  16
ATOM     16  N   LIG    1       -0.704   1.998   1.216  0.00  0.00    -0.710 N 
ATOM     17  H   LIG    1       -1.058   1.359   1.854  0.00  0.00    +0.410 HD
ATOM     18  C   LIG    1       -0.843   3.320   1.438  0.00  0.00    +0.590 C 
ATOM     19  O   LIG    1       -0.400   4.120   0.638  0.00  0.00    -0.500 OA
BRANCH  18  20
ATOM     20  C   LIG    1       -1.539   3.799   2.660  0.00  0.00    +0.290 A 
ATOM     21  N   LIG    1       -2.016   2.913   3.521  0.00  0.00    -0.500 NA
ATOM     22  C   LIG    1       -2.639   3.304   4.618  0.00  0.00    +0.330 A 
ATOM     23  C   LIG    1       -2.791   4.662   4.861  0.00  0.00    -0.050 A 
ATOM     24  C   LIG    1       -2.279   5.563   3.937  0.00  0.00    +0.180 A 
ATOM     25  C   LIG    1       -2.420   7.047   4.159  0.00  0.00    +0.160 C 
ATOM     26  N   LIG    1       -1.662   5.102   2.864  0.00  0.00    -0.470 NA
ENDBRANCH  18  20
ENDBRANCH  15  16
ENDBRANCH   4  15
TORSDOF 5
