REMARK  Name = ZINCqH0000005ryT.0
REMARK                            x       y       z     vdW  Elec       q    Type
REMARK                         _______ _______ _______ _____ _____    ______ ____
ROOT
ATOM      1  C   LIG    1        1.953  -8.129  -0.863  0.00  0.00    -0.020 C 
ATOM      2  C   LIG    1        2.997  -8.951  -1.622  0.00  0.00    +0.050 C 
ATOM      3  C   LIG    1        4.362  -8.267  -1.518  0.00  0.00    +0.010 C 
ATOM      4  C   LIG    1        4.282  -6.877  -2.158  0.00  0.00    +0.300 C 
ATOM      5  N   LIG    1        3.183  -6.130  -1.531  0.00  0.00    -0.630 N 
ATOM      6  C   LIG    1        3.398  -4.911  -0.998  0.00  0.00    +0.710 C 
ATOM      7  N   LIG    1        2.361  -4.189  -0.529  0.00  0.00    -0.740 N 
ATOM      8  H   LIG    1        1.472  -4.575  -0.507  0.00  0.00    +0.390 HD
ATOM      9  O   LIG    1        4.527  -4.463  -0.941  0.00  0.00    -0.580 OA
ATOM     10  C   LIG    1        1.847  -6.741  -1.491  0.00  0.00    +0.280 C 
ENDROOT
BRANCH   1  14
ATOM     11  C   LIG    1       -1.759  -8.948  -0.411  0.00  0.00    +0.280 C 
ATOM     12  N   LIG    1       -0.459  -8.275  -0.338  0.00  0.00    -0.740 N 
ATOM     13  H   LIG    1       -0.373  -7.438   0.144  0.00  0.00    +0.400 HD
ATOM     14  C   LIG    1        0.617  -8.821  -0.939  0.00  0.00    +0.520 C 
ATOM     15  O   LIG    1        0.509  -9.868  -1.541  0.00  0.00    -0.530 OA
ENDBRANCH   1  14
BRANCH   7  16
ATOM     16  C   LIG    1        2.578  -2.821  -0.052  0.00  0.00    +0.300 C 
ATOM     17  C   LIG    1        3.069  -2.857   1.396  0.00  0.00    +0.040 C 
BRANCH  16  18
ATOM     18  C   LIG    1        1.284  -2.053  -0.124  0.00  0.00    -0.070 A 
ATOM     19  C   LIG    1        0.094  -2.707  -0.026  0.00  0.00    +0.020 A 
ATOM     20  C   LIG    1       -1.113  -2.014  -0.091  0.00  0.00    +0.040 A 
ATOM     21  C   LIG    1       -1.138  -0.662  -0.254  0.00  0.00    -0.020 A 
ATOM     22  C   LIG    1        0.071   0.048  -0.359  0.00  0.00    -0.040 A 
ATOM     23  C   LIG    1        0.086   1.442  -0.529  0.00  0.00    +0.020 A 
ATOM     24  C   LIG    1        1.276   2.096  -0.628  0.00  0.00    +0.020 A 
ATOM     25  C   LIG    1        2.483   1.403  -0.562  0.00  0.00    +0.030 A 
ATOM     26  C   LIG    1        2.507   0.051  -0.399  0.00  0.00    +0.030 A 
ATOM     27 CL   LIG    1       -2.655   0.180  -0.332  0.00  0.00    -0.060 Cl
ATOM     28  C   LIG    1        1.299  -0.657  -0.294  0.00  0.00    -0.030 A 
ENDBRANCH  16  18
ENDBRANCH   7  16
TORSDOF 3
