REMARK  Name = ZINCrH00000No58n.0
REMARK                            x       y       z     vdW  Elec       q    Type
REMARK                         _______ _______ _______ _____ _____    ______ ____
ROOT
ATOM      1  C   LIG    1       -2.546   3.555   0.067  0.00  0.00    +0.130 A 
ATOM      2  C   LIG    1       -3.323   2.414   0.064  0.00  0.00    +0.130 A 
ATOM      3  N   LIG    1       -2.499   1.349   0.076  0.00  0.00    -0.450 NA
ATOM      4  C   LIG    1       -1.244   1.769   0.075  0.00  0.00    +0.230 A 
ATOM      5  C   LIG    1       -0.018   1.072   0.084  0.00  0.00    +0.080 A 
ATOM      6  C   LIG    1        1.148   1.772   0.074  0.00  0.00    +0.030 A 
ATOM      7  C   LIG    1        1.118   3.178   0.061  0.00  0.00    +0.020 A 
ATOM      8  C   LIG    1       -0.059   3.834   0.058  0.00  0.00    +0.190 A 
ATOM      9  N   LIG    1       -1.242   3.145   0.068  0.00  0.00    -0.380 N 
ENDROOT
BRANCH   2  10
ATOM     10  C   LIG    1       -4.801   2.369   0.061  0.00  0.00    +0.070 A 
ATOM     11  C   LIG    1       -5.583   1.355  -0.398  0.00  0.00    +0.200 A 
ATOM     12  N   LIG    1       -6.861   1.704  -0.217  0.00  0.00    -0.480 NA
ATOM     13  C   LIG    1       -6.920   2.893   0.327  0.00  0.00    +0.190 A 
ATOM     14  C   LIG    1       -7.917   3.927   0.815  0.00  0.00    +0.160 C 
ATOM     15  C   LIG    1       -7.080   4.872   1.707  0.00  0.00    +0.060 C 
ATOM     16  C   LIG    1       -5.663   4.687   1.124  0.00  0.00    +0.300 C 
ATOM     17  N   LIG    1       -5.657   3.349   0.518  0.00  0.00    -0.470 N 
ENDBRANCH   2  10
BRANCH   1  18
ATOM     18  N   LIG    1       -3.004   4.873   0.056  0.00  0.00    -0.580 N 
ATOM     19  H   LIG    1       -3.551   5.059  -0.771  0.00  0.00    +0.360 HD
BRANCH  18  20
ATOM     20  C   LIG    1       -1.886   5.820   0.171  0.00  0.00    +0.230 C 
BRANCH  20  24
ATOM     21  C   LIG    1       -3.415   9.792   0.547  0.00  0.00    +0.140 A 
ATOM     22  C   LIG    1       -3.187   9.025   1.681  0.00  0.00    -0.020 A 
ATOM     23  C   LIG    1       -2.693   7.741   1.556  0.00  0.00    +0.080 A 
ATOM     24  C   LIG    1       -2.426   7.221   0.304  0.00  0.00    -0.130 A 
ATOM     25  C   LIG    1       -2.647   7.985  -0.827  0.00  0.00    +0.050 A 
ATOM     26  C   LIG    1       -3.147   9.267  -0.708  0.00  0.00    -0.080 A 
BRANCH  21  28
ATOM     27  C   LIG    1       -4.112  11.787  -0.542  0.00  0.00    +0.250 C 
ATOM     28  O   LIG    1       -3.901  11.056   0.667  0.00  0.00    -0.320 OA
ENDBRANCH  21  28
ENDBRANCH  20  24
ENDBRANCH  18  20
ENDBRANCH   1  18
TORSDOF 5
