REMARK  Name = ZINCvU0000000HSS.0
REMARK                            x       y       z     vdW  Elec       q    Type
REMARK                         _______ _______ _______ _____ _____    ______ ____
ROOT
ATOM      1  C   LIG    1        5.044   4.412   1.968  0.00  0.00    -0.120 A 
ATOM      2  C   LIG    1        5.918   3.984   0.967  0.00  0.00    +0.040 A 
ATOM      3  C   LIG    1        7.243   4.368   1.002  0.00  0.00    +0.030 A 
ATOM      4  C   LIG    1        7.708   5.164   2.033  0.00  0.00    -0.060 A 
ATOM      5  C   LIG    1        6.848   5.587   3.032  0.00  0.00    +0.040 A 
ATOM      6  C   LIG    1        5.520   5.216   3.005  0.00  0.00    +0.080 A 
ENDROOT
BRANCH   1   9
ATOM      7  N   LIG    1        3.165   3.234   0.930  0.00  0.00    -0.590 N 
ATOM      8  H   LIG    1        3.770   2.939   0.231  0.00  0.00    +0.390 HD
ATOM      9  C   LIG    1        3.622   4.010   1.933  0.00  0.00    +0.580 C 
ATOM     10  O   LIG    1        2.864   4.380   2.809  0.00  0.00    -0.490 OA
BRANCH   7  17
ATOM     11  O   LIG    1        3.115  -0.695  -1.246  0.00  0.00    -0.450 OA
ATOM     12  C   LIG    1        2.158   0.039  -1.188  0.00  0.00    +0.370 C 
ATOM     13  C   LIG    1        0.751  -0.515  -1.211  0.00  0.00    +0.040 C 
ATOM     14  C   LIG    1       -0.007  -0.002   0.016  0.00  0.00    +0.050 C 
ATOM     15  C   LIG    1       -0.020   1.529   0.010  0.00  0.00    +0.130 C 
ATOM     16  C   LIG    1        1.406   2.033   0.004  0.00  0.00    +0.100 C 
ATOM     17  N   LIG    1        1.817   2.853   0.897  0.00  0.00    -0.220 NA
ATOM     18  C   LIG    1        2.333   1.540  -1.088  0.00  0.00    +0.040 C 
ENDBRANCH   7  17
ENDBRANCH   1   9
BRANCH   4  19
ATOM     19  C   LIG    1        9.158   5.574   2.069  0.00  0.00    +0.260 C 
BRANCH  19  20
ATOM     20  O   LIG    1        9.910   4.602   2.799  0.00  0.00    -0.300 OA
BRANCH  20  21
ATOM     21  C   LIG    1       11.244   4.823   2.925  0.00  0.00    +0.140 A 
ATOM     22  C   LIG    1       11.820   5.947   2.355  0.00  0.00    -0.080 A 
ATOM     23  C   LIG    1       13.177   6.173   2.489  0.00  0.00    +0.050 A 
ATOM     24  C   LIG    1       13.969   5.275   3.182  0.00  0.00    -0.020 A 
ATOM     25  C   LIG    1       13.409   4.149   3.751  0.00  0.00    +0.060 A 
ATOM     26  C   LIG    1       12.042   3.914   3.626  0.00  0.00    -0.080 A 
BRANCH  26  27
ATOM     27  C   LIG    1       11.436   2.705   4.236  0.00  0.00    -0.040 A 
ATOM     28  C   LIG    1       10.306   2.822   5.044  0.00  0.00    +0.030 A 
ATOM     29  C   LIG    1        9.743   1.693   5.605  0.00  0.00    +0.000 A 
ATOM     30  C   LIG    1       10.304   0.450   5.375  0.00  0.00    +0.000 A 
ATOM     31  C   LIG    1       11.428   0.329   4.577  0.00  0.00    +0.000 A 
ATOM     32  C   LIG    1       11.996   1.450   4.007  0.00  0.00    +0.010 A 
ENDBRANCH  26  27
ENDBRANCH  20  21
ENDBRANCH  19  20
ENDBRANCH   4  19
TORSDOF 6
