REMARK  Name = ZINCtV00000L6kMy.0
REMARK                            x       y       z     vdW  Elec       q    Type
REMARK                         _______ _______ _______ _____ _____    ______ ____
ROOT
ATOM      1  C   LIG    1        1.136   1.773  -0.296  0.00  0.00    -0.120 A 
ATOM      2  C   LIG    1        0.061   1.107   0.295  0.00  0.00    +0.080 A 
ATOM      3  C   LIG    1       -1.096   1.797   0.595  0.00  0.00    +0.010 A 
ATOM      4  C   LIG    1       -1.195   3.151   0.324  0.00  0.00    +0.060 A 
ATOM      5  C   LIG    1       -0.142   3.826  -0.261  0.00  0.00    +0.030 A 
ATOM      6  C   LIG    1        1.031   3.148  -0.576  0.00  0.00    +0.010 A 
ENDROOT
BRANCH   6   7
ATOM      7  C   LIG    1        2.163   3.869  -1.204  0.00  0.00    -0.010 A 
ATOM      8  C   LIG    1        3.398   3.930  -0.559  0.00  0.00    +0.070 A 
ATOM      9  C   LIG    1        4.450   4.599  -1.151  0.00  0.00    +0.070 A 
ATOM     10  C   LIG    1        4.279   5.217  -2.377  0.00  0.00    -0.180 A 
ATOM     11  C   LIG    1        3.054   5.164  -3.019  0.00  0.00    +0.070 A 
ATOM     12  C   LIG    1        1.996   4.494  -2.439  0.00  0.00    +0.030 A 
BRANCH  10  13
ATOM     13  C   LIG    1        5.430   5.950  -3.015  0.00  0.00    +0.510 C 
ATOM     14  F   LIG    1        5.306   5.892  -4.407  0.00  0.00    -0.180 F 
ATOM     15  F   LIG    1        6.635   5.354  -2.629  0.00  0.00    -0.180 F 
ATOM     16  F   LIG    1        5.418   7.287  -2.602  0.00  0.00    -0.180 F 
ENDBRANCH  10  13
ENDBRANCH   6   7
BRANCH   1  18
ATOM     17  O   LIG    1        3.261   1.594  -1.241  0.00  0.00    -0.490 OA
ATOM     18  C   LIG    1        2.373   1.040  -0.625  0.00  0.00    +0.510 C 
BRANCH  18  19
ATOM     19  O   LIG    1        2.517  -0.244  -0.243  0.00  0.00    -0.350 OA
BRANCH  19  20
ATOM     20  C   LIG    1        3.760  -0.903  -0.601  0.00  0.00    +0.260 C 
BRANCH  20  21
ATOM     21  C   LIG    1        3.741  -2.343  -0.086  0.00  0.00    +0.230 C 
BRANCH  21  22
ATOM     22  O   LIG    1        2.717  -3.076  -0.761  0.00  0.00    -0.300 OA
BRANCH  22  23
ATOM     23  C   LIG    1        2.565  -4.383  -0.419  0.00  0.00    +0.150 A 
ATOM     24  C   LIG    1        3.389  -4.949   0.543  0.00  0.00    -0.070 A 
ATOM     25  C   LIG    1        3.230  -6.276   0.893  0.00  0.00    +0.090 A 
ATOM     26  C   LIG    1        2.257  -7.043   0.279  0.00  0.00    -0.130 A 
ATOM     27  C   LIG    1        1.438  -6.482  -0.685  0.00  0.00    +0.090 A 
ATOM     28 BR   LIG    1        2.046  -8.860   0.755  0.00  0.00    -0.050 Br
ATOM     29  C   LIG    1        1.590  -5.154  -1.034  0.00  0.00    +0.000 A 
ENDBRANCH  22  23
ENDBRANCH  21  22
ENDBRANCH  20  21
ENDBRANCH  19  20
ENDBRANCH  18  19
ENDBRANCH   1  18
TORSDOF 8
