REMARK  Name = ZINCkj000005lySI.0
REMARK                            x       y       z     vdW  Elec       q    Type
REMARK                         _______ _______ _______ _____ _____    ______ ____
ROOT
ATOM      1  O   LIG    1       -0.534   5.091  -3.348  0.00  0.00    -0.530 OA
ATOM      2  C   LIG    1        0.036   5.910  -2.658  0.00  0.00    +0.510 C 
ATOM      3  N   LIG    1        0.037   7.209  -3.015  0.00  0.00    -0.590 N 
ATOM      4  C   LIG    1       -0.642   7.655  -4.241  0.00  0.00    +0.310 C 
ATOM      5  C   LIG    1       -1.807   8.574  -3.841  0.00  0.00    +0.120 C 
ATOM      6  C   LIG    1       -1.324   9.559  -2.798  0.00  0.00    -0.180 A 
ATOM      7  C   LIG    1       -0.210   9.416  -2.055  0.00  0.00    -0.140 A 
ATOM      8  C   LIG    1        0.006  10.459  -1.160  0.00  0.00    +0.010 A 
ATOM      9  C   LIG    1       -0.904  11.428  -1.175  0.00  0.00    -0.030 A 
ATOM     10  S   LIG    1       -2.137  11.059  -2.372  0.00  0.00    +0.140 S 
ATOM     11  C   LIG    1        0.722   8.217  -2.193  0.00  0.00    +0.370 C 
ENDROOT
BRANCH   2  12
ATOM     12  C   LIG    1        0.744   5.474  -1.401  0.00  0.00    +0.290 C 
BRANCH  12  13
ATOM     13  N   LIG    1        0.730   4.007  -1.315  0.00  0.00    -0.370 N 
ATOM     14  C   LIG    1        1.538   3.447  -2.404  0.00  0.00    +0.260 C 
ATOM     15  C   LIG    1        1.462   1.919  -2.368  0.00  0.00    +0.060 C 
ATOM     16  C   LIG    1        1.997   1.419  -1.023  0.00  0.00    +0.000 C 
ATOM     17  C   LIG    1        1.194   2.067   0.108  0.00  0.00    +0.070 C 
ATOM     18  C   LIG    1        1.281   3.589  -0.020  0.00  0.00    +0.250 C 
ATOM     19  H   LIG    1       -0.220   3.675  -1.397  0.00  0.00    +0.430 HD
BRANCH  16  20
ATOM     20  C   LIG    1        1.850  -0.103  -0.948  0.00  0.00    +0.190 C 
BRANCH  20  21
ATOM     21  O   LIG    1        2.454  -0.581   0.255  0.00  0.00    -0.570 OA
ATOM     22  H   LIG    1        2.398  -1.540   0.369  0.00  0.00    +0.390 HD
ENDBRANCH  20  21
ENDBRANCH  16  20
ENDBRANCH  12  13
ENDBRANCH   2  12
TORSDOF 4
