REMARK  Name = ZINCah0000002B6w.1
REMARK                            x       y       z     vdW  Elec       q    Type
REMARK                         _______ _______ _______ _____ _____    ______ ____
ROOT
ATOM      1  C   LIG    1       -2.586   2.625  -2.953  0.00  0.00    +0.410 A 
ATOM      2  C   LIG    1       -1.329   2.249  -3.415  0.00  0.00    -0.110 A 
ATOM      3  C   LIG    1       -0.414   1.732  -2.517  0.00  0.00    +0.110 A 
ATOM      4  C   LIG    1       -0.785   1.607  -1.183  0.00  0.00    -0.210 A 
ATOM      5  C   LIG    1       -0.013   1.086   0.008  0.00  0.00    +0.080 C 
ATOM      6  C   LIG    1       -0.777   1.605   1.244  0.00  0.00    +0.030 C 
ATOM      7  C   LIG    1       -2.214   1.767   0.697  0.00  0.00    +0.100 C 
ATOM      8  C   LIG    1       -2.049   1.999  -0.791  0.00  0.00    +0.170 A 
ATOM      9  N   LIG    1       -2.902   2.491  -1.676  0.00  0.00    -0.540 NA
ENDROOT
BRANCH   1  10
ATOM     10  N   LIG    1       -3.519   3.147  -3.842  0.00  0.00    -0.850 N 
ATOM     11  H   LIG    1       -4.396   3.410  -3.525  0.00  0.00    +0.400 HD
ATOM     12  H   LIG    1       -3.292   3.247  -4.780  0.00  0.00    +0.410 HD
ENDBRANCH   1  10
TORSDOF 1
