REMARK  Name = ZINCrH000004jshw.0
REMARK                            x       y       z     vdW  Elec       q    Type
REMARK                         _______ _______ _______ _____ _____    ______ ____
ROOT
ATOM      1  C   LIG    1       -1.172   4.017   1.942  0.00  0.00    +0.520 C 
ATOM      2  N   LIG    1       -0.533   3.164   1.117  0.00  0.00    -0.670 N 
ATOM      3  H   LIG    1        0.221   3.473   0.590  0.00  0.00    +0.420 HD
ATOM      4  O   LIG    1       -2.170   3.657   2.532  0.00  0.00    -0.510 OA
ENDROOT
BRANCH   1   7
ATOM      5  N   LIG    1       -1.293   6.257   2.956  0.00  0.00    -0.610 N 
ATOM      6  H   LIG    1       -2.090   5.969   3.427  0.00  0.00    +0.420 HD
ATOM      7  C   LIG    1       -0.653   5.404   2.131  0.00  0.00    +0.500 C 
ATOM      8  O   LIG    1        0.345   5.764   1.541  0.00  0.00    -0.510 OA
BRANCH   5  12
ATOM      9  N   LIG    1       -0.581   9.627   3.821  0.00  0.00    -0.360 N 
ATOM     10  N   LIG    1        0.464   9.345   2.932  0.00  0.00    -0.280 NA
ATOM     11  C   LIG    1        0.335   8.109   2.523  0.00  0.00    +0.270 A 
ATOM     12  C   LIG    1       -0.805   7.562   3.133  0.00  0.00    -0.020 A 
ATOM     13  C   LIG    1       -1.348   8.519   3.930  0.00  0.00    +0.060 A 
ATOM     14  C   LIG    1       -2.582   8.371   4.782  0.00  0.00    +0.150 C 
BRANCH   9  16
ATOM     15  C   LIG    1       -0.068  10.889   5.852  0.00  0.00    +0.040 C 
ATOM     16  C   LIG    1       -0.804  10.900   4.511  0.00  0.00    +0.320 C 
ENDBRANCH   9  16
ENDBRANCH   5  12
ENDBRANCH   1   7
BRANCH   2  17
ATOM     17  C   LIG    1       -0.975   1.772   1.017  0.00  0.00    +0.160 C 
ATOM     18  C   LIG    1       -1.010   1.037   2.367  0.00  0.00    +0.050 C 
ATOM     19  C   LIG    1        0.454   0.647   2.106  0.00  0.00    +0.010 C 
ATOM     20  C   LIG    1        0.145   0.796   0.607  0.00  0.00    +0.050 C 
BRANCH  17  21
ATOM     21  C   LIG    1       -2.259   1.612   0.199  0.00  0.00    +0.100 C 
BRANCH  21  22
ATOM     22  C   LIG    1       -2.175   2.465  -1.040  0.00  0.00    -0.060 A 
ATOM     23  C   LIG    1       -2.684   3.750  -1.030  0.00  0.00    +0.050 A 
ATOM     24  C   LIG    1       -2.602   4.535  -2.165  0.00  0.00    +0.040 A 
ATOM     25  C   LIG    1       -2.020   4.032  -3.314  0.00  0.00    -0.030 A 
ATOM     26  C   LIG    1       -1.515   2.744  -3.326  0.00  0.00    +0.040 A 
ATOM     27 CL   LIG    1       -1.923   5.016  -4.741  0.00  0.00    -0.060 Cl
ATOM     28  C   LIG    1       -1.592   1.961  -2.189  0.00  0.00    -0.020 A 
ATOM     29 CL   LIG    1       -0.958   0.345  -2.203  0.00  0.00    -0.050 Cl
ENDBRANCH  21  22
ENDBRANCH  17  21
ENDBRANCH   2  17
TORSDOF 6
