REMARK  Name = ZINCrg000000qJaa.0
REMARK                            x       y       z     vdW  Elec       q    Type
REMARK                         _______ _______ _______ _____ _____    ______ ____
ROOT
ATOM      1  C   LIG    1        1.152   3.171   0.007  0.00  0.00    +0.250 A 
ATOM      2  C   LIG    1       -0.058   3.854   0.022  0.00  0.00    -0.080 A 
ATOM      3  C   LIG    1       -1.245   3.156   0.030  0.00  0.00    +0.150 A 
ATOM      4  C   LIG    1       -1.232   1.759   0.017  0.00  0.00    -0.190 A 
ATOM      5  C   LIG    1       -0.013   1.076   0.008  0.00  0.00    +0.240 A 
ATOM      6  C   LIG    1        1.170   1.781   0.001  0.00  0.00    -0.720 A 
ENDROOT
BRANCH   4   7
ATOM      7  C   LIG    1       -2.502   1.007   0.019  0.00  0.00    +0.570 C 
ATOM      8  N   LIG    1       -3.676   1.667   0.029  0.00  0.00    -0.720 N 
ATOM      9  H   LIG    1       -3.687   2.637   0.034  0.00  0.00    +0.400 HD
ATOM     10  O   LIG    1       -2.488  -0.209   0.013  0.00  0.00    -0.530 OA
BRANCH   8  11
ATOM     11  C   LIG    1       -4.937   0.920   0.030  0.00  0.00    +0.350 C 
BRANCH  11  12
ATOM     12  C   LIG    1       -6.093   1.887   0.041  0.00  0.00    +0.100 A 
ATOM     13  C   LIG    1       -6.686   2.255  -1.151  0.00  0.00    -0.010 A 
ATOM     14  C   LIG    1       -7.753   3.141  -1.130  0.00  0.00    +0.060 A 
ATOM     15  C   LIG    1       -8.177   3.634   0.094  0.00  0.00    -0.020 A 
ATOM     16  C   LIG    1       -7.532   3.223   1.246  0.00  0.00    +0.260 A 
ATOM     17  N   LIG    1       -6.524   2.375   1.188  0.00  0.00    -0.470 NA
ENDBRANCH  11  12
ENDBRANCH   8  11
ENDBRANCH   4   7
BRANCH   6  18
ATOM     18  S   LIG    1        2.707   0.921  -0.018  0.00  0.00    +2.700 S 
ATOM     19  O   LIG    1        2.392  -0.464  -0.057  0.00  0.00    -0.950 OA
ATOM     20  O   LIG    1        3.508   1.508   0.999  0.00  0.00    -0.940 OA
BRANCH  18  21
ATOM     21  N   LIG    1        3.448   1.272  -1.457  0.00  0.00    -1.000 NA
ATOM     22  C   LIG    1        3.229   0.434  -2.647  0.00  0.00    +0.270 C 
ATOM     23  C   LIG    1        2.848   1.355  -3.817  0.00  0.00    +0.210 C 
ATOM     24  O   LIG    1        3.829   2.387  -3.941  0.00  0.00    -0.380 OA
ATOM     25  C   LIG    1        3.919   3.248  -2.804  0.00  0.00    +0.210 C 
ATOM     26  C   LIG    1        4.350   2.428  -1.582  0.00  0.00    +0.280 C 
ENDBRANCH  18  21
ENDBRANCH   6  18
BRANCH   1  28
ATOM     27  C   LIG    1        2.229   5.289   0.007  0.00  0.00    +0.270 C 
ATOM     28  O   LIG    1        2.320   3.863  -0.001  0.00  0.00    -0.310 OA
ENDBRANCH   1  28
TORSDOF 6
