REMARK  Name = ZINCtV00001bB3DP.0
REMARK                            x       y       z     vdW  Elec       q    Type
REMARK                         _______ _______ _______ _____ _____    ______ ____
ROOT
ATOM      1  N   LIG    1        1.313   7.618  -4.406  0.00  0.00    -0.380 NA
ATOM      2  C   LIG    1        0.593   7.053  -3.468  0.00  0.00    +0.180 C 
ATOM      3  C   LIG    1        0.993   6.771  -2.066  0.00  0.00    +0.570 C 
ATOM      4  N   LIG    1       -0.048   6.181  -1.453  0.00  0.00    -0.540 N 
ATOM      5  C   LIG    1       -1.133   6.043  -2.313  0.00  0.00    +0.180 A 
ATOM      6  C   LIG    1       -2.400   5.506  -2.120  0.00  0.00    -0.010 A 
ATOM      7  C   LIG    1       -3.312   5.489  -3.157  0.00  0.00    +0.080 A 
ATOM      8  C   LIG    1       -2.979   6.003  -4.398  0.00  0.00    -0.020 A 
ATOM      9  C   LIG    1       -1.725   6.540  -4.611  0.00  0.00    +0.100 A 
ATOM     10  O   LIG    1        2.070   7.025  -1.563  0.00  0.00    -0.460 OA
ATOM     11  C   LIG    1       -0.799   6.563  -3.572  0.00  0.00    -0.180 A 
ENDROOT
BRANCH   1  15
ATOM     12  C   LIG    1       -0.408   8.578  -8.036  0.00  0.00    -0.080 A 
ATOM     13  C   LIG    1       -0.825   9.224  -6.885  0.00  0.00    +0.030 A 
ATOM     14  C   LIG    1       -0.256   8.910  -5.669  0.00  0.00    +0.010 A 
ATOM     15  C   LIG    1        0.747   7.934  -5.601  0.00  0.00    +0.060 A 
ATOM     16  C   LIG    1        1.166   7.289  -6.772  0.00  0.00    +0.020 A 
ATOM     17  C   LIG    1        0.582   7.612  -7.978  0.00  0.00    +0.030 A 
BRANCH  12  18
ATOM     18  C   LIG    1       -1.037   8.928  -9.361  0.00  0.00    +0.030 C 
ATOM     19  C   LIG    1       -1.695   7.683  -9.958  0.00  0.00    +0.030 C 
BRANCH  18  21
ATOM     20  C   LIG    1       -0.613   9.915 -11.616  0.00  0.00    +0.010 C 
ATOM     21  C   LIG    1        0.042   9.443 -10.316  0.00  0.00    +0.000 C 
ENDBRANCH  18  21
ENDBRANCH  12  18
ENDBRANCH   1  15
BRANCH   4  22
ATOM     22  C   LIG    1       -0.043   5.745  -0.055  0.00  0.00    +0.370 C 
BRANCH  22  23
ATOM     23  C   LIG    1        0.439   4.319   0.025  0.00  0.00    -0.120 A 
ATOM     24  C   LIG    1        1.786   4.053   0.178  0.00  0.00    +0.060 A 
ATOM     25  C   LIG    1        2.228   2.745   0.252  0.00  0.00    +0.030 A 
ATOM     26  C   LIG    1        1.322   1.703   0.172  0.00  0.00    -0.030 A 
ATOM     27  C   LIG    1       -0.026   1.970   0.012  0.00  0.00    +0.030 A 
ATOM     28 CL   LIG    1        1.876   0.061   0.265  0.00  0.00    -0.060 Cl
ATOM     29  C   LIG    1       -0.468   3.279  -0.056  0.00  0.00    +0.040 A 
ENDBRANCH  22  23
ENDBRANCH   4  22
TORSDOF 5
