REMARK  Name = ZINCqH0000007lhP.0
REMARK                            x       y       z     vdW  Elec       q    Type
REMARK                         _______ _______ _______ _____ _____    ______ ____
ROOT
ATOM      1  N   LIG    1        3.012   3.532  -0.919  0.00  0.00    -0.740 N 
ATOM      2  H   LIG    1        3.893   3.128  -0.959  0.00  0.00    +0.390 HD
ATOM      3  C   LIG    1        2.832   4.801  -1.336  0.00  0.00    +0.710 C 
ATOM      4  N   LIG    1        3.876   5.509  -1.810  0.00  0.00    -0.740 N 
ATOM      5  H   LIG    1        4.757   5.105  -1.851  0.00  0.00    +0.400 HD
ATOM      6  O   LIG    1        1.727   5.307  -1.285  0.00  0.00    -0.590 OA
ENDROOT
BRANCH   1   7
ATOM      7  C   LIG    1        1.877   2.763  -0.403  0.00  0.00    +0.320 C 
ATOM      8  C   LIG    1        1.685   3.070   1.083  0.00  0.00    +0.040 C 
BRANCH   7  13
ATOM      9  C   LIG    1        3.692  -0.525  -0.822  0.00  0.00    +0.100 A 
ATOM     10  C   LIG    1        2.634  -1.417  -0.910  0.00  0.00    -0.040 A 
ATOM     11  C   LIG    1        1.334  -0.957  -0.834  0.00  0.00    -0.030 A 
ATOM     12  C   LIG    1        1.087   0.398  -0.670  0.00  0.00    +0.100 A 
ATOM     13  C   LIG    1        2.145   1.290  -0.582  0.00  0.00    -0.080 A 
ATOM     14  C   LIG    1        3.445   0.830  -0.658  0.00  0.00    +0.020 A 
BRANCH   9  16
ATOM     15  C   LIG    1        5.153  -2.386  -1.067  0.00  0.00    +0.250 C 
ATOM     16  O   LIG    1        4.972  -0.979  -0.897  0.00  0.00    -0.320 OA
ENDBRANCH   9  16
BRANCH  12  17
ATOM     17  O   LIG    1       -0.193   0.852  -0.601  0.00  0.00    -0.310 OA
ATOM     18  C   LIG    1       -1.233  -0.122  -0.705  0.00  0.00    +0.250 C 
ENDBRANCH  12  17
ENDBRANCH   7  13
ENDBRANCH   1   7
BRANCH   4  19
ATOM     19  C   LIG    1        3.680   6.888  -2.264  0.00  0.00    +0.320 C 
BRANCH  19  20
ATOM     20  C   LIG    1        5.019   7.467  -2.726  0.00  0.00    -0.110 C 
ATOM     21  C   LIG    1        5.040   8.226  -4.055  0.00  0.00    +0.050 C 
ATOM     22  C   LIG    1        5.675   6.837  -3.957  0.00  0.00    +0.030 C 
BRANCH  20  23
ATOM     23  C   LIG    1        5.927   7.960  -1.629  0.00  0.00    -0.050 A 
ATOM     24  C   LIG    1        7.127   7.319  -1.385  0.00  0.00    +0.010 A 
ATOM     25  C   LIG    1        7.962   7.774  -0.382  0.00  0.00    +0.000 A 
ATOM     26  C   LIG    1        7.593   8.863   0.384  0.00  0.00    +0.000 A 
ATOM     27  C   LIG    1        6.390   9.501   0.144  0.00  0.00    +0.000 A 
ATOM     28  C   LIG    1        5.557   9.049  -0.863  0.00  0.00    +0.010 A 
ENDBRANCH  20  23
ENDBRANCH  19  20
ENDBRANCH   4  19
TORSDOF 7
