REMARK  Name = ZINCkj00000dEeV6.0
REMARK                            x       y       z     vdW  Elec       q    Type
REMARK                         _______ _______ _______ _____ _____    ______ ____
ROOT
ATOM      1  C   LIG    1        1.291  -0.725  -0.014  0.00  0.00    -0.190 A 
ATOM      2  C   LIG    1        2.490  -0.014  -0.028  0.00  0.00    +0.110 A 
ATOM      3  C   LIG    1        3.699  -0.700  -0.037  0.00  0.00    -0.030 A 
ATOM      4  C   LIG    1        3.709  -2.095  -0.045  0.00  0.00    +0.120 A 
ATOM      5  C   LIG    1        2.521  -2.798  -0.037  0.00  0.00    +0.000 A 
ATOM      6  C   LIG    1        1.313  -2.124  -0.022  0.00  0.00    +0.170 A 
ATOM      7  F   LIG    1        0.153  -2.817  -0.015  0.00  0.00    -0.110 F 
ENDROOT
BRANCH   3   8
ATOM      8  C   LIG    1        4.979   0.051  -0.045  0.00  0.00    +0.110 A 
ATOM      9  N   LIG    1        5.111   1.358   0.048  0.00  0.00    -0.290 NA
ATOM     10  N   LIG    1        6.478   1.662   0.005  0.00  0.00    -0.470 N 
ATOM     11  H   LIG    1        6.865   2.550   0.056  0.00  0.00    +0.440 HD
ATOM     12  C   LIG    1        7.162   0.505  -0.126  0.00  0.00    +0.260 A 
ATOM     13  C   LIG    1        6.267  -0.507  -0.160  0.00  0.00    -0.100 A 
ENDBRANCH   3   8
BRANCH   1  15
ATOM     14  O   LIG    1       -1.042  -0.626   0.009  0.00  0.00    -0.500 OA
ATOM     15  C   LIG    1        0.002  -0.004   0.002  0.00  0.00    +0.570 C 
ATOM     16  N   LIG    1       -0.016   1.344   0.009  0.00  0.00    -0.730 N 
ATOM     17  H   LIG    1        0.817   1.840   0.004  0.00  0.00    +0.410 HD
BRANCH  16  18
ATOM     18  C   LIG    1       -1.295   2.059   0.019  0.00  0.00    +0.260 C 
ATOM     19  C   LIG    1       -1.783   2.264   1.472  0.00  0.00    +0.070 C 
ATOM     20  C   LIG    1       -1.309   3.706   1.794  0.00  0.00    +0.270 C 
ATOM     21  N   LIG    1       -1.514   4.426   0.511  0.00  0.00    -0.520 N 
ATOM     22  H   LIG    1       -2.486   4.680   0.406  0.00  0.00    +0.440 HD
ATOM     23  H   LIG    1       -0.933   5.250   0.477  0.00  0.00    +0.440 HD
ATOM     24  C   LIG    1       -1.118   3.478  -0.552  0.00  0.00    +0.280 C 
ENDBRANCH  16  18
ENDBRANCH   1  15
TORSDOF 3
