REMARK  Name = ZINCqH0000001FjQ.0
REMARK                            x       y       z     vdW  Elec       q    Type
REMARK                         _______ _______ _______ _____ _____    ______ ____
ROOT
ATOM      1  N   LIG    1        4.645  -0.018  -0.932  0.00  0.00    -0.690 N 
ATOM      2  H   LIG    1        4.535   0.929  -1.112  0.00  0.00    +0.410 HD
ATOM      3  C   LIG    1        5.657  -0.700  -1.505  0.00  0.00    +0.510 C 
ATOM      4  O   LIG    1        5.794  -1.884  -1.280  0.00  0.00    -0.510 OA
ENDROOT
BRANCH   3   5
ATOM      5  C   LIG    1        6.609   0.004  -2.417  0.00  0.00    +0.510 C 
ATOM      6  N   LIG    1        7.621  -0.678  -2.990  0.00  0.00    -0.690 N 
ATOM      7  H   LIG    1        7.731  -1.625  -2.810  0.00  0.00    +0.410 HD
ATOM      8  O   LIG    1        6.472   1.188  -2.642  0.00  0.00    -0.510 OA
BRANCH   6   9
ATOM      9  C   LIG    1        8.555   0.011  -3.884  0.00  0.00    +0.330 C 
BRANCH   9  10
ATOM     10  C   LIG    1        9.165  -0.984  -4.837  0.00  0.00    -0.090 A 
ATOM     11  C   LIG    1        9.533  -2.238  -4.386  0.00  0.00    +0.010 A 
ATOM     12  C   LIG    1       10.088  -3.152  -5.261  0.00  0.00    +0.010 A 
ATOM     13  C   LIG    1       10.285  -2.809  -6.586  0.00  0.00    +0.000 A 
ATOM     14  C   LIG    1        9.921  -1.554  -7.036  0.00  0.00    +0.010 A 
ATOM     15  C   LIG    1        9.362  -0.641  -6.162  0.00  0.00    +0.030 A 
ENDBRANCH   9  10
BRANCH   9  16
ATOM     16  C   LIG    1        9.661   0.669  -3.057  0.00  0.00    -0.050 C 
ATOM     17  C   LIG    1        9.719   0.338  -1.564  0.00  0.00    +0.000 C 
ATOM     18  C   LIG    1        9.243   1.717  -2.024  0.00  0.00    +0.020 C 
ENDBRANCH   9  16
ENDBRANCH   6   9
ENDBRANCH   3   5
BRANCH   1  19
ATOM     19  C   LIG    1        3.711  -0.707  -0.038  0.00  0.00    +0.290 C 
BRANCH  19  20
ATOM     20  C   LIG    1        2.396   0.029  -0.022  0.00  0.00    -0.090 A 
ATOM     21  C   LIG    1        1.208  -0.679  -0.013  0.00  0.00    +0.020 A 
ATOM     22  C   LIG    1        0.002  -0.004   0.002  0.00  0.00    +0.010 A 
ATOM     23  C   LIG    1       -0.017   1.378   0.010  0.00  0.00    +0.000 A 
ATOM     24  C   LIG    1        1.171   2.086   0.002  0.00  0.00    +0.020 A 
ATOM     25  C   LIG    1        2.377   1.411  -0.015  0.00  0.00    +0.010 A 
ENDBRANCH  19  20
BRANCH  19  27
ATOM     26  C   LIG    1        3.317  -1.464   2.310  0.00  0.00    +0.030 C 
ATOM     27  C   LIG    1        4.293  -0.744   1.377  0.00  0.00    -0.030 C 
ATOM     28  C   LIG    1        5.628  -1.491   1.360  0.00  0.00    +0.030 C 
ENDBRANCH  19  27
ENDBRANCH   1  19
TORSDOF 7
