REMARK  Name = ZINCqH00000044p7.0
REMARK                            x       y       z     vdW  Elec       q    Type
REMARK                         _______ _______ _______ _____ _____    ______ ____
ROOT
ATOM      1  N   LIG    1       -1.137   6.627   0.938  0.00  0.00    -0.730 N 
ATOM      2  H   LIG    1       -1.901   6.059   1.127  0.00  0.00    +0.400 HD
ATOM      3  C   LIG    1       -1.048   7.847   1.504  0.00  0.00    +0.520 C 
ATOM      4  O   LIG    1       -0.094   8.556   1.268  0.00  0.00    -0.530 OA
ENDROOT
BRANCH   1   5
ATOM      5  C   LIG    1       -0.082   6.158   0.037  0.00  0.00    +0.290 C 
BRANCH   5   6
ATOM      6  C   LIG    1       -0.061   4.651   0.028  0.00  0.00    -0.080 A 
ATOM      7  C   LIG    1        1.145   3.977   0.013  0.00  0.00    +0.040 A 
ATOM      8  C   LIG    1        1.165   2.595   0.005  0.00  0.00    +0.050 A 
ATOM      9  C   LIG    1       -0.024   1.887   0.012  0.00  0.00    -0.090 A 
ATOM     10  C   LIG    1       -1.231   2.562   0.022  0.00  0.00    +0.050 A 
ATOM     11 BR   LIG    1        0.002  -0.004   0.002  0.00  0.00    -0.050 Br
ATOM     12  C   LIG    1       -1.249   3.944   0.036  0.00  0.00    +0.020 A 
ENDBRANCH   5   6
BRANCH   5  14
ATOM     13  C   LIG    1       -0.250   8.200  -1.393  0.00  0.00    +0.020 C 
ATOM     14  C   LIG    1       -0.352   6.673  -1.377  0.00  0.00    +0.010 C 
ENDBRANCH   5  14
ENDBRANCH   1   5
BRANCH   3  15
ATOM     15  C   LIG    1       -2.135   8.329   2.431  0.00  0.00    +0.060 C 
BRANCH  15  16
ATOM     16  C   LIG    1       -1.792   9.733   2.932  0.00  0.00    +0.140 C 
BRANCH  16  17
ATOM     17  C   LIG    1       -2.878  10.215   3.859  0.00  0.00    -0.190 A 
ATOM     18  C   LIG    1       -2.754  10.059   5.202  0.00  0.00    +0.210 A 
ATOM     19  N   LIG    1       -3.750  10.505   6.013  0.00  0.00    -0.330 N 
ATOM     20  N   LIG    1       -3.934  10.501   7.402  0.00  0.00    -0.340 NA
ATOM     21  C   LIG    1       -5.094  11.068   7.637  0.00  0.00    +0.480 A 
ATOM     22  N   LIG    1       -5.654  11.430   6.490  0.00  0.00    -0.530 NA
ATOM     23  C   LIG    1       -4.859  11.099   5.479  0.00  0.00    +0.450 A 
ATOM     24  N   LIG    1       -4.972  11.249   4.154  0.00  0.00    -0.460 NA
ATOM     25  C   LIG    1       -1.530   9.402   5.786  0.00  0.00    +0.160 C 
ATOM     26  C   LIG    1       -4.024  10.833   3.345  0.00  0.00    +0.240 A 
ATOM     27  C   LIG    1       -4.174  11.018   1.857  0.00  0.00    +0.160 C 
ENDBRANCH  16  17
ENDBRANCH  15  16
ENDBRANCH   3  15
TORSDOF 6
