REMARK  Name = ZINCpk00000xWrIQ.0
REMARK                            x       y       z     vdW  Elec       q    Type
REMARK                         _______ _______ _______ _____ _____    ______ ____
ROOT
ATOM      1  C   LIG    1       -4.151   4.868  -1.363  0.00  0.00    +0.130 C 
ATOM      2  C   LIG    1       -3.795   6.282  -0.832  0.00  0.00    +0.040 C 
ATOM      3  C   LIG    1       -4.825   7.186  -1.540  0.00  0.00    +0.240 C 
ATOM      4  N   LIG    1       -5.284   6.470  -2.739  0.00  0.00    -0.620 N 
ATOM      5  C   LIG    1       -6.203   6.917  -3.618  0.00  0.00    +0.530 C 
ATOM      6  O   LIG    1       -6.506   6.238  -4.576  0.00  0.00    -0.510 OA
ATOM      7  C   LIG    1       -4.574   5.180  -2.820  0.00  0.00    +0.280 C 
ENDROOT
BRANCH   1   9
ATOM      8  C   LIG    1       -3.258   2.715  -2.019  0.00  0.00    +0.200 C 
ATOM      9  N   LIG    1       -2.978   3.984  -1.333  0.00  0.00    -0.520 NA
BRANCH   9  10
ATOM     10  C   LIG    1       -2.531   3.748   0.046  0.00  0.00    +0.290 C 
BRANCH  10  11
ATOM     11  C   LIG    1       -1.197   3.048   0.030  0.00  0.00    +0.370 A 
ATOM     12  N   LIG    1       -1.165   1.731   0.017  0.00  0.00    -0.560 NA
ATOM     13  C   LIG    1       -0.013   1.076   0.008  0.00  0.00    +0.350 A 
ATOM     14  C   LIG    1        1.169   1.791   0.001  0.00  0.00    -0.150 A 
ATOM     15  C   LIG    1        1.099   3.186   0.009  0.00  0.00    +0.440 A 
ATOM     16  N   LIG    1       -0.095   3.770   0.023  0.00  0.00    -0.560 NA
BRANCH  15  17
ATOM     17  N   LIG    1        2.256   3.948   0.001  0.00  0.00    -0.840 N 
ATOM     18  H   LIG    1        2.199   4.916   0.007  0.00  0.00    +0.410 HD
ATOM     19  H   LIG    1        3.123   3.513  -0.010  0.00  0.00    +0.410 HD
ENDBRANCH  15  17
ENDBRANCH  10  11
ENDBRANCH   9  10
ENDBRANCH   1   9
BRANCH   5  20
ATOM     20  C   LIG    1       -6.853   8.260  -3.410  0.00  0.00    +0.210 C 
BRANCH  20  21
ATOM     21  O   LIG    1       -7.783   8.508  -4.466  0.00  0.00    -0.360 OA
BRANCH  21  22
ATOM     22  C   LIG    1       -8.458   9.763  -4.364  0.00  0.00    +0.150 C 
ATOM     23  C   LIG    1       -9.744   9.586  -3.554  0.00  0.00    -0.010 C 
ATOM     24  C   LIG    1      -10.467  10.930  -3.444  0.00  0.00    +0.010 C 
ATOM     25  C   LIG    1      -10.813  11.439  -4.845  0.00  0.00    +0.000 C 
ATOM     26  C   LIG    1       -9.527  11.616  -5.655  0.00  0.00    +0.010 C 
ATOM     27  C   LIG    1       -8.804  10.272  -5.765  0.00  0.00    +0.020 C 
ENDBRANCH  21  22
ENDBRANCH  20  21
ENDBRANCH   5  20
TORSDOF 7
