REMARK  Name = ZINCrH000004uc3w.0
REMARK                            x       y       z     vdW  Elec       q    Type
REMARK                         _______ _______ _______ _____ _____    ______ ____
ROOT
ATOM      1  C   LIG    1        0.006   1.729  -1.102  0.00  0.00    +0.520 C 
ATOM      2  N   LIG    1        1.141   2.289  -0.639  0.00  0.00    -0.610 N 
ATOM      3  C   LIG    1        2.407   1.544  -0.664  0.00  0.00    +0.280 C 
ATOM      4  C   LIG    1        3.009   1.546   0.745  0.00  0.00    +0.010 C 
ATOM      5  C   LIG    1        3.138   2.990   1.237  0.00  0.00    +0.030 C 
ATOM      6  C   LIG    1        1.752   3.635   1.302  0.00  0.00    +0.030 C 
ATOM      7  C   LIG    1        1.137   3.658  -0.105  0.00  0.00    +0.330 C 
ATOM      8  O   LIG    1       -1.048   2.321  -0.999  0.00  0.00    -0.510 OA
ENDROOT
BRANCH   7   9
ATOM      9  C   LIG    1       -0.279   4.168  -0.032  0.00  0.00    +0.120 A 
ATOM     10  N   LIG    1       -0.792   4.989  -0.868  0.00  0.00    -0.470 NA
ATOM     11  C   LIG    1       -2.073   5.360  -0.679  0.00  0.00    +0.090 A 
ATOM     12  C   LIG    1       -2.876   6.238  -1.435  0.00  0.00    +0.060 A 
ATOM     13  C   LIG    1       -4.165   6.480  -1.069  0.00  0.00    +0.020 A 
ATOM     14  C   LIG    1       -4.712   5.871   0.051  0.00  0.00    +0.020 A 
ATOM     15  C   LIG    1       -3.951   5.009   0.808  0.00  0.00    +0.060 A 
ATOM     16  C   LIG    1       -2.630   4.749   0.449  0.00  0.00    -0.180 A 
ATOM     17  S   LIG    1       -1.401   3.716   1.172  0.00  0.00    +0.120 S 
ENDBRANCH   7   9
BRANCH   1  18
ATOM     18  C   LIG    1        0.046   0.372  -1.755  0.00  0.00    +0.050 C 
BRANCH  18  19
ATOM     19  C   LIG    1       -1.365  -0.029  -2.188  0.00  0.00    +0.300 C 
BRANCH  19  22
ATOM     20  O   LIG    1       -3.519  -1.317  -3.176  0.00  0.00    -0.510 OA
ATOM     21  C   LIG    1       -2.461  -1.908  -3.285  0.00  0.00    +0.610 C 
ATOM     22  N   LIG    1       -1.326  -1.349  -2.822  0.00  0.00    -0.720 N 
ATOM     23  H   LIG    1       -0.482  -1.820  -2.909  0.00  0.00    +0.410 HD
BRANCH  21  24
ATOM     24  C   LIG    1       -2.421  -3.229  -3.920  0.00  0.00    -0.090 A 
ATOM     25  C   LIG    1       -3.492  -3.907  -4.430  0.00  0.00    +0.050 A 
ATOM     26  C   LIG    1       -2.998  -5.120  -4.936  0.00  0.00    -0.060 A 
ATOM     27  C   LIG    1       -1.665  -5.129  -4.716  0.00  0.00    +0.210 A 
ATOM     28  O   LIG    1       -1.320  -3.986  -4.109  0.00  0.00    -0.170 OA
ENDBRANCH  21  24
ENDBRANCH  19  22
ENDBRANCH  18  19
ENDBRANCH   1  18
TORSDOF 5
