REMARK  Name = ZINCpk00001AZiQS.0
REMARK                            x       y       z     vdW  Elec       q    Type
REMARK                         _______ _______ _______ _____ _____    ______ ____
ROOT
ATOM      1  C   LIG    1        3.573   2.431  -2.069  0.00  0.00    +0.000 C 
ENDROOT
BRANCH   1   3
ATOM      2  O   LIG    1        4.173   0.152  -2.191  0.00  0.00    -0.520 OA
ATOM      3  C   LIG    1        3.357   0.963  -1.806  0.00  0.00    +0.550 C 
ATOM      4  N   LIG    1        2.259   0.552  -1.142  0.00  0.00    -0.620 N 
ATOM      5  C   LIG    1        1.842  -0.841  -0.891  0.00  0.00    +0.280 C 
ATOM      6  C   LIG    1        0.313  -0.830  -0.707  0.00  0.00    +0.050 C 
ATOM      7  C   LIG    1       -0.096   0.655  -0.838  0.00  0.00    +0.270 C 
ATOM      8  F   LIG    1       -1.089   0.980   0.092  0.00  0.00    -0.180 F 
ATOM      9  F   LIG    1       -0.523   0.939  -2.140  0.00  0.00    -0.180 F 
ATOM     10  C   LIG    1        1.222   1.405  -0.518  0.00  0.00    +0.280 C 
ENDBRANCH   1   3
BRANCH   1  11
ATOM     11  C   LIG    1        4.308   3.060  -0.884  0.00  0.00    +0.010 C 
ATOM     12  C   LIG    1        5.588   2.269  -0.597  0.00  0.00    +0.000 C 
ATOM     13  C   LIG    1        6.274   2.855   0.640  0.00  0.00    +0.210 C 
ATOM     14  O   LIG    1        5.372   2.819   1.748  0.00  0.00    -0.380 OA
ATOM     15  C   LIG    1        4.179   3.582   1.554  0.00  0.00    +0.210 C 
ATOM     16  C   LIG    1        3.408   3.023   0.355  0.00  0.00    -0.010 C 
ENDBRANCH   1  11
BRANCH   1  17
ATOM     17  C   LIG    1        4.410   2.604  -3.338  0.00  0.00    +0.210 C 
BRANCH  17  18
ATOM     18  N   LIG    1        4.512   4.032  -3.666  0.00  0.00    -0.680 NA
ATOM     19  H   LIG    1        4.965   4.543  -2.922  0.00  0.00    +0.340 HD
BRANCH  18  20
ATOM     20  C   LIG    1        5.213   4.230  -4.942  0.00  0.00    +0.290 C 
BRANCH  20  21
ATOM     21  C   LIG    1        5.299   5.704  -5.244  0.00  0.00    +0.320 A 
ATOM     22  N   LIG    1        4.334   6.274  -5.938  0.00  0.00    -0.500 NA
ATOM     23  C   LIG    1        4.373   7.567  -6.218  0.00  0.00    +0.320 A 
ATOM     24  C   LIG    1        5.452   8.319  -5.781  0.00  0.00    -0.080 A 
ATOM     25  C   LIG    1        6.449   7.684  -5.059  0.00  0.00    +0.320 A 
ATOM     26  N   LIG    1        6.340   6.388  -4.813  0.00  0.00    -0.520 NA
ENDBRANCH  20  21
ENDBRANCH  18  20
ENDBRANCH  17  18
ENDBRANCH   1  17
TORSDOF 6
