REMARK  Name = ZINCpk00001AZiE4.0
REMARK                            x       y       z     vdW  Elec       q    Type
REMARK                         _______ _______ _______ _____ _____    ______ ____
ROOT
ATOM      1  C   LIG    1       -2.347   3.442   1.593  0.00  0.00    +0.270 C 
ATOM      2  C   LIG    1       -3.315   2.266   1.335  0.00  0.00    +0.080 C 
ATOM      3  C   LIG    1       -2.371   1.139   0.833  0.00  0.00    +0.090 C 
ATOM      4  CA  LIG    1       -1.329   1.948   0.019  0.00  0.00    +0.240 C 
ATOM      5  C   LIG    1       -0.014   1.209   0.009  0.00  0.00    +0.520 C 
ATOM      6  N   LIG    1        1.142   1.901   0.001  0.00  0.00    -0.720 N 
ATOM      7  H   LIG    1        1.982   1.417   0.014  0.00  0.00    +0.410 HD
ATOM      8  CA  LIG    1        1.160   3.363  -0.025  0.00  0.00    +0.300 C 
ATOM      9  C   LIG    1        0.004   3.904   0.786  0.00  0.00    +0.540 C 
ATOM     10  O   LIG    1        0.100   4.950   1.393  0.00  0.00    -0.490 OA
ATOM     11  O   LIG    1        0.002  -0.004   0.002  0.00  0.00    -0.510 OA
ATOM     12  N   LIG    1       -1.137   3.185   0.812  0.00  0.00    -0.610 N 
ENDROOT
BRANCH   8  13
ATOM     13  C   LIG    1        2.457   3.859   0.559  0.00  0.00    -0.130 A 
ATOM     14  C   LIG    1        3.106   4.936  -0.016  0.00  0.00    +0.100 A 
ATOM     15  C   LIG    1        4.296   5.392   0.517  0.00  0.00    -0.060 A 
ATOM     16  C   LIG    1        4.840   4.770   1.631  0.00  0.00    +0.150 A 
ATOM     17  C   LIG    1        4.187   3.689   2.207  0.00  0.00    -0.070 A 
ATOM     18 CL   LIG    1        4.864   2.907   3.601  0.00  0.00    -0.050 Cl
ATOM     19  C   LIG    1        2.994   3.240   1.673  0.00  0.00    +0.100 A 
BRANCH  16  20
ATOM     20  O   LIG    1        6.011   5.218   2.157  0.00  0.00    -0.300 OA
ATOM     21  C   LIG    1        6.627   6.334   1.512  0.00  0.00    +0.250 C 
ENDBRANCH  16  20
ENDBRANCH   8  13
BRANCH   1  22
ATOM     22  C   LIG    1       -2.005   3.513   3.060  0.00  0.00    +0.450 C 
ATOM     23  O   LIG    1       -0.862   3.364   3.421  0.00  0.00    -0.480 OA
BRANCH  22  24
ATOM     24  O   LIG    1       -2.971   3.742   3.963  0.00  0.00    -0.360 OA
BRANCH  24  26
ATOM     25  C   LIG    1       -3.796   4.065   6.232  0.00  0.00    +0.070 C 
ATOM     26  C   LIG    1       -2.569   3.797   5.358  0.00  0.00    +0.200 C 
ENDBRANCH  24  26
ENDBRANCH  22  24
ENDBRANCH   1  22
TORSDOF 5
