REMARK  Name = ZINCtV00000tRR5q.0
REMARK                            x       y       z     vdW  Elec       q    Type
REMARK                         _______ _______ _______ _____ _____    ______ ____
ROOT
ATOM      1  C   LIG    1        1.181   1.649  -0.059  0.00  0.00    +0.400 A 
ATOM      2  C   LIG    1        1.164   3.022  -0.162  0.00  0.00    -0.020 A 
ATOM      3  C   LIG    1        2.347   3.745  -0.228  0.00  0.00    +0.060 A 
ATOM      4  C   LIG    1        3.567   3.069  -0.197  0.00  0.00    -0.040 A 
ATOM      5  C   LIG    1        3.559   1.605  -0.091  0.00  0.00    +0.330 A 
ATOM      6  N   LIG    1        4.542   0.726  -0.042  0.00  0.00    -0.490 NA
ATOM      7  C   LIG    1        4.031  -0.524   0.055  0.00  0.00    +0.100 A 
ATOM      8  C   LIG    1        4.614  -1.794   0.138  0.00  0.00    +0.060 A 
ATOM      9  C   LIG    1        3.812  -2.909   0.230  0.00  0.00    +0.040 A 
ATOM     10  C   LIG    1        2.431  -2.784   0.241  0.00  0.00    +0.010 A 
ATOM     11  C   LIG    1        1.839  -1.541   0.160  0.00  0.00    +0.050 A 
ATOM     12  C   LIG    1        2.630  -0.405   0.067  0.00  0.00    +0.020 A 
ATOM     13  N   LIG    1        2.354   0.949  -0.026  0.00  0.00    -0.410 N 
ENDROOT
BRANCH   1  14
ATOM     14  N   LIG    1       -0.011   0.966   0.007  0.00  0.00    -0.690 N 
ATOM     15  H   LIG    1       -0.625   0.987  -0.744  0.00  0.00    +0.430 HD
BRANCH  14  19
ATOM     16  C   LIG    1       -0.993  -1.181   3.438  0.00  0.00    -0.110 A 
ATOM     17  C   LIG    1       -1.792  -1.274   2.314  0.00  0.00    +0.050 A 
ATOM     18  C   LIG    1       -1.470  -0.564   1.174  0.00  0.00    -0.030 A 
ATOM     19  C   LIG    1       -0.341   0.245   1.159  0.00  0.00    +0.170 A 
ATOM     20  C   LIG    1        0.463   0.333   2.288  0.00  0.00    -0.050 A 
ATOM     21  C   LIG    1        0.132  -0.376   3.426  0.00  0.00    +0.050 A 
BRANCH  16  22
ATOM     22  C   LIG    1       -1.348  -1.958   4.680  0.00  0.00    +0.060 C 
BRANCH  22  23
ATOM     23  C   LIG    1       -0.678  -3.333   4.631  0.00  0.00    +0.010 C 
BRANCH  23  25
ATOM     24  C   LIG    1       -0.369  -5.496   5.842  0.00  0.00    +0.000 C 
ATOM     25  C   LIG    1       -1.039  -4.121   5.891  0.00  0.00    -0.010 C 
ENDBRANCH  23  25
ENDBRANCH  22  23
ENDBRANCH  16  22
ENDBRANCH  14  19
ENDBRANCH   1  14
BRANCH   4  26
ATOM     26  C   LIG    1        4.803   3.789  -0.266  0.00  0.00    +0.270 C 
ATOM     27  N   LIG    1        5.783   4.360  -0.322  0.00  0.00    -0.400 NA
ENDBRANCH   4  26
BRANCH   3  28
ATOM     28  C   LIG    1        2.314   5.247  -0.337  0.00  0.00    +0.090 C 
BRANCH  28  29
ATOM     29  C   LIG    1        2.157   5.649  -1.805  0.00  0.00    +0.020 C 
ATOM     30  C   LIG    1        2.123   7.175  -1.915  0.00  0.00    +0.030 C 
ENDBRANCH  28  29
ENDBRANCH   3  28
TORSDOF 8
