REMARK  Name = ZINCrg00000bxxjK.1
REMARK                            x       y       z     vdW  Elec       q    Type
REMARK                         _______ _______ _______ _____ _____    ______ ____
ROOT
ATOM      1  N   LIG    1        8.888  -1.386   3.178  0.00  0.00    -0.280 N 
ATOM      2  C   LIG    1        8.743  -1.787   1.893  0.00  0.00    +0.170 A 
ATOM      3  C   LIG    1        7.809  -0.973   1.347  0.00  0.00    -0.050 A 
ATOM      4  N   LIG    1        7.427  -0.131   2.314  0.00  0.00    -0.250 NA
ATOM      5  N   LIG    1        8.085  -0.402   3.386  0.00  0.00    -0.050 NA
ENDROOT
BRANCH   1   6
ATOM      6  C   LIG    1        9.797  -1.975   4.163  0.00  0.00    +0.370 C 
BRANCH   6  13
ATOM      7  C   LIG    1       13.418   0.693   8.394  0.00  0.00    +0.060 C 
ATOM      8  C   LIG    1       12.403  -0.270   7.774  0.00  0.00    +0.160 C 
ATOM      9  C   LIG    1       12.474  -0.173   6.246  0.00  0.00    +0.250 C 
ATOM     10  N   LIG    1       11.602  -1.209   5.672  0.00  0.00    -0.610 N 
ATOM     11  C   LIG    1       11.759  -2.592   6.146  0.00  0.00    +0.230 C 
ATOM     12  C   LIG    1       11.720  -2.595   7.674  0.00  0.00    +0.220 C 
ATOM     13  C   LIG    1       10.680  -0.897   4.739  0.00  0.00    +0.510 C 
ATOM     14  O   LIG    1       10.562   0.249   4.362  0.00  0.00    -0.500 OA
ATOM     15  N   LIG    1       12.715  -1.644   8.189  0.00  0.00    -0.680 NA
ATOM     16  H   LIG    1       13.647  -1.906   7.904  0.00  0.00    +0.340 HD
ENDBRANCH   6  13
ENDBRANCH   1   6
BRANCH   3  17
ATOM     17  C   LIG    1        7.296  -1.013  -0.069  0.00  0.00    +0.430 C 
BRANCH  17  18
ATOM     18  N   LIG    1        5.837  -1.144  -0.057  0.00  0.00    -0.450 N 
ATOM     19  C   LIG    1        5.138  -2.301  -0.055  0.00  0.00    +0.390 A 
ATOM     20  N   LIG    1        3.864  -2.027  -0.038  0.00  0.00    -0.480 NA
ATOM     21  C   LIG    1        3.699  -0.689  -0.036  0.00  0.00    +0.030 A 
ATOM     22  C   LIG    1        4.932  -0.120  -0.044  0.00  0.00    +0.170 A 
BRANCH  21  23
ATOM     23  C   LIG    1        2.402   0.033  -0.020  0.00  0.00    +0.000 A 
ATOM     24  C   LIG    1        1.205  -0.680  -0.013  0.00  0.00    +0.030 A 
ATOM     25  C   LIG    1        0.002  -0.004   0.002  0.00  0.00    +0.000 A 
ATOM     26  C   LIG    1       -0.017   1.379   0.010  0.00  0.00    +0.000 A 
ATOM     27  C   LIG    1        1.169   2.092   0.002  0.00  0.00    +0.000 A 
ATOM     28  C   LIG    1        2.377   1.426  -0.013  0.00  0.00    +0.010 A 
ENDBRANCH  21  23
ENDBRANCH  17  18
ENDBRANCH   3  17
TORSDOF 5
