REMARK  Name = ZINCrg000000nFuh.0
REMARK                            x       y       z     vdW  Elec       q    Type
REMARK                         _______ _______ _______ _____ _____    ______ ____
ROOT
ATOM      1  S   LIG    1       -0.860   1.669   1.497  0.00  0.00    +0.120 S 
ENDROOT
BRANCH   1   2
ATOM      2  C   LIG    1        0.174   0.961   2.735  0.00  0.00    +0.170 A 
ATOM      3  N   LIG    1        1.243   0.227   2.530  0.00  0.00    -0.290 NA
ATOM      4  N   LIG    1        1.759  -0.126   3.654  0.00  0.00    -0.260 NA
ATOM      5  C   LIG    1        1.050   0.361   4.645  0.00  0.00    +0.240 A 
ATOM      6  N   LIG    1        0.016   1.077   4.088  0.00  0.00    -0.300 N 
BRANCH   5   7
ATOM      7  C   LIG    1        1.316   0.179   6.089  0.00  0.00    -0.140 A 
ATOM      8  C   LIG    1        2.333  -0.525   6.654  0.00  0.00    +0.070 A 
ATOM      9  O   LIG    1        2.218  -0.440   7.987  0.00  0.00    -0.170 OA
ATOM     10  C   LIG    1        1.149   0.295   8.326  0.00  0.00    +0.200 A 
ATOM     11  C   LIG    1        3.409  -1.273   5.908  0.00  0.00    +0.200 C 
ATOM     12  C   LIG    1        0.534   0.717   7.209  0.00  0.00    -0.070 A 
ENDBRANCH   5   7
BRANCH   6  13
ATOM     13  N   LIG    1       -0.965   1.760   4.749  0.00  0.00    -0.580 N 
ATOM     14  H   LIG    1       -0.613   2.161   5.605  0.00  0.00    +0.380 HD
ATOM     15  H   LIG    1       -1.761   1.166   4.929  0.00  0.00    +0.370 HD
ENDBRANCH   6  13
ENDBRANCH   1   2
BRANCH   1  16
ATOM     16  C   LIG    1       -0.013   1.086   0.008  0.00  0.00    +0.100 C 
BRANCH  16  18
ATOM     17  N   LIG    1       -0.288   1.272  -2.443  0.00  0.00    -0.590 N 
ATOM     18  C   LIG    1       -0.742   1.585  -1.213  0.00  0.00    +0.540 C 
ATOM     19  O   LIG    1       -1.736   2.268  -1.088  0.00  0.00    -0.510 OA
BRANCH  17  20
ATOM     20  C   LIG    1       -0.997   1.758  -3.630  0.00  0.00    +0.280 C 
ATOM     21  C   LIG    1       -2.443   1.232  -3.632  0.00  0.00    +0.060 C 
ATOM     22  C   LIG    1       -3.253   2.017  -4.683  0.00  0.00    -0.310 C 
ATOM     23  S   LIG    1       -2.436   3.650  -4.791  0.00  0.00    +2.390 S 
ATOM     24  O   LIG    1       -3.298   4.645  -4.256  0.00  0.00    -0.930 OA
ATOM     25  O   LIG    1       -1.885   3.816  -6.090  0.00  0.00    -0.930 OA
ATOM     26  C   LIG    1       -1.087   3.305  -3.599  0.00  0.00    -0.310 C 
ENDBRANCH  17  20
BRANCH  17  27
ATOM     27  C   LIG    1        0.913   0.447  -2.593  0.00  0.00    +0.280 C 
BRANCH  27  29
ATOM     28  C   LIG    1        1.768  -1.891  -2.801  0.00  0.00    +0.030 C 
ATOM     29  C   LIG    1        0.514  -1.029  -2.644  0.00  0.00    +0.000 C 
ENDBRANCH  27  29
ENDBRANCH  17  27
ENDBRANCH  16  18
ENDBRANCH   1  16
TORSDOF 8
