REMARK  Name = ZINCvU0000000Aub.0
REMARK                            x       y       z     vdW  Elec       q    Type
REMARK                         _______ _______ _______ _____ _____    ______ ____
ROOT
ATOM      1  C   LIG    1       -3.559  -3.121  -0.660  0.00  0.00    +0.290 A 
ATOM      2  N   LIG    1       -4.776  -3.376  -0.274  0.00  0.00    -0.460 NA
ATOM      3  C   LIG    1       -4.825  -3.416   1.083  0.00  0.00    +0.050 A 
ATOM      4  C   LIG    1       -5.851  -3.644   2.003  0.00  0.00    +0.070 A 
ATOM      5  C   LIG    1       -5.582  -3.620   3.342  0.00  0.00    +0.000 A 
ATOM      6  C   LIG    1       -4.297  -3.370   3.802  0.00  0.00    +0.030 A 
ATOM      7  C   LIG    1       -3.269  -3.142   2.912  0.00  0.00    +0.010 A 
ATOM      8  C   LIG    1       -3.522  -3.168   1.547  0.00  0.00    +0.050 A 
ATOM      9  N   LIG    1       -2.746  -2.980   0.421  0.00  0.00    -0.480 N 
ENDROOT
BRANCH   1  11
ATOM     10  C   LIG    1       -3.593  -1.661  -2.664  0.00  0.00    +0.070 C 
ATOM     11  C   LIG    1       -3.117  -2.999  -2.095  0.00  0.00    +0.260 C 
BRANCH  11  12
ATOM     12  O   LIG    1       -3.679  -4.068  -2.859  0.00  0.00    -0.290 OA
BRANCH  12  13
ATOM     13  C   LIG    1       -3.017  -4.434  -3.988  0.00  0.00    +0.130 A 
ATOM     14  C   LIG    1       -3.438  -5.539  -4.713  0.00  0.00    -0.020 A 
ATOM     15  C   LIG    1       -2.767  -5.905  -5.864  0.00  0.00    +0.050 A 
ATOM     16  C   LIG    1       -1.670  -5.178  -6.287  0.00  0.00    -0.040 A 
ATOM     17  C   LIG    1       -1.245  -4.079  -5.563  0.00  0.00    +0.050 A 
ATOM     18  C   LIG    1       -1.916  -3.706  -4.415  0.00  0.00    -0.080 A 
ENDBRANCH  12  13
ENDBRANCH  11  12
ENDBRANCH   1  11
BRANCH   9  19
ATOM     19  C   LIG    1       -1.310  -2.689   0.395  0.00  0.00    +0.290 C 
BRANCH  19  20
ATOM     20  C   LIG    1       -1.097  -1.174   0.418  0.00  0.00    +0.210 C 
BRANCH  20  21
ATOM     21  O   LIG    1       -1.620  -0.601  -0.782  0.00  0.00    -0.540 OA
ATOM     22  H   LIG    1       -1.208  -0.935  -1.590  0.00  0.00    +0.370 HD
ENDBRANCH  20  21
BRANCH  20  23
ATOM     23  C   LIG    1        0.400  -0.871   0.516  0.00  0.00    +0.160 C 
BRANCH  23  24
ATOM     24  O   LIG    1        0.593   0.538   0.655  0.00  0.00    -0.370 OA
BRANCH  24  25
ATOM     25  C   LIG    1        1.963   0.930   0.756  0.00  0.00    +0.240 C 
BRANCH  25  26
ATOM     26  C   LIG    1        2.048   2.428   0.897  0.00  0.00    -0.080 A 
ATOM     27  C   LIG    1        0.893   3.187   0.912  0.00  0.00    +0.060 A 
ATOM     28  C   LIG    1        0.971   4.562   1.041  0.00  0.00    +0.020 A 
ATOM     29  C   LIG    1        2.204   5.177   1.155  0.00  0.00    +0.020 A 
ATOM     30  C   LIG    1        3.359   4.419   1.140  0.00  0.00    +0.030 A 
ATOM     31  C   LIG    1        3.282   3.043   1.017  0.00  0.00    -0.030 A 
ATOM     32 CL   LIG    1        4.732   2.089   1.006  0.00  0.00    -0.070 Cl
ENDBRANCH  25  26
ENDBRANCH  24  25
ENDBRANCH  23  24
ENDBRANCH  20  23
ENDBRANCH  19  20
ENDBRANCH   9  19
TORSDOF 10
