REMARK  Name = ZINCvU0000000Acy.0
REMARK                            x       y       z     vdW  Elec       q    Type
REMARK                         _______ _______ _______ _____ _____    ______ ____
ROOT
ATOM      1  N   LIG    1       -0.068  -0.238  -7.769  0.00  0.00    -0.660 N 
ATOM      2  H   LIG    1       -0.152   0.727  -7.833  0.00  0.00    +0.420 HD
ATOM      3  C   LIG    1       -0.053  -0.834  -6.561  0.00  0.00    +0.530 C 
ATOM      4  O   LIG    1       -0.031  -2.044  -6.482  0.00  0.00    -0.490 OA
ENDROOT
BRANCH   1  17
ATOM      5  C   LIG    1        0.726  -0.508 -10.039  0.00  0.00    +0.090 A 
ATOM      6  C   LIG    1        0.832  -1.267 -11.188  0.00  0.00    +0.000 A 
ATOM      7  C   LIG    1        0.250  -2.531 -11.238  0.00  0.00    -0.090 A 
ATOM      8  C   LIG    1       -0.443  -3.038 -10.130  0.00  0.00    +0.070 A 
ATOM      9  O   LIG    1       -0.904  -4.271 -10.439  0.00  0.00    -0.190 OA
ATOM     10  C   LIG    1       -0.563  -4.627 -11.697  0.00  0.00    +0.090 A 
ATOM     11  C   LIG    1       -0.806  -5.774 -12.443  0.00  0.00    +0.020 A 
ATOM     12  C   LIG    1       -0.329  -5.875 -13.733  0.00  0.00    +0.060 A 
ATOM     13  C   LIG    1        0.396  -4.838 -14.299  0.00  0.00    -0.010 A 
ATOM     14  C   LIG    1        0.647  -3.692 -13.575  0.00  0.00    +0.070 A 
ATOM     15  C   LIG    1       -0.538  -2.268  -8.977  0.00  0.00    +0.080 A 
ATOM     16  C   LIG    1        0.171  -3.580 -12.273  0.00  0.00    -0.120 A 
ATOM     17  C   LIG    1        0.037  -1.010  -8.933  0.00  0.00    +0.160 A 
BRANCH   5  19
ATOM     18  C   LIG    1        1.982   1.176 -11.152  0.00  0.00    +0.250 C 
ATOM     19  O   LIG    1        1.293   0.727  -9.984  0.00  0.00    -0.310 OA
ENDBRANCH   5  19
ENDBRANCH   1  17
BRANCH   3  20
ATOM     20  C   LIG    1       -0.064   0.003  -5.307  0.00  0.00    +0.090 C 
BRANCH  20  21
ATOM     21  S   LIG    1       -0.038  -1.084  -3.855  0.00  0.00    -0.090 S 
BRANCH  21  22
ATOM     22  C   LIG    1       -0.054   0.087  -2.469  0.00  0.00    +0.070 C 
BRANCH  22  23
ATOM     23  C   LIG    1       -0.036  -0.674  -1.169  0.00  0.00    +0.530 C 
ATOM     24  N   LIG    1       -0.044  -0.007   0.002  0.00  0.00    -0.610 N 
ATOM     25  C   LIG    1       -0.070   1.458   0.011  0.00  0.00    +0.280 C 
ATOM     26  O   LIG    1       -0.014  -1.887  -1.176  0.00  0.00    -0.510 OA
BRANCH  24  27
ATOM     27  C   LIG    1       -0.025  -0.747   1.267  0.00  0.00    +0.240 C 
ATOM     28  C   LIG    1       -1.278  -0.404   2.076  0.00  0.00    +0.010 C 
ATOM     29  C   LIG    1       -1.259  -1.177   3.397  0.00  0.00    +0.020 C 
ATOM     30  C   LIG    1       -0.014  -0.789   4.196  0.00  0.00    +0.000 C 
ATOM     31  C   LIG    1        1.239  -1.131   3.387  0.00  0.00    +0.020 C 
ATOM     32  C   LIG    1        1.220  -0.359   2.067  0.00  0.00    +0.010 C 
ENDBRANCH  24  27
ENDBRANCH  22  23
ENDBRANCH  21  22
ENDBRANCH  20  21
ENDBRANCH   3  20
TORSDOF 7
