REMARK  Name = ZINCvU00000006yy.0
REMARK                            x       y       z     vdW  Elec       q    Type
REMARK                         _______ _______ _______ _____ _____    ______ ____
ROOT
ATOM      1  C   LIG    1       -1.002   3.806   0.028  0.00  0.00    +0.050 C 
ENDROOT
BRANCH   1   2
ATOM      2  C   LIG    1       -0.832   4.300  -1.386  0.00  0.00    -0.070 A 
ATOM      3  C   LIG    1       -1.823   4.070  -2.322  0.00  0.00    +0.030 A 
ATOM      4  C   LIG    1       -1.669   4.527  -3.618  0.00  0.00    +0.000 A 
ATOM      5  C   LIG    1       -0.520   5.206  -3.979  0.00  0.00    +0.010 A 
ATOM      6  C   LIG    1        0.473   5.431  -3.045  0.00  0.00    -0.010 A 
ATOM      7  C   LIG    1        0.317   4.978  -1.748  0.00  0.00    +0.040 A 
ENDBRANCH   1   2
BRANCH   1   8
ATOM      8  C   LIG    1       -1.163   2.308   0.020  0.00  0.00    +0.450 C 
ATOM      9  O   LIG    1       -2.273   1.816   0.023  0.00  0.00    -0.450 OA
BRANCH   8  10
ATOM     10  C   LIG    1       -0.018   1.472   0.010  0.00  0.00    -0.270 A 
ATOM     11  C   LIG    1        1.301   1.874  -0.000  0.00  0.00    +0.330 A 
ATOM     12  N   LIG    1        2.103   0.793  -0.014  0.00  0.00    -0.560 N 
ATOM     13  H   LIG    1        3.073   0.826  -0.024  0.00  0.00    +0.420 HD
ATOM     14  C   LIG    1        1.358  -0.369  -0.013  0.00  0.00    +0.070 A 
ATOM     15  C   LIG    1        1.700  -1.717  -0.024  0.00  0.00    +0.000 A 
ATOM     16  C   LIG    1        0.712  -2.678  -0.020  0.00  0.00    +0.030 A 
ATOM     17  C   LIG    1       -0.626  -2.315  -0.005  0.00  0.00    +0.000 A 
ATOM     18  C   LIG    1       -0.986  -0.984   0.006  0.00  0.00    +0.060 A 
ATOM     19  C   LIG    1        0.002  -0.004   0.002  0.00  0.00    -0.050 A 
ENDBRANCH   8  10
ENDBRANCH   1   8
BRANCH   1  20
ATOM     20  S   LIG    1       -2.471   4.567   0.760  0.00  0.00    +0.010 S 
BRANCH  20  24
ATOM     21  C   LIG    1        1.023   8.158  -0.218  0.00  0.00    +0.130 C 
ATOM     22  C   LIG    1       -0.348   7.838   0.320  0.00  0.00    +0.170 A 
ATOM     23  N   LIG    1       -0.765   6.588   0.326  0.00  0.00    -0.480 NA
ATOM     24  C   LIG    1       -1.963   6.254   0.782  0.00  0.00    +0.140 A 
ATOM     25  C   LIG    1       -2.829   7.239   1.290  0.00  0.00    -0.170 A 
ATOM     26  C   LIG    1       -2.403   8.572   1.297  0.00  0.00    +0.010 A 
ATOM     27  C   LIG    1       -3.294   9.664   1.830  0.00  0.00    +0.110 C 
ATOM     28  C   LIG    1       -1.144   8.862   0.803  0.00  0.00    -0.150 A 
ATOM     29  C   LIG    1       -0.643  10.284   0.791  0.00  0.00    +0.120 C 
BRANCH  25  30
ATOM     30  C   LIG    1       -4.162   6.874   1.804  0.00  0.00    +0.580 C 
ATOM     31  O   LIG    1       -4.303   6.587   2.977  0.00  0.00    -0.520 OA
ATOM     32  N   LIG    1       -5.223   6.858   0.974  0.00  0.00    -0.840 N 
ATOM     33  H   LIG    1       -6.100   6.618   1.312  0.00  0.00    +0.410 HD
ATOM     34  H   LIG    1       -5.110   7.087   0.038  0.00  0.00    +0.400 HD
ENDBRANCH  25  30
ENDBRANCH  20  24
ENDBRANCH   1  20
TORSDOF 6
