REMARK  Name = ZINCvU0000000Hxy.0
REMARK                            x       y       z     vdW  Elec       q    Type
REMARK                         _______ _______ _______ _____ _____    ______ ____
ROOT
ATOM      1  N   LIG    1       -5.529   9.565   0.677  0.00  0.00    -0.300 N 
ATOM      2  C   LIG    1       -6.894   9.535   0.748  0.00  0.00    +0.160 A 
ATOM      3  N   LIG    1       -7.260   8.287   0.667  0.00  0.00    -0.260 NA
ATOM      4  N   LIG    1       -6.228   7.532   0.545  0.00  0.00    -0.290 NA
ATOM      5  C   LIG    1       -5.137   8.263   0.550  0.00  0.00    +0.170 A 
ENDROOT
BRANCH   1   6
ATOM      6  N   LIG    1       -4.724  10.668   0.722  0.00  0.00    -0.580 N 
ATOM      7  H   LIG    1       -5.112  11.374   1.329  0.00  0.00    +0.380 HD
ATOM      8  H   LIG    1       -4.562  11.035  -0.203  0.00  0.00    +0.370 HD
ENDBRANCH   1   6
BRANCH   2   9
ATOM      9  C   LIG    1       -7.807  10.726   0.893  0.00  0.00    +0.210 C 
BRANCH   9  10
ATOM     10  C   LIG    1       -8.187  11.237  -0.472  0.00  0.00    -0.080 A 
ATOM     11  C   LIG    1       -7.486  12.255  -1.042  0.00  0.00    +0.010 A 
ATOM     12  C   LIG    1       -7.824  12.741  -2.304  0.00  0.00    +0.010 A 
ATOM     13  C   LIG    1       -8.864  12.211  -3.003  0.00  0.00    +0.030 A 
ATOM     14  C   LIG    1       -9.612  11.159  -2.448  0.00  0.00    -0.050 A 
ATOM     15  C   LIG    1      -10.692  10.587  -3.140  0.00  0.00    +0.020 A 
ATOM     16  C   LIG    1      -11.383   9.557  -2.578  0.00  0.00    +0.010 A 
ATOM     17  C   LIG    1      -11.045   9.071  -1.316  0.00  0.00    +0.020 A 
ATOM     18  C   LIG    1      -10.008   9.604  -0.614  0.00  0.00    +0.030 A 
ATOM     19  C   LIG    1       -9.265  10.661  -1.167  0.00  0.00    -0.040 A 
ENDBRANCH   9  10
ENDBRANCH   2   9
BRANCH   5  20
ATOM     20  S   LIG    1       -3.481   7.676   0.412  0.00  0.00    +0.120 S 
BRANCH  20  21
ATOM     21  C   LIG    1       -3.788   5.896   0.286  0.00  0.00    +0.110 C 
BRANCH  21  22
ATOM     22  C   LIG    1       -2.476   5.168   0.156  0.00  0.00    +0.540 C 
ATOM     23  N   LIG    1       -2.458   3.825   0.046  0.00  0.00    -0.660 N 
ATOM     24  H   LIG    1       -3.291   3.333  -0.029  0.00  0.00    +0.420 HD
ATOM     25  O   LIG    1       -1.435   5.791   0.149  0.00  0.00    -0.490 OA
BRANCH  23  26
ATOM     26  C   LIG    1       -1.238   3.139   0.042  0.00  0.00    +0.180 A 
ATOM     27  C   LIG    1       -0.120   3.703   0.642  0.00  0.00    +0.080 A 
ATOM     28  C   LIG    1        1.083   3.023   0.636  0.00  0.00    -0.000 A 
ATOM     29  C   LIG    1        1.175   1.780   0.033  0.00  0.00    -0.040 A 
ATOM     30  C   LIG    1        0.063   1.216  -0.566  0.00  0.00    +0.090 A 
ATOM     31 CL   LIG    1        2.688   0.929   0.027  0.00  0.00    -0.030 Cl
ATOM     32 CL   LIG    1        2.481   3.728   1.386  0.00  0.00    -0.030 Cl
ATOM     33  C   LIG    1       -1.141   1.894  -0.568  0.00  0.00    -0.060 A 
ATOM     34 CL   LIG    1       -2.534   1.188  -1.327  0.00  0.00    -0.040 Cl
ENDBRANCH  23  26
ENDBRANCH  21  22
ENDBRANCH  20  21
ENDBRANCH   5  20
TORSDOF 7
