REMARK  Name = ZINCtj00000mgXPk.0
REMARK                            x       y       z     vdW  Elec       q    Type
REMARK                         _______ _______ _______ _____ _____    ______ ____
ROOT
ATOM      1  C   LIG    1       -3.310   3.937   2.758  0.00  0.00    +0.340 A 
ATOM      2  C   LIG    1       -2.529   3.464   1.709  0.00  0.00    -0.110 A 
ATOM      3  C   LIG    1       -2.775   2.181   1.230  0.00  0.00    +0.340 A 
ATOM      4  N   LIG    1       -3.736   1.453   1.797  0.00  0.00    -0.510 NA
ATOM      5  C   LIG    1       -4.451   1.936   2.793  0.00  0.00    +0.550 A 
ATOM      6  N   LIG    1       -4.252   3.147   3.271  0.00  0.00    -0.540 NA
ENDROOT
BRANCH   3   7
ATOM      7  N   LIG    1       -2.028   1.665   0.183  0.00  0.00    -0.450 N 
ATOM      8  C   LIG    1       -2.215   2.465  -1.046  0.00  0.00    +0.190 C 
ATOM      9  C   LIG    1       -0.874   2.452  -1.802  0.00  0.00    +0.180 C 
ATOM     10  C   LIG    1        0.084   1.627  -0.912  0.00  0.00    +0.070 C 
ATOM     11  C   LIG    1       -0.571   1.723   0.489  0.00  0.00    +0.130 C 
BRANCH   9  12
ATOM     12  O   LIG    1       -1.029   1.826  -3.078  0.00  0.00    -0.550 OA
ATOM     13  H   LIG    1       -1.619   2.300  -3.679  0.00  0.00    +0.390 HD
ENDBRANCH   9  12
BRANCH  11  14
ATOM     14  C   LIG    1       -0.150   0.539   1.363  0.00  0.00    +0.280 C 
BRANCH  14  15
ATOM     15  N   LIG    1        1.292   0.620   1.635  0.00  0.00    -0.390 N 
ATOM     16  C   LIG    1        1.724  -0.589   2.348  0.00  0.00    +0.330 C 
ATOM     17  C   LIG    1        1.568   1.802   2.463  0.00  0.00    +0.310 C 
ATOM     18  H   LIG    1        1.795   0.695   0.764  0.00  0.00    +0.430 HD
ENDBRANCH  14  15
ENDBRANCH  11  14
ENDBRANCH   3   7
BRANCH   1  21
ATOM     19  C   LIG    1       -2.874   6.161   5.114  0.00  0.00    -0.040 C 
ATOM     20  C   LIG    1       -4.041   5.493   4.373  0.00  0.00    +0.240 C 
ATOM     21  N   LIG    1       -3.107   5.211   3.267  0.00  0.00    -0.430 N 
ATOM     22  C   LIG    1       -2.017   5.216   4.261  0.00  0.00    +0.210 C 
BRANCH  19  23
ATOM     23  C   LIG    1       -2.835   5.871   6.592  0.00  0.00    -0.060 A 
ATOM     24  C   LIG    1       -3.942   6.131   7.378  0.00  0.00    +0.010 A 
ATOM     25  C   LIG    1       -3.908   5.860   8.733  0.00  0.00    +0.020 A 
ATOM     26  C   LIG    1       -2.762   5.338   9.304  0.00  0.00    +0.000 A 
ATOM     27  C   LIG    1       -1.653   5.083   8.520  0.00  0.00    +0.000 A 
ATOM     28  C   LIG    1       -1.689   5.350   7.164  0.00  0.00    +0.010 A 
ENDBRANCH  19  23
BRANCH  19  29
ATOM     29  C   LIG    1       -2.689   7.644   4.785  0.00  0.00    +0.210 C 
BRANCH  29  31
ATOM     30  C   LIG    1       -1.271   9.526   5.222  0.00  0.00    +0.200 C 
ATOM     31  O   LIG    1       -1.535   8.142   5.464  0.00  0.00    -0.380 OA
ENDBRANCH  29  31
ENDBRANCH  19  29
ENDBRANCH   1  21
TORSDOF 8
