REMARK  Name = ZINCrH000004ofxA.0
REMARK                            x       y       z     vdW  Elec       q    Type
REMARK                         _______ _______ _______ _____ _____    ______ ____
ROOT
ATOM      1  C   LIG    1       -5.633   1.798   2.361  0.00  0.00    +0.290 C 
ENDROOT
BRANCH   1   2
ATOM      2  N   LIG    1       -6.668   0.941   2.945  0.00  0.00    -0.730 N 
ATOM      3  H   LIG    1       -6.571  -0.024   2.918  0.00  0.00    +0.400 HD
ATOM      4  C   LIG    1       -7.755   1.493   3.520  0.00  0.00    +0.520 C 
ATOM      5  O   LIG    1       -7.876   2.699   3.553  0.00  0.00    -0.530 OA
BRANCH   4   6
ATOM      6  C   LIG    1       -8.819   0.611   4.120  0.00  0.00    -0.070 C 
ATOM      7  C   LIG    1       -8.206  -0.242   5.232  0.00  0.00    +0.040 C 
ATOM      8  C   LIG    1       -9.287  -1.137   5.842  0.00  0.00    -0.010 C 
ATOM      9  C   LIG    1       -9.865  -2.050   4.758  0.00  0.00    +0.020 C 
ATOM     10  C   LIG    1      -10.478  -1.196   3.647  0.00  0.00    -0.010 C 
ATOM     11  C   LIG    1      -11.593  -0.325   4.228  0.00  0.00    +0.010 C 
ATOM     12  C   LIG    1      -11.015   0.587   5.312  0.00  0.00    -0.020 C 
ATOM     13  C   LIG    1      -10.402  -0.267   6.424  0.00  0.00    +0.010 C 
ATOM     14  C   LIG    1       -9.397  -0.301   3.037  0.00  0.00    +0.040 C 
ATOM     15  C   LIG    1       -9.934   1.482   4.702  0.00  0.00    +0.050 C 
ENDBRANCH   4   6
ENDBRANCH   1   2
BRANCH   1  16
ATOM     16  C   LIG    1       -4.518   0.927   1.779  0.00  0.00    +0.050 C 
BRANCH  16  19
ATOM     17  N   LIG    1       -2.366   1.256   0.604  0.00  0.00    -0.730 N 
ATOM     18  H   LIG    1       -2.269   0.292   0.577  0.00  0.00    +0.400 HD
ATOM     19  C   LIG    1       -3.453   1.808   1.179  0.00  0.00    +0.520 C 
ATOM     20  O   LIG    1       -3.575   3.015   1.212  0.00  0.00    -0.530 OA
BRANCH  17  22
ATOM     21  C   LIG    1       -1.722   2.480  -1.413  0.00  0.00    +0.040 C 
ATOM     22  C   LIG    1       -1.332   2.114   0.020  0.00  0.00    +0.290 C 
BRANCH  22  23
ATOM     23  C   LIG    1       -0.017   1.377   0.010  0.00  0.00    -0.130 A 
ATOM     24  C   LIG    1        0.002  -0.004   0.002  0.00  0.00    +0.040 A 
ATOM     25  C   LIG    1        1.208  -0.680  -0.013  0.00  0.00    +0.010 A 
ATOM     26  C   LIG    1        2.397   0.026  -0.020  0.00  0.00    +0.050 A 
ATOM     27  C   LIG    1        2.381   1.408  -0.013  0.00  0.00    -0.010 A 
ATOM     28  C   LIG    1        1.173   2.086   0.002  0.00  0.00    +0.110 A 
ATOM     29  F   LIG    1        1.156   3.437   0.009  0.00  0.00    -0.130 F 
ENDBRANCH  22  23
ENDBRANCH  17  22
ENDBRANCH  16  19
ENDBRANCH   1  16
TORSDOF 6
