REMARK  Name = ZINCqH00000395HU.0
REMARK                            x       y       z     vdW  Elec       q    Type
REMARK                         _______ _______ _______ _____ _____    ______ ____
ROOT
ATOM      1  C   LIG    1        3.918   2.687  -1.464  0.00  0.00    +0.550 C 
ATOM      2  N   LIG    1        3.626   2.275  -0.214  0.00  0.00    -0.720 N 
ATOM      3  H   LIG    1        4.128   2.621   0.540  0.00  0.00    +0.410 HD
ATOM      4  O   LIG    1        3.344   2.197  -2.413  0.00  0.00    -0.520 OA
ENDROOT
BRANCH   2   5
ATOM      5  C   LIG    1        2.550   1.306   0.005  0.00  0.00    +0.300 C 
ATOM      6  C   LIG    1        2.799   0.549   1.309  0.00  0.00    +0.020 C 
ATOM      7  C   LIG    1        2.086  -0.795   1.301  0.00  0.00    +0.020 C 
ATOM      8  C   LIG    1        0.577  -0.677   1.332  0.00  0.00    +0.230 C 
ATOM      9  O   LIG    1        0.089  -0.058   0.136  0.00  0.00    -0.310 OA
ATOM     10  C   LIG    1        0.054   1.302   0.150  0.00  0.00    +0.070 A 
ATOM     11  C   LIG    1       -1.170   1.961   0.210  0.00  0.00    +0.090 A 
ATOM     12  C   LIG    1       -1.202   3.344   0.241  0.00  0.00    +0.000 A 
ATOM     13  C   LIG    1       -0.025   4.069   0.217  0.00  0.00    +0.040 A 
ATOM     14  C   LIG    1        1.192   3.412   0.152  0.00  0.00    +0.020 A 
ATOM     15  F   LIG    1       -2.321   1.254   0.237  0.00  0.00    -0.130 F 
ATOM     16  C   LIG    1        1.223   2.033   0.110  0.00  0.00    -0.100 A 
ENDBRANCH   2   5
BRANCH   1  17
ATOM     17  C   LIG    1        4.959   3.754  -1.682  0.00  0.00    -0.130 C 
ATOM     18  C   LIG    1        6.019   3.499  -2.755  0.00  0.00    +0.090 C 
ATOM     19  C   LIG    1        6.398   3.432  -1.274  0.00  0.00    +0.060 C 
BRANCH  17  24
ATOM     20  C   LIG    1        2.737   6.817  -1.601  0.00  0.00    -0.020 A 
ATOM     21  C   LIG    1        3.630   7.789  -1.146  0.00  0.00    +0.070 A 
ATOM     22  C   LIG    1        4.937   7.445  -0.871  0.00  0.00    +0.030 A 
ATOM     23  C   LIG    1        5.364   6.141  -1.044  0.00  0.00    +0.050 A 
ATOM     24  C   LIG    1        4.485   5.172  -1.495  0.00  0.00    -0.040 A 
ATOM     25  C   LIG    1        3.176   5.503  -1.780  0.00  0.00    +0.060 A 
BRANCH  20  27
ATOM     26  N   LIG    1        0.300   7.443  -2.118  0.00  0.00    -0.400 NA
ATOM     27  C   LIG    1        1.378   7.166  -1.889  0.00  0.00    +0.250 C 
ENDBRANCH  20  27
ENDBRANCH  17  24
ENDBRANCH   1  17
TORSDOF 4
