REMARK  Name = ZINCpe000000YBn7.0
REMARK                            x       y       z     vdW  Elec       q    Type
REMARK                         _______ _______ _______ _____ _____    ______ ____
ROOT
ATOM      1  C   LIG    1       -3.636   2.466   0.033  0.00  0.00    +0.210 C 
ATOM      2  C   LIG    1       -2.656   1.276   0.016  0.00  0.00    +0.130 C 
ATOM      3  C   LIG    1       -1.291   1.927   0.019  0.00  0.00    +0.020 C 
ATOM      4  N   LIG    1       -1.428   3.214   0.026  0.00  0.00    -0.160 NA
ATOM      5  N   LIG    1       -2.753   3.643   0.035  0.00  0.00    -0.440 N 
ENDROOT
BRANCH   5   6
ATOM      6  C   LIG    1       -3.176   4.974   0.044  0.00  0.00    +0.220 A 
ATOM      7  C   LIG    1       -4.532   5.274   0.047  0.00  0.00    -0.050 A 
ATOM      8  C   LIG    1       -4.947   6.591   0.062  0.00  0.00    +0.050 A 
ATOM      9  C   LIG    1       -4.013   7.611   0.063  0.00  0.00    -0.030 A 
ATOM     10  C   LIG    1       -2.661   7.316   0.054  0.00  0.00    +0.050 A 
ATOM     11  C   LIG    1       -2.240   6.002   0.045  0.00  0.00    -0.020 A 
ENDBRANCH   5   6
BRANCH   1  15
ATOM     12  N   LIG    1       -5.604   1.686   1.313  0.00  0.00    -0.850 N 
ATOM     13  H   LIG    1       -6.151   1.669   2.114  0.00  0.00    +0.410 HD
ATOM     14  H   LIG    1       -5.859   1.160   0.539  0.00  0.00    +0.400 HD
ATOM     15  C   LIG    1       -4.487   2.440   1.276  0.00  0.00    +0.510 C 
ATOM     16  O   LIG    1       -4.167   3.098   2.244  0.00  0.00    -0.510 OA
ENDBRANCH   1  15
BRANCH   3  17
ATOM     17  C   LIG    1       -0.014   1.213   0.009  0.00  0.00    +0.600 C 
ATOM     18  N   LIG    1        1.143   1.903   0.001  0.00  0.00    -0.710 N 
ATOM     19  H   LIG    1        1.130   2.873   0.007  0.00  0.00    +0.410 HD
ATOM     20  O   LIG    1        0.002  -0.004   0.002  0.00  0.00    -0.520 OA
BRANCH  18  21
ATOM     21  C   LIG    1        2.422   1.188  -0.015  0.00  0.00    +0.280 C 
BRANCH  21  22
ATOM     22  C   LIG    1        3.571   2.197  -0.020  0.00  0.00    +0.080 C 
BRANCH  22  23
ATOM     23  C   LIG    1        4.886   1.462  -0.037  0.00  0.00    -0.140 A 
ATOM     24  C   LIG    1        5.513   1.118   1.151  0.00  0.00    +0.070 A 
ATOM     25  C   LIG    1        6.719   0.436   1.087  0.00  0.00    -0.030 A 
ATOM     26  C   LIG    1        7.258   0.136  -0.149  0.00  0.00    +0.260 A 
ATOM     27  N   LIG    1        6.636   0.483  -1.259  0.00  0.00    -0.480 NA
ATOM     28  C   LIG    1        5.486   1.127  -1.236  0.00  0.00    +0.270 A 
ENDBRANCH  22  23
ENDBRANCH  21  22
ENDBRANCH  18  21
ENDBRANCH   3  17
TORSDOF 6
