REMARK  Name = ZINCuk00000003Db.0
REMARK                            x       y       z     vdW  Elec       q    Type
REMARK                         _______ _______ _______ _____ _____    ______ ____
ROOT
ATOM      1  N   LIG    1        0.848   4.809  -1.967  0.00  0.00    -0.700 N 
ATOM      2  H   LIG    1        0.052   4.964  -2.498  0.00  0.00    +0.420 HD
ATOM      3  C   LIG    1        1.927   4.226  -2.524  0.00  0.00    +0.510 C 
ATOM      4  O   LIG    1        2.924   4.032  -1.859  0.00  0.00    -0.510 OA
ENDROOT
BRANCH   3   5
ATOM      5  C   LIG    1        1.897   3.817  -3.962  0.00  0.00    +0.510 C 
ATOM      6  N   LIG    1        2.976   3.233  -4.519  0.00  0.00    -0.710 N 
ATOM      7  H   LIG    1        3.773   3.078  -3.988  0.00  0.00    +0.420 HD
ATOM      8  O   LIG    1        0.900   4.010  -4.626  0.00  0.00    -0.500 OA
BRANCH   6   9
ATOM      9  C   LIG    1        2.946   2.832  -5.928  0.00  0.00    +0.300 C 
BRANCH   9  10
ATOM     10  C   LIG    1        4.287   2.199  -6.307  0.00  0.00    +0.030 C 
BRANCH  10  11
ATOM     11  C   LIG    1        4.255   1.780  -7.778  0.00  0.00    +0.270 C 
BRANCH  11  12
ATOM     12  N   LIG    1        5.542   1.173  -8.142  0.00  0.00    -0.390 N 
ATOM     13  C   LIG    1        6.605   2.183  -8.047  0.00  0.00    +0.320 C 
ATOM     14  H   LIG    1        5.745   0.411  -7.511  0.00  0.00    +0.430 HD
BRANCH  12  15
ATOM     15  C   LIG    1        5.472   0.663  -9.518  0.00  0.00    +0.270 C 
BRANCH  15  16
ATOM     16  C   LIG    1        6.767  -0.080  -9.854  0.00  0.00    +0.030 C 
BRANCH  16  17
ATOM     17  C   LIG    1        6.693  -0.610 -11.287  0.00  0.00    +0.300 C 
BRANCH  17  18
ATOM     18  N   LIG    1        7.936  -1.323 -11.609  0.00  0.00    -0.640 N 
ATOM     19  H   LIG    1        8.057  -2.095 -10.970  0.00  0.00    +0.440 HD
ATOM     20  H   LIG    1        8.718  -0.691 -11.524  0.00  0.00    +0.440 HD
ATOM     21  H   LIG    1        7.888  -1.673 -12.554  0.00  0.00    +0.450 HD
ENDBRANCH  17  18
ENDBRANCH  16  17
ENDBRANCH  15  16
ENDBRANCH  12  15
ENDBRANCH  11  12
ENDBRANCH  10  11
ENDBRANCH   9  10
ENDBRANCH   6   9
ENDBRANCH   3   5
BRANCH   1  22
ATOM     22  C   LIG    1        0.878   5.210  -0.558  0.00  0.00    +0.320 C 
BRANCH  22  28
ATOM     23  C   LIG    1       -1.530   5.030   0.103  0.00  0.00    -0.140 A 
ATOM     24  C   LIG    1       -2.739   5.601   0.451  0.00  0.00    +0.050 A 
ATOM     25  C   LIG    1       -2.862   6.977   0.505  0.00  0.00    +0.040 A 
ATOM     26  C   LIG    1       -1.777   7.781   0.212  0.00  0.00    +0.060 A 
ATOM     27  C   LIG    1       -0.567   7.209  -0.135  0.00  0.00    +0.050 A 
ATOM     28  C   LIG    1       -0.442   5.834  -0.185  0.00  0.00    -0.100 A 
BRANCH  23  29
ATOM     29  C   LIG    1       -1.395   3.530   0.043  0.00  0.00    +0.300 C 
BRANCH  29  36
ATOM     30  C   LIG    1       -0.013   1.086   0.008  0.00  0.00    +0.090 C 
ATOM     31  C   LIG    1       -0.729   1.579   1.267  0.00  0.00    +0.170 C 
ATOM     32  C   LIG    1        0.012   1.072   2.506  0.00  0.00    +0.060 C 
ATOM     33  C   LIG    1       -0.709   1.568   3.763  0.00  0.00    +0.040 C 
ATOM     34  C   LIG    1       -0.792   3.097   3.722  0.00  0.00    +0.060 C 
ATOM     35  C   LIG    1       -1.503   3.529   2.438  0.00  0.00    +0.250 C 
ATOM     36  N   LIG    1       -0.752   3.047   1.272  0.00  0.00    -0.380 N 
ATOM     37  H   LIG    1        0.194   3.397   1.315  0.00  0.00    +0.410 HD
ENDBRANCH  29  36
ENDBRANCH  23  29
ENDBRANCH  22  28
ENDBRANCH   1  22
TORSDOF 13
