REMARK  Name = ZINCrD0000074pbH.0
REMARK                            x       y       z     vdW  Elec       q    Type
REMARK                         _______ _______ _______ _____ _____    ______ ____
ROOT
ATOM      1  C   LIG    1       -1.733   2.295   1.444  0.00  0.00    +0.420 C 
ATOM      2  O   LIG    1       -1.038   1.909   2.361  0.00  0.00    -0.460 OA
ENDROOT
BRANCH   1   6
ATOM      3  C   LIG    1       -6.165   4.737   0.854  0.00  0.00    +0.120 C 
ATOM      4  C   LIG    1       -4.950   4.067   1.442  0.00  0.00    +0.010 A 
ATOM      5  C   LIG    1       -3.948   3.516   0.738  0.00  0.00    +0.000 A 
ATOM      6  C   LIG    1       -2.993   2.988   1.721  0.00  0.00    -0.280 A 
ATOM      7  C   LIG    1       -3.530   3.274   2.962  0.00  0.00    +0.140 A 
ATOM      8  C   LIG    1       -2.917   2.925   4.293  0.00  0.00    +0.160 C 
ATOM      9  N   LIG    1       -4.694   3.922   2.775  0.00  0.00    -0.430 N 
BRANCH   9  10
ATOM     10  C   LIG    1       -5.566   4.400   3.850  0.00  0.00    +0.310 C 
BRANCH  10  11
ATOM     11  C   LIG    1       -6.566   3.303   4.221  0.00  0.00    +0.140 C 
ATOM     12  C   LIG    1       -7.577   3.826   5.266  0.00  0.00    +0.010 C 
ATOM     13  C   LIG    1       -7.816   2.616   6.196  0.00  0.00    +0.010 C 
ATOM     14  C   LIG    1       -6.922   1.505   5.604  0.00  0.00    +0.200 C 
ATOM     15  O   LIG    1       -5.890   2.208   4.878  0.00  0.00    -0.360 OA
ENDBRANCH  10  11
ENDBRANCH   9  10
ENDBRANCH   1   6
BRANCH   1  16
ATOM     16  C   LIG    1       -1.300   2.060   0.019  0.00  0.00    +0.320 C 
BRANCH  16  17
ATOM     17  N   LIG    1       -0.016   1.353   0.009  0.00  0.00    -0.480 N 
ATOM     18  C   LIG    1        0.002  -0.004   0.002  0.00  0.00    +0.380 A 
ATOM     19  C   LIG    1        1.175  -0.679  -0.013  0.00  0.00    -0.290 A 
ATOM     20  C   LIG    1        2.388   0.025  -0.021  0.00  0.00    +0.160 A 
ATOM     21  C   LIG    1        2.367   1.388  -0.013  0.00  0.00    -0.070 A 
ATOM     22  C   LIG    1        1.131   2.058   0.002  0.00  0.00    +0.520 A 
ATOM     23  O   LIG    1        1.099   3.278   0.009  0.00  0.00    -0.530 OA
BRANCH  19  24
ATOM     24  C   LIG    1        1.178  -2.186  -0.021  0.00  0.00    +0.530 C 
ATOM     25  F   LIG    1       -0.011  -2.658   0.545  0.00  0.00    -0.180 F 
ATOM     26  F   LIG    1        2.266  -2.655   0.722  0.00  0.00    -0.170 F 
ATOM     27  F   LIG    1        1.280  -2.645  -1.339  0.00  0.00    -0.170 F 
ENDBRANCH  19  24
ENDBRANCH  16  17
ENDBRANCH   1  16
TORSDOF 6
