REMARK  Name = ZINCpk00000y1zoj.0
REMARK                            x       y       z     vdW  Elec       q    Type
REMARK                         _______ _______ _______ _____ _____    ______ ____
ROOT
ATOM      1  S   LIG    1       -4.125   2.310   0.180  0.00  0.00    +2.530 S 
ATOM      2  O   LIG    1       -4.151   2.941  -1.093  0.00  0.00    -0.910 OA
ATOM      3  O   LIG    1       -4.402   3.042   1.366  0.00  0.00    -0.910 OA
ENDROOT
BRANCH   1   9
ATOM      4  C   LIG    1       -7.469  -0.654  -2.531  0.00  0.00    +0.090 C 
ATOM      5  C   LIG    1       -6.926  -0.222  -1.194  0.00  0.00    -0.110 A 
ATOM      6  C   LIG    1       -7.439  -0.766  -0.031  0.00  0.00    +0.080 A 
ATOM      7  C   LIG    1       -6.941  -0.370   1.196  0.00  0.00    -0.110 A 
ATOM      8  C   LIG    1       -5.929   0.570   1.261  0.00  0.00    +0.010 A 
ATOM      9  C   LIG    1       -5.415   1.113   0.098  0.00  0.00    -0.670 A 
ATOM     10  C   LIG    1       -5.386   1.002   2.598  0.00  0.00    +0.110 C 
ATOM     11  C   LIG    1       -7.502  -0.962   2.463  0.00  0.00    +0.090 C 
ATOM     12  C   LIG    1       -5.917   0.721  -1.129  0.00  0.00    +0.020 A 
ATOM     13  C   LIG    1       -5.361   1.317  -2.396  0.00  0.00    +0.110 C 
ENDBRANCH   1   9
BRANCH   1  14
ATOM     14  C   LIG    1       -2.610   1.331   0.375  0.00  0.00    -0.320 C 
BRANCH  14  15
ATOM     15  C   LIG    1       -1.423   2.255   0.458  0.00  0.00    +0.550 C 
ATOM     16  N   LIG    1       -0.183   1.747   0.606  0.00  0.00    -0.710 N 
ATOM     17  H   LIG    1       -0.055   0.787   0.658  0.00  0.00    +0.420 HD
ATOM     18  O   LIG    1       -1.582   3.455   0.393  0.00  0.00    -0.530 OA
BRANCH  16  19
ATOM     19  C   LIG    1        0.972   2.645   0.681  0.00  0.00    +0.320 C 
BRANCH  19  20
ATOM     20  C   LIG    1        2.231   1.831   0.837  0.00  0.00    +0.530 C 
ATOM     21  N   LIG    1        3.426   2.449   0.927  0.00  0.00    -0.610 N 
ATOM     22  C   LIG    1        3.645   3.902   0.881  0.00  0.00    +0.250 C 
ATOM     23  C   LIG    1        5.165   4.140   0.997  0.00  0.00    +0.040 C 
ATOM     24  C   LIG    1        5.763   2.789   0.524  0.00  0.00    +0.030 C 
ATOM     25  C   LIG    1        4.730   1.779   1.082  0.00  0.00    +0.250 C 
ATOM     26  O   LIG    1        2.170   0.621   0.882  0.00  0.00    -0.540 OA
ENDBRANCH  19  20
ENDBRANCH  16  19
ENDBRANCH  14  15
ENDBRANCH   1  14
TORSDOF 5
