REMARK  Name = ZINCtV000002LRSI.0
REMARK                            x       y       z     vdW  Elec       q    Type
REMARK                         _______ _______ _______ _____ _____    ______ ____
ROOT
ATOM      1  O   LIG    1        3.160   6.235  -0.285  0.00  0.00    -0.450 OA
ATOM      2  C   LIG    1        2.245   5.464  -0.086  0.00  0.00    +0.520 C 
ATOM      3  N   LIG    1        2.503   4.186   0.255  0.00  0.00    -0.480 N 
ENDROOT
BRANCH   3   4
ATOM      4  C   LIG    1        3.811   3.724   0.273  0.00  0.00    +0.330 A 
ATOM      5  N   LIG    1        4.853   4.457   0.084  0.00  0.00    -0.460 NA
ATOM      6  C   LIG    1        6.061   3.863   0.137  0.00  0.00    +0.110 A 
ATOM      7  C   LIG    1        7.337   4.440  -0.030  0.00  0.00    +0.070 A 
ATOM      8  C   LIG    1        8.466   3.665   0.052  0.00  0.00    +0.040 A 
ATOM      9  C   LIG    1        8.372   2.304   0.301  0.00  0.00    +0.040 A 
ATOM     10  C   LIG    1        7.137   1.719   0.468  0.00  0.00    +0.060 A 
ATOM     11  C   LIG    1        5.980   2.489   0.388  0.00  0.00    -0.180 A 
ATOM     12  S   LIG    1        4.281   2.053   0.550  0.00  0.00    +0.070 S 
ENDBRANCH   3   4
BRANCH   3  13
ATOM     13  C   LIG    1        1.450   3.323   0.592  0.00  0.00    +0.110 A 
ATOM     14  C   LIG    1        0.543   2.922  -0.380  0.00  0.00    +0.050 A 
ATOM     15  C   LIG    1       -0.493   2.072  -0.048  0.00  0.00    +0.020 A 
ATOM     16  C   LIG    1       -0.632   1.624   1.257  0.00  0.00    +0.100 A 
ATOM     17  C   LIG    1        0.277   2.021   2.228  0.00  0.00    +0.040 A 
ATOM     18  C   LIG    1        1.314   2.870   1.897  0.00  0.00    +0.050 A 
BRANCH  16  19
ATOM     19  O   LIG    1       -1.656   0.792   1.585  0.00  0.00    -0.260 OA
BRANCH  19  20
ATOM     20  C   LIG    1       -1.548  -0.518   1.241  0.00  0.00    +0.120 A 
ATOM     21  C   LIG    1       -0.369  -0.996   0.685  0.00  0.00    -0.060 A 
ATOM     22  C   LIG    1       -0.260  -2.329   0.341  0.00  0.00    +0.050 A 
ATOM     23  C   LIG    1       -1.327  -3.186   0.542  0.00  0.00    -0.020 A 
ATOM     24  C   LIG    1       -2.504  -2.711   1.091  0.00  0.00    +0.050 A 
ATOM     25  C   LIG    1       -2.617  -1.380   1.441  0.00  0.00    -0.010 A 
ENDBRANCH  19  20
ENDBRANCH  16  19
ENDBRANCH   3  13
BRANCH   2  26
ATOM     26  C   LIG    1        0.820   5.934  -0.221  0.00  0.00    -0.010 C 
ATOM     27  C   LIG    1        0.232   5.724  -1.626  0.00  0.00    +0.040 C 
ATOM     28  C   LIG    1       -0.434   7.103  -1.466  0.00  0.00    +0.030 C 
ATOM     29  C   LIG    1        0.692   7.446  -0.476  0.00  0.00    +0.060 C 
ENDBRANCH   2  26
TORSDOF 5
