REMARK  Name = ZINCrD000001YLC6.0
REMARK                            x       y       z     vdW  Elec       q    Type
REMARK                         _______ _______ _______ _____ _____    ______ ____
ROOT
ATOM      1  C   LIG    1       -6.665   5.435   0.063  0.00  0.00    +0.560 C 
ATOM      2  N   LIG    1       -7.276   5.754  -1.095  0.00  0.00    -0.610 N 
ATOM      3  C   LIG    1       -6.606   5.542  -2.388  0.00  0.00    +0.250 C 
ATOM      4  C   LIG    1       -6.691   6.835  -3.199  0.00  0.00    +0.220 C 
ATOM      5  O   LIG    1       -8.051   7.272  -3.252  0.00  0.00    -0.370 OA
ATOM      6  C   LIG    1       -8.614   7.590  -1.976  0.00  0.00    +0.200 C 
ATOM      7  C   LIG    1       -8.630   6.330  -1.103  0.00  0.00    +0.280 C 
ATOM      8  O   LIG    1       -7.258   5.557   1.117  0.00  0.00    -0.520 OA
ENDROOT
BRANCH   6   9
ATOM      9  C   LIG    1      -10.022   8.094  -2.159  0.00  0.00    -0.080 A 
ATOM     10  C   LIG    1      -10.851   7.505  -3.095  0.00  0.00    +0.060 A 
ATOM     11  C   LIG    1      -12.144   7.963  -3.260  0.00  0.00    +0.030 A 
ATOM     12  C   LIG    1      -12.606   9.020  -2.495  0.00  0.00    -0.030 A 
ATOM     13  C   LIG    1      -11.774   9.613  -1.562  0.00  0.00    +0.030 A 
ATOM     14 CL   LIG    1      -14.228   9.601  -2.707  0.00  0.00    -0.070 Cl
ATOM     15  C   LIG    1      -10.483   9.149  -1.394  0.00  0.00    +0.040 A 
ENDBRANCH   6   9
BRANCH   1  19
ATOM     16  C   LIG    1       -2.666   4.002   0.029  0.00  0.00    -0.090 A 
ATOM     17  C   LIG    1       -3.029   5.010   0.904  0.00  0.00    +0.030 A 
ATOM     18  C   LIG    1       -4.325   5.484   0.917  0.00  0.00    +0.060 A 
ATOM     19  C   LIG    1       -5.273   4.936   0.052  0.00  0.00    -0.120 A 
ATOM     20  C   LIG    1       -4.902   3.915  -0.825  0.00  0.00    +0.040 A 
ATOM     21  C   LIG    1       -3.601   3.454  -0.831  0.00  0.00    +0.030 A 
BRANCH  16  22
ATOM     22  C   LIG    1       -1.248   3.493   0.018  0.00  0.00    +0.320 C 
BRANCH  22  24
ATOM     23  C   LIG    1        0.847   3.989  -1.123  0.00  0.00    +0.540 C 
ATOM     24  N   LIG    1       -0.459   4.269  -0.943  0.00  0.00    -0.720 N 
ATOM     25  H   LIG    1       -0.876   4.983  -1.448  0.00  0.00    +0.400 HD
ATOM     26  O   LIG    1        1.372   3.096  -0.486  0.00  0.00    -0.540 OA
BRANCH  23  28
ATOM     27  C   LIG    1        2.929   4.495  -2.262  0.00  0.00    +0.150 C 
ATOM     28  C   LIG    1        1.639   4.768  -2.088  0.00  0.00    -0.090 C 
ENDBRANCH  23  28
ENDBRANCH  22  24
ENDBRANCH  16  22
ENDBRANCH   1  19
TORSDOF 5
