REMARK  Name = ZINCpk00000y6wtB.0
REMARK                            x       y       z     vdW  Elec       q    Type
REMARK                         _______ _______ _______ _____ _____    ______ ____
ROOT
ATOM      1  C   LIG    1       -3.750   3.900   0.058  0.00  0.00    +0.600 C 
ATOM      2  N   LIG    1       -4.611   4.930   0.173  0.00  0.00    -0.600 N 
ATOM      3  C   LIG    1       -4.123   6.316   0.184  0.00  0.00    +0.260 C 
ATOM      4  C   LIG    1       -4.875   7.107  -0.897  0.00  0.00    +0.030 C 
ATOM      5  C   LIG    1       -6.382   6.970  -0.666  0.00  0.00    +0.060 C 
ATOM      6  C   LIG    1       -6.785   5.497  -0.779  0.00  0.00    +0.110 C 
ATOM      7  C   LIG    1       -6.055   4.689   0.298  0.00  0.00    +0.260 C 
ATOM      8  O   LIG    1       -4.171   2.764  -0.046  0.00  0.00    -0.530 OA
ENDROOT
BRANCH   1  12
ATOM      9  C   LIG    1        0.725   5.803   1.205  0.00  0.00    +0.330 C 
ATOM     10  N   LIG    1       -0.303   4.986   0.555  0.00  0.00    -0.470 N 
ATOM     11  C   LIG    1       -1.626   5.037   0.840  0.00  0.00    +0.280 A 
ATOM     12  C   LIG    1       -2.302   4.150   0.056  0.00  0.00    -0.220 A 
ATOM     13  C   LIG    1       -1.294   3.489  -0.792  0.00  0.00    -0.060 A 
ATOM     14  C   LIG    1       -1.352   2.513  -1.783  0.00  0.00    +0.060 A 
ATOM     15  C   LIG    1       -0.193   2.097  -2.401  0.00  0.00    -0.010 A 
ATOM     16  C   LIG    1        1.027   2.655  -2.048  0.00  0.00    +0.030 A 
ATOM     17  C   LIG    1        1.099   3.627  -1.073  0.00  0.00    -0.010 A 
ATOM     18  C   LIG    1       -0.059   4.055  -0.434  0.00  0.00    +0.090 A 
ENDBRANCH   1  12
BRANCH   6  19
ATOM     19  O   LIG    1       -6.427   5.003  -2.071  0.00  0.00    -0.540 OA
ATOM     20  H   LIG    1       -6.652   4.073  -2.213  0.00  0.00    +0.390 HD
ENDBRANCH   6  19
BRANCH   6  21
ATOM     21  C   LIG    1       -8.296   5.365  -0.581  0.00  0.00    +0.320 C 
BRANCH  21  22
ATOM     22  N   LIG    1       -8.664   3.947  -0.567  0.00  0.00    -0.290 N 
ATOM     23  C   LIG    1       -9.348   3.316   0.416  0.00  0.00    +0.140 A 
ATOM     24  C   LIG    1       -9.466   2.026   0.023  0.00  0.00    +0.140 A 
ATOM     25  N   LIG    1       -8.858   1.932  -1.164  0.00  0.00    -0.260 NA
ATOM     26  N   LIG    1       -8.398   3.089  -1.488  0.00  0.00    -0.090 NA
ENDBRANCH  21  22
ENDBRANCH   6  21
TORSDOF 4
