REMARK  Name = ZINCvU0000000GAs.0
REMARK                            x       y       z     vdW  Elec       q    Type
REMARK                         _______ _______ _______ _____ _____    ______ ____
ROOT
ATOM      1  C   LIG    1       -4.835  -0.549   0.021  0.00  0.00    +0.010 A 
ATOM      2  C   LIG    1       -4.854   0.849   0.029  0.00  0.00    +0.080 A 
ATOM      3  C   LIG    1       -3.676   1.551   0.028  0.00  0.00    +0.100 A 
ATOM      4  C   LIG    1       -2.456   0.868   0.018  0.00  0.00    -0.110 A 
ATOM      5  C   LIG    1       -2.437  -0.529   0.005  0.00  0.00    +0.050 A 
ATOM      6  C   LIG    1       -3.615  -1.231   0.012  0.00  0.00    +0.050 A 
ENDROOT
BRANCH   1  10
ATOM      7  C   LIG    1       -7.556  -2.901   0.019  0.00  0.00    +0.220 A 
ATOM      8  N   LIG    1       -8.180  -1.743   0.029  0.00  0.00    -0.270 NA
ATOM      9  N   LIG    1       -7.313  -0.792   0.036  0.00  0.00    -0.260 NA
ATOM     10  C   LIG    1       -6.103  -1.304   0.022  0.00  0.00    +0.200 A 
ATOM     11  O   LIG    1       -6.232  -2.647   0.015  0.00  0.00    -0.210 OA
BRANCH   7  17
ATOM     12  C   LIG    1      -11.669  -5.726   0.021  0.00  0.00    +0.100 C 
ATOM     13  C   LIG    1      -10.167  -5.599   0.015  0.00  0.00    -0.080 A 
ATOM     14  C   LIG    1       -9.379  -6.736   0.004  0.00  0.00    +0.040 A 
ATOM     15  C   LIG    1       -7.999  -6.629  -0.001  0.00  0.00    +0.020 A 
ATOM     16  C   LIG    1       -7.401  -5.387  -0.002  0.00  0.00    +0.040 A 
ATOM     17  C   LIG    1       -8.190  -4.235   0.015  0.00  0.00    -0.030 A 
ATOM     18  C   LIG    1       -9.582  -4.350   0.020  0.00  0.00    +0.070 A 
ENDBRANCH   7  17
ENDBRANCH   1  10
BRANCH   4  19
ATOM     19  C   LIG    1       -1.187   1.624   0.017  0.00  0.00    +0.550 C 
ATOM     20  N   LIG    1       -0.011   0.966   0.007  0.00  0.00    -0.620 N 
ATOM     21  H   LIG    1        0.002  -0.004   0.002  0.00  0.00    +0.430 HD
ATOM     22  O   LIG    1       -1.204   2.840   0.023  0.00  0.00    -0.450 OA
BRANCH  20  23
ATOM     23  C   LIG    1        1.182   1.676  -0.000  0.00  0.00    +0.250 A 
ATOM     24  N   LIG    1        1.302   2.974  -0.000  0.00  0.00    -0.250 NA
ATOM     25  N   LIG    1        2.467   3.455  -0.003  0.00  0.00    -0.210 NA
ATOM     26  C   LIG    1        3.469   2.617  -0.017  0.00  0.00    +0.090 A 
ATOM     27  S   LIG    1        2.804   0.982  -0.019  0.00  0.00    +0.110 S 
BRANCH  26  28
ATOM     28  C   LIG    1        4.896   2.973  -0.029  0.00  0.00    +0.030 A 
ATOM     29  C   LIG    1        5.406   4.236  -0.032  0.00  0.00    +0.040 A 
ATOM     30  C   LIG    1        6.808   4.107  -0.041  0.00  0.00    -0.050 A 
ATOM     31  C   LIG    1        7.084   2.788  -0.051  0.00  0.00    +0.220 A 
ATOM     32  O   LIG    1        5.927   2.105  -0.044  0.00  0.00    -0.170 OA
ENDBRANCH  26  28
ENDBRANCH  20  23
ENDBRANCH   4  19
TORSDOF 5
