REMARK  Name = ZINCnE00000rhmjJ.0
REMARK                            x       y       z     vdW  Elec       q    Type
REMARK                         _______ _______ _______ _____ _____    ______ ____
ROOT
ATOM      1  C   LIG    1       -0.090   4.055  -0.753  0.00  0.00    -0.080 A 
ATOM      2  C   LIG    1        1.129   3.413  -0.517  0.00  0.00    +0.080 A 
ATOM      3  C   LIG    1        1.155   2.059  -0.266  0.00  0.00    -0.020 A 
ATOM      4  C   LIG    1       -0.028   1.331  -0.246  0.00  0.00    +0.120 A 
ATOM      5  C   LIG    1       -1.242   1.964  -0.484  0.00  0.00    -0.080 A 
ATOM      6  C   LIG    1       -1.279   3.318  -0.731  0.00  0.00    +0.060 A 
ENDROOT
BRANCH   1   8
ATOM      7  C   LIG    1       -1.299   6.118  -1.248  0.00  0.00    +0.050 C 
ATOM      8  C   LIG    1       -0.123   5.502  -1.022  0.00  0.00    +0.070 C 
BRANCH   7  13
ATOM      9  C   LIG    1       -2.397  11.295  -2.305  0.00  0.00    +0.160 C 
ATOM     10  C   LIG    1       -1.852   9.923  -2.000  0.00  0.00    -0.190 A 
ATOM     11  CA  LIG    1       -0.535   9.617  -1.818  0.00  0.00    +0.000 A 
ATOM     12  N   LIG    1       -0.290   8.339  -1.560  0.00  0.00    -0.400 NA
ATOM     13  C   LIG    1       -1.332   7.560  -1.516  0.00  0.00    +0.050 A 
ATOM     14  S   LIG    1       -2.785   8.499  -1.836  0.00  0.00    +0.070 S 
BRANCH  11  15
ATOM     15  C   LIG    1        0.531  10.624  -1.900  0.00  0.00    +0.550 C 
ATOM     16  OXT LIG    1        0.252  11.792  -2.141  0.00  0.00    -0.680 OA
ATOM     17  O   LIG    1        1.698  10.297  -1.728  0.00  0.00    -0.660 OA
ENDBRANCH  11  15
ENDBRANCH   7  13
ENDBRANCH   1   8
BRANCH   4  18
ATOM     18  O   LIG    1        0.002  -0.004   0.002  0.00  0.00    -0.300 OA
BRANCH  18  19
ATOM     19  C   LIG    1       -1.256  -0.671   0.121  0.00  0.00    +0.140 C 
ATOM     20  C   LIG    1       -1.085  -2.023   0.854  0.00  0.00    +0.030 C 
ATOM     21  C   LIG    1       -2.026  -2.952   0.045  0.00  0.00    +0.220 C 
ATOM     22  O   LIG    1       -1.863  -2.495  -1.314  0.00  0.00    -0.370 OA
ATOM     23  C   LIG    1       -1.795  -1.060  -1.269  0.00  0.00    +0.190 C 
ENDBRANCH  18  19
ENDBRANCH   4  18
TORSDOF 5
