REMARK  Name = ZINCrH00000No4t5.0
REMARK                            x       y       z     vdW  Elec       q    Type
REMARK                         _______ _______ _______ _____ _____    ______ ____
ROOT
ATOM      1  C   LIG    1        0.903   1.804   0.730  0.00  0.00    -0.220 A 
ATOM      2  C   LIG    1       -0.256   1.020   0.720  0.00  0.00    +0.090 A 
ATOM      3  C   LIG    1       -0.153  -0.341   0.556  0.00  0.00    -0.010 A 
ATOM      4  C   LIG    1        1.088  -0.951   0.396  0.00  0.00    -0.050 A 
ATOM      5  C   LIG    1        1.113  -2.451   0.235  0.00  0.00    +0.330 C 
ATOM      6  N   LIG    1        2.452  -2.882  -0.178  0.00  0.00    -0.610 N 
ATOM      7  C   LIG    1        3.600  -2.283   0.522  0.00  0.00    +0.290 C 
ATOM      8  C   LIG    1        3.608  -0.786   0.213  0.00  0.00    +0.090 C 
ATOM      9  C   LIG    1        2.625  -3.790  -1.159  0.00  0.00    +0.550 C 
ATOM     10  O   LIG    1        3.744  -4.129  -1.481  0.00  0.00    -0.530 OA
ATOM     11  C   LIG    1        2.236  -0.193   0.398  0.00  0.00    -0.110 A 
ATOM     12  C   LIG    1        2.151   1.188   0.569  0.00  0.00    +0.170 A 
ENDROOT
BRANCH   9  13
ATOM     13  C   LIG    1        1.428  -4.384  -1.856  0.00  0.00    -0.050 C 
ATOM     14  C   LIG    1        1.687  -5.462  -2.912  0.00  0.00    +0.110 C 
ATOM     15  C   LIG    1        1.245  -4.066  -3.335  0.00  0.00    -0.060 C 
ATOM     16  C   LIG    1        2.205  -3.115  -4.069  0.00  0.00    +0.080 C 
ATOM     17  C   LIG    1        1.262  -1.974  -4.508  0.00  0.00    +0.080 C 
ATOM     18  C   LIG    1       -0.110  -2.606  -4.605  0.00  0.00    -0.080 A 
ATOM     19  C   LIG    1       -1.260  -2.162  -5.235  0.00  0.00    +0.050 A 
ATOM     20  C   LIG    1       -2.417  -2.917  -5.188  0.00  0.00    -0.090 A 
ATOM     21  C   LIG    1       -2.425  -4.122  -4.509  0.00  0.00    +0.050 A 
ATOM     22  C   LIG    1       -1.279  -4.568  -3.881  0.00  0.00    +0.030 A 
ATOM     23 BR   LIG    1       -3.984  -2.303  -6.049  0.00  0.00    -0.040 Br
ATOM     24  C   LIG    1       -0.119  -3.813  -3.926  0.00  0.00    -0.050 A 
ENDBRANCH   9  13
BRANCH   1  26
ATOM     25  O   LIG    1        1.820   3.933   0.915  0.00  0.00    -0.440 OA
ATOM     26  C   LIG    1        0.812   3.259   0.907  0.00  0.00    +0.490 C 
ENDBRANCH   1  26
BRANCH  12  27
ATOM     27  O   LIG    1        3.281   1.937   0.581  0.00  0.00    -0.480 OA
ATOM     28  H   LIG    1        3.548   2.260  -0.291  0.00  0.00    +0.400 HD
ENDBRANCH  12  27
TORSDOF 3
