REMARK  Name = ZINCrH000004sRp7.0
REMARK                            x       y       z     vdW  Elec       q    Type
REMARK                         _______ _______ _______ _____ _____    ______ ____
ROOT
ATOM      1  C   LIG    1        3.485   7.745   0.720  0.00  0.00    +0.600 C 
ATOM      2  N   LIG    1        4.124   6.594   0.432  0.00  0.00    -0.590 N 
ATOM      3  C   LIG    1        4.615   6.382  -0.944  0.00  0.00    +0.270 C 
ATOM      4  C   LIG    1        4.353   4.948  -1.439  0.00  0.00    +0.020 C 
ATOM      5  C   LIG    1        2.986   4.488  -0.995  0.00  0.00    +0.030 C 
ATOM      6  C   LIG    1        3.105   3.769   0.345  0.00  0.00    +0.020 C 
ATOM      7  C   LIG    1        3.082   4.663   1.513  0.00  0.00    +0.030 C 
ATOM      8  C   LIG    1        4.302   5.618   1.484  0.00  0.00    +0.290 C 
ATOM      9  O   LIG    1        3.412   8.625  -0.116  0.00  0.00    -0.540 OA
ENDROOT
BRANCH   1  12
ATOM     10  C   LIG    1        2.166  10.382   1.770  0.00  0.00    +0.200 C 
ATOM     11  C   LIG    1        2.298   9.078   2.514  0.00  0.00    +0.040 A 
ATOM     12  C   LIG    1        2.874   7.936   2.048  0.00  0.00    -0.070 A 
ATOM     13  N   LIG    1        2.776   7.004   3.033  0.00  0.00    -0.450 NA
ATOM     14  C   LIG    1        2.175   7.549   4.060  0.00  0.00    +0.290 A 
ATOM     15  O   LIG    1        1.869   8.824   3.762  0.00  0.00    -0.200 OA
BRANCH  14  16
ATOM     16  C   LIG    1        1.877   6.871   5.340  0.00  0.00    -0.180 A 
ATOM     17  C   LIG    1        1.245   7.423   6.420  0.00  0.00    +0.290 A 
ATOM     18  N   LIG    1        1.171   6.477   7.375  0.00  0.00    -0.360 N 
ATOM     19  N   LIG    1        1.766   5.309   6.884  0.00  0.00    -0.290 NA
ATOM     20  C   LIG    1        0.569   6.641   8.700  0.00  0.00    +0.370 C 
ATOM     21  C   LIG    1        2.185   5.534   5.667  0.00  0.00    +0.300 A 
ENDBRANCH  14  16
ENDBRANCH   1  12
BRANCH   6  22
ATOM     22  C   LIG    1        1.963   2.793   0.468  0.00  0.00    -0.080 A 
ATOM     23  C   LIG    1        2.220   1.438   0.569  0.00  0.00    +0.000 A 
ATOM     24  C   LIG    1        1.173   0.543   0.681  0.00  0.00    +0.000 A 
ATOM     25  C   LIG    1       -0.131   1.002   0.686  0.00  0.00    -0.010 A 
ATOM     26  C   LIG    1       -0.388   2.357   0.590  0.00  0.00    +0.000 A 
ATOM     27  C   LIG    1        0.659   3.252   0.479  0.00  0.00    +0.010 A 
ENDBRANCH   6  22
TORSDOF 3
