REMARK  Name = ZINCpe000000XAZj.0
REMARK                            x       y       z     vdW  Elec       q    Type
REMARK                         _______ _______ _______ _____ _____    ______ ____
ROOT
ATOM      1  N   LIG    1        0.054  -0.304  -0.962  0.00  0.00    -0.680 N 
ATOM      2  H   LIG    1        0.852  -0.847  -1.061  0.00  0.00    +0.400 HD
ATOM      3  C   LIG    1       -1.094  -0.866  -0.535  0.00  0.00    +0.700 C 
ATOM      4  N   LIG    1       -1.112  -2.160  -0.158  0.00  0.00    -0.630 N 
ATOM      5  C   LIG    1        0.128  -2.951  -0.106  0.00  0.00    +0.250 C 
ATOM      6  C   LIG    1       -0.101  -4.258  -0.874  0.00  0.00    +0.220 C 
ATOM      7  O   LIG    1       -1.281  -4.894  -0.380  0.00  0.00    -0.370 OA
ATOM      8  C   LIG    1       -2.478  -4.135  -0.568  0.00  0.00    +0.220 C 
ATOM      9  C   LIG    1       -2.371  -2.821   0.221  0.00  0.00    +0.220 C 
ATOM     10  O   LIG    1       -2.114  -0.206  -0.491  0.00  0.00    -0.530 OA
ENDROOT
BRANCH   1  13
ATOM     11  C   LIG    1        2.531   1.061  -0.657  0.00  0.00    +0.100 C 
ATOM     12  C   LIG    1        1.284   1.766  -1.125  0.00  0.00    -0.100 A 
ATOM     13  C   LIG    1        0.096   1.062  -1.260  0.00  0.00    +0.160 A 
ATOM     14  C   LIG    1       -1.050   1.714  -1.697  0.00  0.00    +0.050 A 
ATOM     15  C   LIG    1       -1.012   3.064  -1.987  0.00  0.00    +0.020 A 
ATOM     16  C   LIG    1        0.170   3.769  -1.854  0.00  0.00    -0.040 A 
ATOM     17  C   LIG    1        1.321   3.122  -1.423  0.00  0.00    +0.100 A 
BRANCH  17  18
ATOM     18  N   LIG    1        2.515   3.834  -1.289  0.00  0.00    -0.510 N 
ATOM     19  C   LIG    1        2.397   4.869  -0.252  0.00  0.00    +0.200 C 
ATOM     20  C   LIG    1        2.925   4.419  -2.572  0.00  0.00    +0.200 C 
ENDBRANCH  17  18
ENDBRANCH   1  13
BRANCH   9  21
ATOM     21  C   LIG    1       -3.554  -1.913  -0.123  0.00  0.00    +0.290 C 
BRANCH  21  22
ATOM     22  N   LIG    1       -3.644  -0.834   0.864  0.00  0.00    -1.090 NA
ATOM     23  H   LIG    1       -3.157  -0.899   1.700  0.00  0.00    +0.410 HD
BRANCH  22  24
ATOM     24  S   LIG    1       -4.579   0.497   0.552  0.00  0.00    +2.630 S 
ATOM     25  O   LIG    1       -4.154   0.929  -0.734  0.00  0.00    -0.930 OA
ATOM     26  O   LIG    1       -4.406   1.322   1.696  0.00  0.00    -0.970 OA
ATOM     27  C   LIG    1       -6.273  -0.146   0.480  0.00  0.00    -0.330 C 
ENDBRANCH  22  24
ENDBRANCH  21  22
ENDBRANCH   9  21
TORSDOF 5
