REMARK  Name = ZINCkj00000vBycY.1
REMARK                            x       y       z     vdW  Elec       q    Type
REMARK                         _______ _______ _______ _____ _____    ______ ____
ROOT
ATOM      1  N   LIG    1       -6.358   1.101   3.699  0.00  0.00    -1.120 NA
ATOM      2  H   LIG    1       -6.721   0.668   2.911  0.00  0.00    +0.430 HD
ENDROOT
BRANCH   1   3
ATOM      3  S   LIG    1       -7.292   1.268   5.057  0.00  0.00    +2.620 S 
ATOM      4  O   LIG    1       -6.481   0.752   6.104  0.00  0.00    -0.940 OA
ATOM      5  O   LIG    1       -8.524   0.650   4.712  0.00  0.00    -0.930 OA
BRANCH   3  11
ATOM      6  C   LIG    1       -7.579   3.803   7.643  0.00  0.00    +0.050 C 
ATOM      7  C   LIG    1       -8.425   3.382   6.440  0.00  0.00    +0.200 C 
ATOM      8  O   LIG    1       -9.286   4.457   6.049  0.00  0.00    -0.360 OA
ATOM      9  C   LIG    1       -8.970   4.878   4.712  0.00  0.00    +0.230 C 
ATOM     10  C   LIG    1       -8.303   3.646   4.043  0.00  0.00    +0.070 C 
ATOM     11  C   LIG    1       -7.507   3.059   5.241  0.00  0.00    -0.490 C 
ENDBRANCH   3  11
ENDBRANCH   1   3
BRANCH   1  12
ATOM     12  C   LIG    1       -4.984   1.608   3.689  0.00  0.00    +0.280 C 
BRANCH  12  13
ATOM     13  C   LIG    1       -4.230   1.015   2.497  0.00  0.00    +0.260 C 
BRANCH  13  14
ATOM     14  N   LIG    1       -2.852   1.523   2.486  0.00  0.00    -0.380 N 
ATOM     15  C   LIG    1       -2.141   1.037   3.676  0.00  0.00    +0.330 C 
ATOM     16  H   LIG    1       -2.865   2.532   2.492  0.00  0.00    +0.420 HD
BRANCH  14  17
ATOM     17  C   LIG    1       -2.164   1.050   1.278  0.00  0.00    +0.160 C 
ATOM     18  C   LIG    1       -0.729   1.579   1.267  0.00  0.00    +0.040 C 
ATOM     19  C   LIG    1       -0.013   1.086   0.008  0.00  0.00    +0.040 C 
ATOM     20  C   LIG    1       -0.753   1.593  -1.232  0.00  0.00    +0.020 C 
ATOM     21  C   LIG    1       -2.188   1.063  -1.221  0.00  0.00    +0.040 C 
ATOM     22  C   LIG    1       -2.904   1.556   0.038  0.00  0.00    +0.040 C 
ENDBRANCH  14  17
ENDBRANCH  13  14
ENDBRANCH  12  13
ENDBRANCH   1  12
TORSDOF 6
