REMARK  Name = ZINCkj00000vBycY.0
REMARK                            x       y       z     vdW  Elec       q    Type
REMARK                         _______ _______ _______ _____ _____    ______ ____
ROOT
ATOM      1  N   LIG    1        0.670   0.084   2.949  0.00  0.00    -1.120 NA
ATOM      2  H   LIG    1        1.072  -0.784   2.786  0.00  0.00    +0.430 HD
ENDROOT
BRANCH   1   3
ATOM      3  S   LIG    1       -0.906   0.360   2.524  0.00  0.00    +2.620 S 
ATOM      4  O   LIG    1       -1.346  -0.879   1.986  0.00  0.00    -0.920 OA
ATOM      5  O   LIG    1       -1.496   0.900   3.698  0.00  0.00    -0.940 OA
BRANCH   3  11
ATOM      6  C   LIG    1       -2.517   3.412   0.775  0.00  0.00    +0.050 C 
ATOM      7  C   LIG    1       -2.211   1.918   0.653  0.00  0.00    +0.190 C 
ATOM      8  O   LIG    1       -2.200   1.532  -0.732  0.00  0.00    -0.350 OA
ATOM      9  C   LIG    1       -0.834   1.634  -1.187  0.00  0.00    +0.230 C 
ATOM     10  C   LIG    1       -0.013   1.086   0.008  0.00  0.00    +0.060 C 
ATOM     11  C   LIG    1       -0.809   1.621   1.223  0.00  0.00    -0.480 C 
ENDBRANCH   3  11
ENDBRANCH   1   3
BRANCH   1  12
ATOM     12  C   LIG    1        1.459   1.150   3.571  0.00  0.00    +0.280 C 
BRANCH  12  13
ATOM     13  C   LIG    1        2.721   0.553   4.197  0.00  0.00    +0.260 C 
BRANCH  13  14
ATOM     14  N   LIG    1        3.512   1.622   4.821  0.00  0.00    -0.380 N 
ATOM     15  C   LIG    1        3.992   2.545   3.784  0.00  0.00    +0.330 C 
ATOM     16  H   LIG    1        2.936   2.126   5.479  0.00  0.00    +0.430 HD
BRANCH  14  17
ATOM     17  C   LIG    1        4.660   1.035   5.524  0.00  0.00    +0.170 C 
ATOM     18  C   LIG    1        4.160   0.074   6.604  0.00  0.00    +0.040 C 
ATOM     19  C   LIG    1        5.357  -0.538   7.336  0.00  0.00    +0.040 C 
ATOM     20  C   LIG    1        6.180   0.576   7.986  0.00  0.00    +0.020 C 
ATOM     21  C   LIG    1        6.680   1.538   6.906  0.00  0.00    +0.040 C 
ATOM     22  C   LIG    1        5.484   2.149   6.174  0.00  0.00    +0.040 C 
ENDBRANCH  14  17
ENDBRANCH  13  14
ENDBRANCH  12  13
ENDBRANCH   1  12
TORSDOF 6
