REMARK  Name = ZINCqH0000008yrX.0
REMARK                            x       y       z     vdW  Elec       q    Type
REMARK                         _______ _______ _______ _____ _____    ______ ____
ROOT
ATOM      1  C   LIG    1        0.891   6.900  -2.870  0.00  0.00    +0.000 C 
ATOM      2  C   LIG    1       -0.358   6.334  -3.552  0.00  0.00    +0.040 C 
ATOM      3  C   LIG    1       -0.954   7.400  -4.475  0.00  0.00    +0.040 C 
ATOM      4  C   LIG    1        0.102   7.830  -5.497  0.00  0.00    +0.200 C 
ATOM      5  N   LIG    1        1.275   8.365  -4.795  0.00  0.00    -0.480 N 
ATOM      6  C   LIG    1        1.892   7.345  -3.938  0.00  0.00    +0.240 C 
ENDROOT
BRANCH   5   7
ATOM      7  C   LIG    1        2.194   8.883  -5.690  0.00  0.00    +0.410 A 
ATOM      8  C   LIG    1        3.070   9.928  -5.299  0.00  0.00    -0.170 A 
ATOM      9  C   LIG    1        3.210  10.613  -4.028  0.00  0.00    +0.060 A 
ATOM     10  C   LIG    1        4.142  11.546  -4.002  0.00  0.00    -0.020 A 
ATOM     11  S   LIG    1        4.958  11.678  -5.548  0.00  0.00    +0.170 S 
ATOM     12  C   LIG    1        3.977  10.401  -6.251  0.00  0.00    +0.090 A 
ATOM     13  N   LIG    1        3.974   9.863  -7.477  0.00  0.00    -0.500 NA
ATOM     14  C   LIG    1        3.139   8.900  -7.792  0.00  0.00    +0.540 A 
ATOM     15  N   LIG    1        2.267   8.415  -6.927  0.00  0.00    -0.560 NA
ENDBRANCH   5   7
BRANCH   1  17
ATOM     16  N   LIG    1        1.022   5.591  -0.775  0.00  0.00    -0.610 N 
ATOM     17  C   LIG    1        1.517   5.837  -2.004  0.00  0.00    +0.520 C 
ATOM     18  O   LIG    1        2.467   5.204  -2.413  0.00  0.00    -0.530 OA
ATOM     19  C   LIG    1        1.717   4.665   0.123  0.00  0.00    +0.300 C 
BRANCH  16  21
ATOM     20  C   LIG    1       -1.209   5.192   0.145  0.00  0.00    +0.060 C 
ATOM     21  C   LIG    1       -0.212   6.248  -0.338  0.00  0.00    +0.330 C 
BRANCH  21  22
ATOM     22  C   LIG    1        0.098   7.199   0.790  0.00  0.00    -0.030 A 
ATOM     23  C   LIG    1       -0.438   8.421   0.959  0.00  0.00    -0.050 A 
ATOM     24  C   LIG    1        0.131   8.959   2.136  0.00  0.00    -0.060 A 
ATOM     25  C   LIG    1        0.984   8.035   2.614  0.00  0.00    +0.160 A 
ATOM     26  O   LIG    1        0.956   6.969   1.797  0.00  0.00    -0.170 OA
ENDBRANCH  21  22
ENDBRANCH  16  21
ENDBRANCH   1  17
TORSDOF 4
