REMARK  Name = ZINCrH000004qVwe.0
REMARK                            x       y       z     vdW  Elec       q    Type
REMARK                         _______ _______ _______ _____ _____    ______ ____
ROOT
ATOM      1  N   LIG    1       -3.913   5.095   0.065  0.00  0.00    -0.650 N 
ATOM      2  H   LIG    1       -4.864   4.913   0.006  0.00  0.00    +0.420 HD
ATOM      3  C   LIG    1       -3.476   6.365   0.169  0.00  0.00    +0.570 C 
ATOM      4  O   LIG    1       -2.283   6.600   0.159  0.00  0.00    -0.510 OA
ENDROOT
BRANCH   1   7
ATOM      5  C   LIG    1       -4.667   2.656   1.306  0.00  0.00    +0.090 C 
ATOM      6  C   LIG    1       -3.325   2.823   0.639  0.00  0.00    -0.130 A 
ATOM      7  C   LIG    1       -2.996   4.039   0.041  0.00  0.00    +0.160 A 
ATOM      8  C   LIG    1       -1.769   4.208  -0.576  0.00  0.00    +0.010 A 
ATOM      9  C   LIG    1       -0.858   3.158  -0.599  0.00  0.00    +0.110 A 
ATOM     10  N   LIG    1        0.409   3.016  -1.119  0.00  0.00    -0.600 N 
ATOM     11  H   LIG    1        0.897   3.706  -1.595  0.00  0.00    +0.420 HD
ATOM     12  C   LIG    1        0.877   1.754  -0.863  0.00  0.00    +0.220 A 
ATOM     13  C   LIG    1       -0.045   1.052  -0.187  0.00  0.00    -0.050 A 
ATOM     14  C   LIG    1       -1.200   1.933   0.003  0.00  0.00    -0.120 A 
ATOM     15  C   LIG    1       -2.442   1.783   0.625  0.00  0.00    +0.070 A 
ENDBRANCH   1   7
BRANCH   3  16
ATOM     16  C   LIG    1       -4.448   7.476   0.295  0.00  0.00    +0.100 A 
ATOM     17  C   LIG    1       -3.989   8.783   0.408  0.00  0.00    +0.020 A 
ATOM     18  C   LIG    1       -4.918   9.817   0.520  0.00  0.00    +0.150 A 
ATOM     19  C   LIG    1       -6.273   9.492   0.526  0.00  0.00    -0.050 A 
ATOM     20  C   LIG    1       -6.651   8.166   0.415  0.00  0.00    +0.300 A 
ATOM     21  N   LIG    1       -5.750   7.212   0.305  0.00  0.00    -0.480 NA
BRANCH  18  22
ATOM     22  N   LIG    1       -4.502  11.141   0.629  0.00  0.00    -0.480 N 
ATOM     23  C   LIG    1       -3.590  11.315   1.769  0.00  0.00    +0.180 C 
ATOM     24  C   LIG    1       -3.111  12.768   1.817  0.00  0.00    +0.160 C 
ATOM     25  O   LIG    1       -4.245  13.636   1.894  0.00  0.00    -0.370 OA
ATOM     26  C   LIG    1       -5.155  13.494   0.799  0.00  0.00    +0.200 C 
ATOM     27  C   LIG    1       -4.438  13.839  -0.508  0.00  0.00    +0.020 C 
ATOM     28  C   LIG    1       -2.225  12.974   3.047  0.00  0.00    +0.060 C 
ATOM     29  C   LIG    1       -5.654  12.048   0.742  0.00  0.00    +0.180 C 
ENDBRANCH  18  22
ENDBRANCH   3  16
TORSDOF 3
