REMARK  Name = ZINCtV000002O2BV.0
REMARK                            x       y       z     vdW  Elec       q    Type
REMARK                         _______ _______ _______ _____ _____    ______ ____
ROOT
ATOM      1  O   LIG    1       -1.008  -0.718  -1.043  0.00  0.00    -0.560 OA
ATOM      2  C   LIG    1        0.018  -0.234  -0.606  0.00  0.00    +0.710 C 
ATOM      3  N   LIG    1        1.185  -0.897  -0.734  0.00  0.00    -0.650 N 
ATOM      4  H   LIG    1        2.003  -0.510  -0.385  0.00  0.00    +0.410 HD
ATOM      5  N   LIG    1       -0.011   0.966   0.007  0.00  0.00    -0.680 N 
ATOM      6  H   LIG    1        0.794   1.322   0.415  0.00  0.00    +0.410 HD
ENDROOT
BRANCH   3   7
ATOM      7  C   LIG    1        1.215  -2.150  -1.375  0.00  0.00    +0.060 A 
ATOM      8  C   LIG    1        0.164  -2.807  -1.899  0.00  0.00    +0.250 A 
ATOM      9  N   LIG    1        0.584  -3.998  -2.443  0.00  0.00    -0.590 N 
ATOM     10  H   LIG    1        0.009  -4.644  -2.881  0.00  0.00    +0.420 HD
ATOM     11  C   LIG    1        1.943  -4.138  -2.267  0.00  0.00    +0.110 A 
ATOM     12  C   LIG    1        2.853  -5.132  -2.612  0.00  0.00    +0.030 A 
ATOM     13  C   LIG    1        4.185  -4.982  -2.291  0.00  0.00    -0.070 A 
ATOM     14  C   LIG    1        4.629  -3.847  -1.624  0.00  0.00    +0.010 A 
ATOM     15  C   LIG    1        3.751  -2.859  -1.276  0.00  0.00    +0.070 A 
ATOM     16 BR   LIG    1        5.420  -6.335  -2.761  0.00  0.00    -0.040 Br
ATOM     17  C   LIG    1        2.398  -2.991  -1.592  0.00  0.00    -0.100 A 
ENDBRANCH   3   7
BRANCH   5  18
ATOM     18  C   LIG    1       -1.202   1.694   0.061  0.00  0.00    +0.190 A 
ATOM     19  C   LIG    1       -1.170   3.082  -0.009  0.00  0.00    -0.010 A 
ATOM     20  C   LIG    1       -2.342   3.803   0.038  0.00  0.00    +0.110 A 
ATOM     21  C   LIG    1       -3.564   3.138   0.168  0.00  0.00    -0.050 A 
ATOM     22  C   LIG    1       -3.592   1.744   0.244  0.00  0.00    +0.080 A 
ATOM     23  C   LIG    1       -2.416   1.029   0.191  0.00  0.00    +0.030 A 
BRANCH  21  24
ATOM     24  C   LIG    1       -4.823   3.908   0.225  0.00  0.00    +0.300 A 
ATOM     25  N   LIG    1       -4.909   5.213   0.162  0.00  0.00    -0.470 NA
ATOM     26  C   LIG    1       -6.216   5.569   0.245  0.00  0.00    +0.030 A 
ATOM     27  C   LIG    1       -6.884   6.796   0.232  0.00  0.00    +0.080 A 
ATOM     28  C   LIG    1       -8.257   6.827   0.338  0.00  0.00    +0.020 A 
ATOM     29  C   LIG    1       -8.979   5.649   0.456  0.00  0.00    +0.050 A 
ATOM     30  C   LIG    1       -8.333   4.430   0.471  0.00  0.00    +0.050 A 
ATOM     31  C   LIG    1       -6.952   4.379   0.366  0.00  0.00    +0.010 A 
ATOM     32  O   LIG    1       -6.052   3.370   0.343  0.00  0.00    -0.210 OA
ENDBRANCH  21  24
ENDBRANCH   5  18
TORSDOF 3
