REMARK  Name = ZINCrg000000mQuC.0
REMARK                            x       y       z     vdW  Elec       q    Type
REMARK                         _______ _______ _______ _____ _____    ______ ____
ROOT
ATOM      1  C   LIG    1       -2.680   1.818  -0.811  0.00  0.00    +0.000 C 
ATOM      2  C   LIG    1       -1.221   2.264  -0.921  0.00  0.00    +0.040 C 
ATOM      3  C   LIG    1       -0.453   1.796   0.319  0.00  0.00    +0.300 C 
ATOM      4  N   LIG    1       -1.142   2.289   1.519  0.00  0.00    -1.000 NA
ATOM      5  C   LIG    1       -2.575   1.993   1.679  0.00  0.00    +0.300 C 
ATOM      6  C   LIG    1       -3.320   2.459   0.423  0.00  0.00    +0.030 C 
ENDROOT
BRANCH   1  14
ATOM      7  C   LIG    1       -8.199  -0.431  -4.929  0.00  0.00    +0.100 C 
ATOM      8  C   LIG    1       -7.536  -0.706  -3.604  0.00  0.00    +0.510 C 
ATOM      9  N   LIG    1       -6.325  -0.179  -3.334  0.00  0.00    -0.620 N 
ATOM     10  C   LIG    1       -5.633  -0.498  -2.078  0.00  0.00    +0.270 C 
ATOM     11  C   LIG    1       -5.293   0.813  -1.358  0.00  0.00    +0.270 C 
ATOM     12  N   LIG    1       -4.641   1.718  -2.315  0.00  0.00    -0.620 N 
ATOM     13  C   LIG    1       -5.336   2.042  -3.569  0.00  0.00    +0.280 C 
ATOM     14  C   LIG    1       -3.431   2.246  -2.045  0.00  0.00    +0.520 C 
ATOM     15  O   LIG    1       -2.946   3.067  -2.796  0.00  0.00    -0.530 OA
ATOM     16  C   LIG    1       -5.674   0.727  -4.291  0.00  0.00    +0.280 C 
ATOM     17  O   LIG    1       -8.091  -1.402  -2.780  0.00  0.00    -0.540 OA
ENDBRANCH   1  14
BRANCH   4  18
ATOM     18  S   LIG    1       -0.324   3.161   2.664  0.00  0.00    +2.690 S 
ATOM     19  O   LIG    1        1.048   2.814   2.529  0.00  0.00    -0.950 OA
ATOM     20  O   LIG    1       -1.047   3.009   3.878  0.00  0.00    -0.950 OA
BRANCH  18  21
ATOM     21  C   LIG    1       -0.453   4.861   2.218  0.00  0.00    -0.680 A 
ATOM     22  C   LIG    1        0.502   5.435   1.401  0.00  0.00    +0.130 A 
ATOM     23  C   LIG    1        0.398   6.767   1.046  0.00  0.00    -0.010 A 
ATOM     24  C   LIG    1       -0.656   7.527   1.517  0.00  0.00    -0.030 A 
ATOM     25  C   LIG    1       -1.609   6.954   2.338  0.00  0.00    -0.010 A 
ATOM     26  C   LIG    1       -0.767   8.981   1.136  0.00  0.00    +0.090 C 
ATOM     27  C   LIG    1       -1.508   5.620   2.688  0.00  0.00    +0.120 A 
ENDBRANCH  18  21
ENDBRANCH   4  18
TORSDOF 3
