REMARK  Name = ZINCrg00000J3fSG.0
REMARK                            x       y       z     vdW  Elec       q    Type
REMARK                         _______ _______ _______ _____ _____    ______ ____
ROOT
ATOM      1  C   LIG    1        1.074   1.287   0.025  0.00  0.00    +0.610 C 
ATOM      2  N   LIG    1       -0.144   0.710   0.015  0.00  0.00    -0.720 N 
ATOM      3  H   LIG    1       -0.223  -0.256  -0.002  0.00  0.00    +0.400 HD
ATOM      4  O   LIG    1        1.172   2.500   0.046  0.00  0.00    -0.510 OA
ENDROOT
BRANCH   1   9
ATOM      5  C   LIG    1        6.035   3.683   0.068  0.00  0.00    +0.160 C 
ATOM      6  C   LIG    1        5.452   2.294   0.044  0.00  0.00    +0.220 A 
ATOM      7  N   LIG    1        4.148   2.129   0.041  0.00  0.00    -0.450 NA
ATOM      8  C   LIG    1        3.612   0.908   0.019  0.00  0.00    +0.330 A 
ATOM      9  C   LIG    1        2.279   0.454   0.011  0.00  0.00    -0.300 A 
ATOM     10  C   LIG    1        2.326  -0.952  -0.007  0.00  0.00    +0.330 A 
ATOM     11  N   LIG    1        3.577  -1.330  -0.019  0.00  0.00    -0.310 NA
ATOM     12  N   LIG    1        4.406  -0.204   0.000  0.00  0.00    -0.310 N 
ATOM     13  C   LIG    1        5.762  -0.066   0.004  0.00  0.00    +0.360 A 
ATOM     14  C   LIG    1        6.300   1.180   0.025  0.00  0.00    -0.050 A 
ENDBRANCH   1   9
BRANCH   2  15
ATOM     15  C   LIG    1       -1.350   1.543   0.023  0.00  0.00    +0.270 C 
ATOM     16  C   LIG    1       -2.508   0.768  -0.611  0.00  0.00    +0.040 C 
ATOM     17  C   LIG    1       -3.807   1.538  -0.348  0.00  0.00    +0.050 C 
ATOM     18  C   LIG    1       -4.108   1.491   1.151  0.00  0.00    +0.270 C 
ATOM     19  N   LIG    1       -2.938   1.899   1.918  0.00  0.00    -0.550 N 
ATOM     20  C   LIG    1       -1.694   1.908   1.438  0.00  0.00    +0.500 C 
ATOM     21  O   LIG    1       -0.793   2.229   2.184  0.00  0.00    -0.500 OA
BRANCH  19  22
ATOM     22  C   LIG    1       -3.132   2.305   3.239  0.00  0.00    +0.300 A 
ATOM     23  C   LIG    1       -3.105   1.503   4.339  0.00  0.00    -0.100 A 
ATOM     24  C   LIG    1       -3.345   2.305   5.458  0.00  0.00    +0.080 A 
ATOM     25  N   LIG    1       -3.511   3.538   5.053  0.00  0.00    -0.280 NA
ATOM     26  C   LIG    1       -3.404   1.830   6.887  0.00  0.00    +0.160 C 
ATOM     27  N   LIG    1       -3.376   3.567   3.659  0.00  0.00    -0.370 N 
ATOM     28  C   LIG    1       -3.483   4.754   2.807  0.00  0.00    +0.350 C 
ENDBRANCH  19  22
ENDBRANCH   2  15
TORSDOF 3
