REMARK  Name = ZINCpk000005NQmT.0
REMARK                            x       y       z     vdW  Elec       q    Type
REMARK                         _______ _______ _______ _____ _____    ______ ____
ROOT
ATOM      1  C   LIG    1       -1.290   1.681   0.017  0.00  0.00    +0.090 C 
ATOM      2  C   LIG    1       -1.362   3.010  -0.738  0.00  0.00    +0.060 C 
ATOM      3  C   LIG    1       -1.356   2.999   0.792  0.00  0.00    +0.040 C 
ENDROOT
BRANCH   1   4
ATOM      4  C   LIG    1       -2.539   0.798   0.016  0.00  0.00    +0.270 C 
ATOM      5  C   LIG    1       -2.866   0.349   1.456  0.00  0.00    +0.040 C 
ATOM      6  C   LIG    1       -3.341  -1.115   1.264  0.00  0.00    +0.040 C 
ATOM      7  C   LIG    1       -2.425  -1.590   0.108  0.00  0.00    +0.250 C 
ATOM      8  N   LIG    1       -2.293  -0.416  -0.774  0.00  0.00    -0.620 N 
ATOM      9  C   LIG    1       -1.996  -0.451  -2.088  0.00  0.00    +0.560 C 
ATOM     10  O   LIG    1       -1.913   0.581  -2.719  0.00  0.00    -0.510 OA
BRANCH   9  11
ATOM     11  C   LIG    1       -1.767  -1.774  -2.774  0.00  0.00    -0.070 C 
ATOM     12  C   LIG    1       -2.810  -2.229  -3.797  0.00  0.00    +0.050 C 
ATOM     13  C   LIG    1       -1.436  -1.747  -4.268  0.00  0.00    -0.090 C 
ATOM     14  C   LIG    1       -0.460  -2.801  -4.794  0.00  0.00    +0.070 C 
ATOM     15  C   LIG    1       -1.362  -0.380  -4.951  0.00  0.00    +0.080 C 
ENDBRANCH   9  11
ENDBRANCH   1   4
BRANCH   1  17
ATOM     16  C   LIG    1        1.147   1.655   0.000  0.00  0.00    +0.620 C 
ATOM     17  N   LIG    1       -0.011   0.966   0.007  0.00  0.00    -0.670 N 
ATOM     18  H   LIG    1        0.002  -0.004   0.002  0.00  0.00    +0.410 HD
ATOM     19  O   LIG    1        1.130   2.871   0.007  0.00  0.00    -0.500 OA
BRANCH  16  23
ATOM     20  C   LIG    1        6.034   0.677  -0.052  0.00  0.00    +0.200 C 
ATOM     21  C   LIG    1        4.535   0.524  -0.038  0.00  0.00    +0.210 A 
ATOM     22  N   LIG    1        3.659   1.497  -0.025  0.00  0.00    -0.460 NA
ATOM     23  C   LIG    1        2.437   0.934  -0.016  0.00  0.00    +0.150 A 
ATOM     24  N   LIG    1        2.594  -0.372  -0.019  0.00  0.00    -0.280 NA
ATOM     25  N   LIG    1        3.854  -0.637  -0.038  0.00  0.00    -0.300 N 
ATOM     26  C   LIG    1        4.447  -1.977  -0.051  0.00  0.00    +0.370 C 
ENDBRANCH  16  23
ENDBRANCH   1  17
TORSDOF 4
