REMARK  Name = ZINCrH000004tPTd.0
REMARK                            x       y       z     vdW  Elec       q    Type
REMARK                         _______ _______ _______ _____ _____    ______ ____
ROOT
ATOM      1  O   LIG    1       -4.597  -0.322   0.013  0.00  0.00    -0.490 OA
ATOM      2  C   LIG    1       -4.776   0.878   0.029  0.00  0.00    +0.520 C 
ATOM      3  N   LIG    1       -6.029   1.372   0.039  0.00  0.00    -0.670 N 
ATOM      4  H   LIG    1       -6.173   2.328   0.119  0.00  0.00    +0.420 HD
ENDROOT
BRANCH   3   5
ATOM      5  C   LIG    1       -7.125   0.505  -0.066  0.00  0.00    +0.130 A 
ATOM      6  C   LIG    1       -8.265   0.906  -0.750  0.00  0.00    +0.040 A 
ATOM      7  C   LIG    1       -9.342   0.049  -0.858  0.00  0.00    -0.030 A 
ATOM      8  C   LIG    1       -9.290  -1.208  -0.273  0.00  0.00    +0.090 A 
ATOM      9  C   LIG    1       -8.154  -1.607   0.415  0.00  0.00    +0.050 A 
ATOM     10  C   LIG    1       -7.074  -0.753   0.519  0.00  0.00    +0.070 A 
BRANCH   8  11
ATOM     11  O   LIG    1      -10.354  -2.049  -0.374  0.00  0.00    -0.310 OA
BRANCH  11  12
ATOM     12  C   LIG    1      -11.491  -1.573  -1.097  0.00  0.00    +0.600 C 
ATOM     13  F   LIG    1      -11.983  -0.416  -0.483  0.00  0.00    -0.160 F 
ATOM     14  F   LIG    1      -12.485  -2.557  -1.104  0.00  0.00    -0.130 F 
ATOM     15  F   LIG    1      -11.117  -1.279  -2.413  0.00  0.00    -0.160 F 
ENDBRANCH  11  12
ENDBRANCH   8  11
ENDBRANCH   3   5
BRANCH   2  16
ATOM     16  C   LIG    1       -3.596   1.815   0.036  0.00  0.00    +0.250 C 
BRANCH  16  17
ATOM     17  O   LIG    1       -2.385   1.057   0.023  0.00  0.00    -0.280 OA
BRANCH  17  18
ATOM     18  C   LIG    1       -1.220   1.755   0.027  0.00  0.00    +0.190 A 
ATOM     19  C   LIG    1       -1.250   3.148   0.051  0.00  0.00    -0.090 A 
ATOM     20  C   LIG    1       -0.088   3.864   0.050  0.00  0.00    +0.140 A 
ATOM     21  C   LIG    1        1.141   3.195   0.032  0.00  0.00    -0.200 A 
ATOM     22  C   LIG    1        2.403   3.938   0.030  0.00  0.00    +0.160 A 
ATOM     23  C   LIG    1        3.563   3.231   0.012  0.00  0.00    -0.080 A 
ATOM     24  C   LIG    1        3.526   1.821  -0.005  0.00  0.00    +0.510 A 
ATOM     25  O   LIG    1        2.365   1.147  -0.004  0.00  0.00    -0.270 OA
ATOM     26  O   LIG    1        4.573   1.200  -0.021  0.00  0.00    -0.460 OA
ATOM     27  C   LIG    1        1.177   1.788   0.014  0.00  0.00    +0.190 A 
ATOM     28  C   LIG    1       -0.013   1.076   0.015  0.00  0.00    -0.010 A 
ENDBRANCH  17  18
ENDBRANCH  16  17
ENDBRANCH   2  16
TORSDOF 6
