REMARK  Name = ZINCnE000001Tp2H.0
REMARK                            x       y       z     vdW  Elec       q    Type
REMARK                         _______ _______ _______ _____ _____    ______ ____
ROOT
ATOM      1  C   LIG    1        7.180  -0.368  -2.342  0.00  0.00    +0.020 A 
ATOM      2  C   LIG    1        6.481   0.325  -3.322  0.00  0.00    +0.050 A 
ATOM      3  C   LIG    1        5.244   0.865  -3.035  0.00  0.00    -0.050 A 
ATOM      4  C   LIG    1        4.698   0.715  -1.766  0.00  0.00    +0.280 A 
ATOM      5  C   LIG    1        5.399   0.027  -0.785  0.00  0.00    -0.150 A 
ATOM      6  C   LIG    1        6.635  -0.518  -1.074  0.00  0.00    +0.020 A 
ENDROOT
BRANCH   1   9
ATOM      7  O   LIG    1        8.955   0.791  -3.953  0.00  0.00    -0.530 OA
ATOM      8  C   LIG    1        9.260  -0.292  -3.500  0.00  0.00    +0.530 C 
ATOM      9  N   LIG    1        8.437  -0.916  -2.634  0.00  0.00    -0.650 N 
ATOM     10  H   LIG    1        8.714  -1.745  -2.212  0.00  0.00    +0.400 HD
BRANCH   8  11
ATOM     11  C   LIG    1       10.559  -0.940  -3.904  0.00  0.00    -0.070 C 
ATOM     12  C   LIG    1       11.855  -0.289  -3.417  0.00  0.00    +0.040 C 
ATOM     13  C   LIG    1       11.450  -0.180  -4.889  0.00  0.00    +0.060 C 
ENDBRANCH   8  11
ENDBRANCH   1   9
BRANCH   4  14
ATOM     14  N   LIG    1        3.444   1.263  -1.475  0.00  0.00    -1.080 NA
BRANCH  14  15
ATOM     15  S   LIG    1        2.793   1.084   0.037  0.00  0.00    +2.600 S 
ATOM     16  O   LIG    1        2.527  -0.303   0.198  0.00  0.00    -1.030 OA
ATOM     17  O   LIG    1        3.623   1.824   0.921  0.00  0.00    -1.010 OA
BRANCH  15  18
ATOM     18  C   LIG    1        1.227   1.893   0.030  0.00  0.00    -0.610 A 
ATOM     19  C   LIG    1        0.069   1.158   0.198  0.00  0.00    +0.130 A 
ATOM     20  C   LIG    1       -1.160   1.792   0.187  0.00  0.00    -0.020 A 
ATOM     21  C   LIG    1       -1.230   3.162   0.018  0.00  0.00    +0.060 A 
ATOM     22  C   LIG    1       -0.071   3.898  -0.149  0.00  0.00    +0.000 A 
ATOM     23  C   LIG    1        1.158   3.264  -0.144  0.00  0.00    +0.060 A 
ATOM     24 CL   LIG    1        2.613   4.188  -0.354  0.00  0.00    -0.030 Cl
ENDBRANCH  15  18
ENDBRANCH  14  15
ENDBRANCH   4  14
TORSDOF 5
