REMARK  Name = ZINCrH00000No4RT.0
REMARK                            x       y       z     vdW  Elec       q    Type
REMARK                         _______ _______ _______ _____ _____    ______ ____
ROOT
ATOM      1  N   LIG    1        2.402   1.107  -0.015  0.00  0.00    -0.670 N 
ATOM      2  H   LIG    1        2.419   0.139   0.046  0.00  0.00    +0.420 HD
ATOM      3  C   LIG    1        3.555   1.796  -0.124  0.00  0.00    +0.560 C 
ATOM      4  O   LIG    1        3.540   3.014  -0.117  0.00  0.00    -0.520 OA
ENDROOT
BRANCH   1   8
ATOM      5  C   LIG    1       -1.236   3.135   0.057  0.00  0.00    -0.700 A 
ATOM      6  C   LIG    1       -0.122   3.695   0.654  0.00  0.00    +0.140 A 
ATOM      7  C   LIG    1        1.087   3.028   0.627  0.00  0.00    +0.010 A 
ATOM      8  C   LIG    1        1.181   1.788   0.009  0.00  0.00    +0.200 A 
ATOM      9  C   LIG    1        0.058   1.225  -0.586  0.00  0.00    -0.030 A 
ATOM     10  C   LIG    1       -1.146   1.900  -0.560  0.00  0.00    +0.140 A 
BRANCH   5  11
ATOM     11  S   LIG    1       -2.775   3.993   0.087  0.00  0.00    +2.700 S 
ATOM     12  O   LIG    1       -3.533   3.495  -1.007  0.00  0.00    -0.960 OA
ATOM     13  O   LIG    1       -2.463   5.369   0.254  0.00  0.00    -0.950 OA
BRANCH  11  14
ATOM     14  N   LIG    1       -3.571   3.523   1.461  0.00  0.00    -1.110 NA
ATOM     15  H   LIG    1       -4.402   3.026   1.394  0.00  0.00    +0.420 HD
BRANCH  14  17
ATOM     16  C   LIG    1       -3.663   5.149   3.285  0.00  0.00    +0.020 C 
ATOM     17  C   LIG    1       -3.021   3.857   2.777  0.00  0.00    +0.230 C 
ATOM     18  C   LIG    1       -3.317   2.720   3.757  0.00  0.00    +0.030 C 
ENDBRANCH  14  17
ENDBRANCH  11  14
ENDBRANCH   5  11
ENDBRANCH   1   8
BRANCH   3  19
ATOM     19  C   LIG    1        4.783   1.104  -0.247  0.00  0.00    -0.090 C 
ATOM     20  C   LIG    1        5.944   1.797  -0.357  0.00  0.00    +0.190 C 
BRANCH  20  21
ATOM     21  C   LIG    1        7.173   1.105  -0.479  0.00  0.00    -0.030 A 
ATOM     22  C   LIG    1        7.337  -0.265  -0.495  0.00  0.00    +0.020 A 
ATOM     23  C   LIG    1        8.713  -0.501  -0.636  0.00  0.00    -0.050 A 
ATOM     24  C   LIG    1        9.322   0.704  -0.690  0.00  0.00    +0.060 A 
ATOM     25  O   LIG    1        8.395   1.667  -0.596  0.00  0.00    -0.160 OA
BRANCH  24  26
ATOM     26  C   LIG    1       10.805   0.929  -0.833  0.00  0.00    +0.040 C 
ATOM     27  C   LIG    1       11.322   2.359  -0.669  0.00  0.00    +0.050 C 
ATOM     28  C   LIG    1       11.286   1.712  -2.056  0.00  0.00    -0.010 C 
ATOM     29  C   LIG    1       10.225   2.206  -3.041  0.00  0.00    +0.060 C 
ENDBRANCH  24  26
ENDBRANCH  20  21
ENDBRANCH   3  19
TORSDOF 7
