REMARK  Name = ZINCrD00000l6MXI.2
REMARK                            x       y       z     vdW  Elec       q    Type
REMARK                         _______ _______ _______ _____ _____    ______ ____
ROOT
ATOM      1  N   LIG    1        2.556  -4.583  -1.621  0.00  0.00    -0.620 N 
ATOM      2  C   LIG    1        2.546  -4.874  -0.305  0.00  0.00    +0.520 C 
ATOM      3  O   LIG    1        1.525  -4.744   0.337  0.00  0.00    -0.500 OA
ATOM      4  C   LIG    1        3.789  -4.741  -2.396  0.00  0.00    +0.280 C 
ENDROOT
BRANCH   2   5
ATOM      5  C   LIG    1        3.803  -5.362   0.369  0.00  0.00    +0.140 C 
ATOM      6  C   LIG    1        4.890  -4.258   0.345  0.00  0.00    +0.040 C 
ATOM      7  C   LIG    1        5.774  -4.665   1.553  0.00  0.00    +0.010 C 
ATOM      8  C   LIG    1        4.748  -5.213   2.567  0.00  0.00    +0.180 C 
ATOM      9  N   LIG    1        3.552  -5.614   1.804  0.00  0.00    -0.500 NA
BRANCH   9  10
ATOM     10  C   LIG    1        3.226  -7.027   2.040  0.00  0.00    +0.210 C 
BRANCH  10  11
ATOM     11  C   LIG    1        2.741  -7.200   3.457  0.00  0.00    -0.080 A 
ATOM     12  C   LIG    1        3.641  -7.484   4.466  0.00  0.00    +0.000 A 
ATOM     13  C   LIG    1        3.197  -7.639   5.766  0.00  0.00    +0.000 A 
ATOM     14  C   LIG    1        1.850  -7.519   6.054  0.00  0.00    +0.000 A 
ATOM     15  C   LIG    1        0.949  -7.240   5.044  0.00  0.00    +0.000 A 
ATOM     16  C   LIG    1        1.394  -7.081   3.745  0.00  0.00    +0.030 A 
ENDBRANCH  10  11
ENDBRANCH   9  10
ENDBRANCH   2   5
BRANCH   1  17
ATOM     17  C   LIG    1        1.335  -4.110  -2.276  0.00  0.00    +0.350 C 
BRANCH  17  20
ATOM     18  C   LIG    1        0.606  -0.607  -1.056  0.00  0.00    +0.160 A 
ATOM     19  C   LIG    1        0.666  -1.992  -1.124  0.00  0.00    -0.020 A 
ATOM     20  C   LIG    1        1.276  -2.606  -2.202  0.00  0.00    -0.030 A 
ATOM     21  C   LIG    1        1.836  -1.843  -3.208  0.00  0.00    -0.050 A 
ATOM     22  C   LIG    1        1.783  -0.458  -3.142  0.00  0.00    +0.160 A 
ATOM     23  C   LIG    1        1.167   0.161  -2.064  0.00  0.00    -0.160 A 
BRANCH  18  25
ATOM     24  C   LIG    1       -0.017   1.425   0.010  0.00  0.00    +0.230 C 
ATOM     25  O   LIG    1        0.002  -0.004   0.002  0.00  0.00    -0.310 OA
ENDBRANCH  18  25
BRANCH  22  26
ATOM     26  O   LIG    1        2.335   0.292  -4.132  0.00  0.00    -0.310 OA
ATOM     27  C   LIG    1        2.244   1.712  -3.997  0.00  0.00    +0.240 C 
ENDBRANCH  22  26
ENDBRANCH  17  20
ENDBRANCH   1  17
TORSDOF 7
