REMARK  Name = ZINCnE000001LkXa.2
REMARK                            x       y       z     vdW  Elec       q    Type
REMARK                         _______ _______ _______ _____ _____    ______ ____
ROOT
ATOM      1  C   LIG    1       -2.552   3.876   0.036  0.00  0.00    +0.220 C 
ATOM      2  C   LIG    1       -3.193   3.751   1.434  0.00  0.00    +0.000 C 
ATOM      3  C   LIG    1       -4.701   3.579   1.113  0.00  0.00    +0.020 C 
ATOM      4  C   LIG    1       -4.650   2.738  -0.187  0.00  0.00    +0.160 C 
ATOM      5  N   LIG    1       -3.481   3.257  -0.927  0.00  0.00    -0.490 NA
ENDROOT
BRANCH   1   9
ATOM      6  C   LIG    1        1.195   1.819  -0.031  0.00  0.00    +0.090 A 
ATOM      7  C   LIG    1        0.051   1.165   0.399  0.00  0.00    -0.050 A 
ATOM      8  C   LIG    1       -1.161   1.831   0.414  0.00  0.00    +0.040 A 
ATOM      9  C   LIG    1       -1.231   3.151   0.012  0.00  0.00    -0.090 A 
ATOM     10  C   LIG    1       -0.091   3.807  -0.418  0.00  0.00    +0.060 A 
ATOM     11  C   LIG    1        1.122   3.145  -0.440  0.00  0.00    +0.070 A 
ATOM     12  F   LIG    1        2.235   3.785  -0.860  0.00  0.00    -0.130 F 
BRANCH   6  14
ATOM     13  C   LIG    1        2.386  -0.197   0.383  0.00  0.00    +0.240 C 
ATOM     14  O   LIG    1        2.386   1.164  -0.052  0.00  0.00    -0.310 OA
ENDBRANCH   6  14
ENDBRANCH   1   9
BRANCH   5  15
ATOM     15  C   LIG    1       -2.819   2.187  -1.684  0.00  0.00    +0.270 C 
BRANCH  15  16
ATOM     16  C   LIG    1       -3.645   1.843  -2.896  0.00  0.00    -0.170 A 
ATOM     17  C   LIG    1       -3.685   2.532  -4.089  0.00  0.00    -0.020 A 
ATOM     18  O   LIG    1       -4.549   1.893  -4.906  0.00  0.00    -0.160 OA
ATOM     19  C   LIG    1       -5.055   0.828  -4.274  0.00  0.00    +0.110 A 
ATOM     20  C   LIG    1       -4.520   0.756  -3.034  0.00  0.00    -0.090 A 
BRANCH  17  21
ATOM     21  C   LIG    1       -2.927   3.739  -4.412  0.00  0.00    +0.560 C 
ATOM     22  O   LIG    1       -3.049   4.263  -5.513  0.00  0.00    -0.680 OA
ATOM     23  O   LIG    1       -2.170   4.227  -3.582  0.00  0.00    -0.640 OA
ENDBRANCH  17  21
ENDBRANCH  15  16
ENDBRANCH   5  15
TORSDOF 5
