REMARK  Name = ZINCpk00000xIiq8.0
REMARK                            x       y       z     vdW  Elec       q    Type
REMARK                         _______ _______ _______ _____ _____    ______ ____
ROOT
ATOM      1  O   LIG    1        4.744  -0.076  -0.291  0.00  0.00    -0.410 OA
ATOM      2  C   LIG    1        3.714  -0.667  -0.035  0.00  0.00    +0.430 C 
ATOM      3  C   LIG    1        2.421   0.051  -0.020  0.00  0.00    -0.120 A 
ATOM      4  C   LIG    1        2.385   1.441  -0.013  0.00  0.00    +0.080 A 
ATOM      5  C   LIG    1        1.165   2.098   0.002  0.00  0.00    +0.040 A 
ATOM      6  C   LIG    1       -0.017   1.381   0.010  0.00  0.00    +0.050 A 
ATOM      7  C   LIG    1        0.002  -0.004   0.002  0.00  0.00    +0.080 A 
ATOM      8  C   LIG    1        1.218  -0.679  -0.013  0.00  0.00    -0.120 A 
ATOM      9  C   LIG    1        1.258  -2.158  -0.019  0.00  0.00    +0.440 C 
ATOM     10  C   LIG    1        2.535  -2.846   0.274  0.00  0.00    -0.140 A 
ATOM     11  C   LIG    1        2.556  -4.207   0.557  0.00  0.00    +0.190 A 
ATOM     12  C   LIG    1        3.760  -4.835   0.831  0.00  0.00    -0.670 A 
ATOM     13  C   LIG    1        4.941  -4.117   0.824  0.00  0.00    +0.160 A 
ATOM     14  C   LIG    1        4.938  -2.761   0.543  0.00  0.00    +0.070 A 
ATOM     15  O   LIG    1        0.256  -2.799  -0.262  0.00  0.00    -0.420 OA
ATOM     16  C   LIG    1        3.738  -2.116   0.267  0.00  0.00    -0.060 A 
ENDROOT
BRANCH  12  17
ATOM     17  S   LIG    1        3.785  -6.559   1.190  0.00  0.00    +2.690 S 
ATOM     18  O   LIG    1        5.096  -7.014   0.881  0.00  0.00    -0.940 OA
ATOM     19  O   LIG    1        2.614  -7.109   0.603  0.00  0.00    -0.940 OA
BRANCH  17  20
ATOM     20  N   LIG    1        3.608  -6.721   2.828  0.00  0.00    -1.000 NA
ATOM     21  C   LIG    1        4.779  -6.754   3.718  0.00  0.00    +0.270 C 
ATOM     22  C   LIG    1        4.552  -5.736   4.847  0.00  0.00    +0.220 C 
ATOM     23  O   LIG    1        3.285  -5.989   5.458  0.00  0.00    -0.370 OA
ATOM     24  C   LIG    1        2.169  -5.827   4.579  0.00  0.00    +0.220 C 
ATOM     25  C   LIG    1        2.274  -6.843   3.437  0.00  0.00    +0.270 C 
ENDBRANCH  17  20
ENDBRANCH  12  17
TORSDOF 2
