REMARK  Name = ZINCrH000004mpG4.0
REMARK                            x       y       z     vdW  Elec       q    Type
REMARK                         _______ _______ _______ _____ _____    ______ ____
ROOT
ATOM      1  C   LIG    1        5.480  -1.501  -5.482  0.00  0.00    +0.350 C 
ENDROOT
BRANCH   1   4
ATOM      2  N   LIG    1        6.640  -4.830  -6.422  0.00  0.00    -0.310 N 
ATOM      3  C   LIG    1        6.855  -3.612  -5.874  0.00  0.00    +0.260 A 
ATOM      4  C   LIG    1        5.701  -2.910  -5.968  0.00  0.00    -0.250 A 
ATOM      5  C   LIG    1        4.753  -3.721  -6.600  0.00  0.00    +0.260 A 
ATOM      6  N   LIG    1        5.315  -4.872  -6.873  0.00  0.00    -0.290 NA
BRANCH   2  10
ATOM      7  C   LIG    1        9.437  -7.909  -6.731  0.00  0.00    +0.130 A 
ATOM      8  C   LIG    1        8.152  -8.088  -7.221  0.00  0.00    +0.010 A 
ATOM      9  C   LIG    1        7.226  -7.069  -7.119  0.00  0.00    +0.080 A 
ATOM     10  C   LIG    1        7.581  -5.865  -6.525  0.00  0.00    +0.110 A 
ATOM     11  C   LIG    1        8.869  -5.685  -6.039  0.00  0.00    +0.030 A 
ATOM     12  C   LIG    1        9.793  -6.706  -6.137  0.00  0.00    -0.040 A 
BRANCH   7  14
ATOM     13  C   LIG    1       11.653  -8.659  -6.306  0.00  0.00    +0.240 C 
ATOM     14  O   LIG    1       10.349  -8.912  -6.832  0.00  0.00    -0.310 OA
ENDBRANCH   7  14
ENDBRANCH   2  10
ENDBRANCH   1   4
BRANCH   1  15
ATOM     15  N   LIG    1        5.005  -1.531  -4.096  0.00  0.00    -0.740 N 
ATOM     16  H   LIG    1        4.883  -2.380  -3.643  0.00  0.00    +0.400 HD
BRANCH  15  17
ATOM     17  C   LIG    1        4.729  -0.337  -3.426  0.00  0.00    +0.220 A 
ATOM     18  C   LIG    1        4.903   0.880  -4.072  0.00  0.00    -0.070 A 
ATOM     19  C   LIG    1        4.629   2.059  -3.407  0.00  0.00    +0.050 A 
ATOM     20  C   LIG    1        4.182   2.029  -2.099  0.00  0.00    -0.040 A 
ATOM     21  C   LIG    1        4.007   0.819  -1.453  0.00  0.00    -0.070 A 
ATOM     22  C   LIG    1        4.284  -0.363  -2.110  0.00  0.00    -0.060 A 
BRANCH  21  23
ATOM     23  C   LIG    1        3.518   0.791  -0.027  0.00  0.00    +0.350 C 
BRANCH  23  24
ATOM     24  N   LIG    1        2.055   0.731  -0.014  0.00  0.00    -0.450 N 
ATOM     25  C   LIG    1        1.288  -0.403  -0.012  0.00  0.00    +0.120 A 
ATOM     26  C   LIG    1        0.002  -0.004   0.002  0.00  0.00    +0.140 A 
ATOM     27  N   LIG    1       -0.016   1.337   0.009  0.00  0.00    -0.500 NA
ATOM     28  C   LIG    1        1.210   1.784   0.000  0.00  0.00    +0.380 A 
ENDBRANCH  23  24
ENDBRANCH  21  23
ENDBRANCH  15  17
ENDBRANCH   1  15
TORSDOF 7
