REMARK  Name = ZINCvU0000000BDm.0
REMARK                            x       y       z     vdW  Elec       q    Type
REMARK                         _______ _______ _______ _____ _____    ______ ____
ROOT
ATOM      1  C   LIG    1        2.059   2.976  -1.667  0.00  0.00    +0.560 C 
ATOM      2  N   LIG    1        1.540   4.160  -2.048  0.00  0.00    -0.660 N 
ATOM      3  H   LIG    1        0.807   4.551  -1.548  0.00  0.00    +0.410 HD
ATOM      4  O   LIG    1        3.037   2.530  -2.236  0.00  0.00    -0.470 OA
ENDROOT
BRANCH   2   5
ATOM      5  C   LIG    1        2.058   4.824  -3.167  0.00  0.00    +0.180 A 
ATOM      6  C   LIG    1        2.087   6.212  -3.198  0.00  0.00    -0.010 A 
ATOM      7  C   LIG    1        2.604   6.868  -4.298  0.00  0.00    +0.040 A 
ATOM      8  C   LIG    1        3.084   6.141  -5.378  0.00  0.00    +0.030 A 
ATOM      9  C   LIG    1        3.050   4.751  -5.351  0.00  0.00    +0.150 A 
ATOM     10  F   LIG    1        3.517   4.043  -6.402  0.00  0.00    -0.120 F 
ATOM     11  C   LIG    1        2.539   4.095  -4.247  0.00  0.00    +0.000 A 
BRANCH   8  12
ATOM     12  N   LIG    1        3.603   6.807  -6.496  0.00  0.00    -0.470 N 
ATOM     13  C   LIG    1        4.693   7.737  -6.103  0.00  0.00    +0.180 C 
ATOM     14  C   LIG    1        4.781   8.747  -7.268  0.00  0.00    +0.020 C 
ATOM     15  C   LIG    1        3.389   8.714  -7.933  0.00  0.00    +0.030 C 
ATOM     16  C   LIG    1        2.578   7.687  -7.115  0.00  0.00    +0.130 C 
BRANCH  16  17
ATOM     17  C   LIG    1        1.663   6.875  -8.034  0.00  0.00    -0.010 C 
ATOM     18  C   LIG    1        2.507   6.161  -9.092  0.00  0.00    +0.030 C 
ATOM     19  C   LIG    1        0.670   7.814  -8.723  0.00  0.00    +0.020 C 
ENDBRANCH  16  17
ENDBRANCH   8  12
ENDBRANCH   2   5
BRANCH   1  23
ATOM     20  C   LIG    1        0.284   0.806   1.529  0.00  0.00    +0.170 A 
ATOM     21  C   LIG    1        1.630   1.135   1.577  0.00  0.00    +0.040 A 
ATOM     22  C   LIG    1        2.209   1.841   0.543  0.00  0.00    +0.030 A 
ATOM     23  C   LIG    1        1.440   2.221  -0.560  0.00  0.00    -0.080 A 
ATOM     24  C   LIG    1        0.085   1.885  -0.614  0.00  0.00    +0.090 A 
ATOM     25  C   LIG    1       -0.490   1.177   0.427  0.00  0.00    -0.080 A 
BRANCH  22  26
ATOM     26  N   LIG    1        3.644   2.196   0.602  0.00  0.00    +0.020 N 
ATOM     27  O   LIG    1        4.128   2.920  -0.250  0.00  0.00    -0.120 OA
ATOM     28  O   LIG    1        4.342   1.764   1.502  0.00  0.00    -0.160 OA
ENDBRANCH  22  26
BRANCH  20  30
ATOM     29  C   LIG    1        0.567  -0.231   3.649  0.00  0.00    +0.280 C 
ATOM     30  O   LIG    1       -0.282   0.117   2.553  0.00  0.00    -0.290 OA
ENDBRANCH  20  30
BRANCH  25  31
ATOM     31  S   LIG    1       -2.198   0.750   0.365  0.00  0.00    -0.030 S 
ATOM     32  C   LIG    1       -2.736   1.448  -1.220  0.00  0.00    +0.130 C 
ENDBRANCH  25  31
ENDBRANCH   1  23
TORSDOF 7
