REMARK  Name = ZINCpk00000xIbls.0
REMARK                            x       y       z     vdW  Elec       q    Type
REMARK                         _______ _______ _______ _____ _____    ______ ____
ROOT
ATOM      1  N   LIG    1       -0.900   2.218   0.689  0.00  0.00    -0.670 N 
ATOM      2  H   LIG    1       -1.649   2.575   1.192  0.00  0.00    +0.430 HD
ENDROOT
BRANCH   1  11
ATOM      3  C   LIG    1        0.276   7.336  -2.445  0.00  0.00    +0.340 C 
ATOM      4  N   LIG    1       -0.417   6.435  -1.520  0.00  0.00    -0.560 N 
ATOM      5  C   LIG    1        0.014   5.164  -1.391  0.00  0.00    +0.590 C 
ATOM      6  C   LIG    1       -0.701   4.278  -0.455  0.00  0.00    -0.440 C 
ATOM      7  C   LIG    1       -1.846   4.853   0.272  0.00  0.00    +0.580 C 
ATOM      8  N   LIG    1       -2.160   6.145   0.046  0.00  0.00    -0.560 N 
ATOM      9  C   LIG    1       -3.291   6.742   0.761  0.00  0.00    +0.330 C 
ATOM     10  O   LIG    1       -2.488   4.182   1.058  0.00  0.00    -0.530 OA
ATOM     11  C   LIG    1       -0.316   2.962  -0.271  0.00  0.00    +0.520 C 
ATOM     12  O   LIG    1        0.967   4.759  -2.030  0.00  0.00    -0.510 OA
ATOM     13  C   LIG    1       -1.465   6.894  -0.822  0.00  0.00    +0.710 C 
ATOM     14  O   LIG    1       -1.803   8.050  -0.983  0.00  0.00    -0.530 OA
ENDBRANCH   1  11
BRANCH   1  15
ATOM     15  C   LIG    1       -0.403   0.869   0.974  0.00  0.00    +0.250 C 
BRANCH  15  16
ATOM     16  C   LIG    1       -1.344   0.177   1.962  0.00  0.00    +0.220 C 
BRANCH  16  17
ATOM     17  C   LIG    1       -0.760  -1.152   2.365  0.00  0.00    -0.070 A 
ATOM     18  C   LIG    1       -1.280  -2.322   1.845  0.00  0.00    +0.060 A 
ATOM     19  C   LIG    1       -0.741  -3.541   2.211  0.00  0.00    +0.010 A 
ATOM     20  C   LIG    1        0.312  -3.592   3.106  0.00  0.00    +0.030 A 
ATOM     21  C   LIG    1        0.830  -2.422   3.631  0.00  0.00    +0.030 A 
ATOM     22  C   LIG    1        0.294  -1.202   3.261  0.00  0.00    -0.030 A 
ATOM     23 CL   LIG    1        0.943   0.267   3.921  0.00  0.00    -0.070 Cl
ENDBRANCH  16  17
BRANCH  16  24
ATOM     24  N   LIG    1       -2.652  -0.035   1.328  0.00  0.00    -0.530 NA
ATOM     25  C   LIG    1       -2.497  -0.401  -0.086  0.00  0.00    +0.190 C 
ATOM     26  C   LIG    1       -3.506   1.151   1.474  0.00  0.00    +0.200 C 
ENDBRANCH  16  24
ENDBRANCH  15  16
ENDBRANCH   1  15
TORSDOF 5
