REMARK  Name = ZINCrD00000hQ4fT.0
REMARK                            x       y       z     vdW  Elec       q    Type
REMARK                         _______ _______ _______ _____ _____    ______ ____
ROOT
ATOM      1  C   LIG    1        4.726   4.633  -1.531  0.00  0.00    -0.020 C 
ATOM      2  C   LIG    1        5.429   5.980  -1.352  0.00  0.00    +0.100 C 
ATOM      3  C   LIG    1        5.692   5.139  -2.604  0.00  0.00    -0.020 C 
ENDROOT
BRANCH   1   5
ATOM      4  O   LIG    1        2.876   5.059  -2.933  0.00  0.00    -0.530 OA
ATOM      5  C   LIG    1        3.254   4.653  -1.854  0.00  0.00    +0.550 C 
ATOM      6  N   LIG    1        2.358   4.220  -0.945  0.00  0.00    -0.730 N 
ATOM      7  H   LIG    1        2.661   3.896  -0.082  0.00  0.00    +0.410 HD
BRANCH   6   8
ATOM      8  C   LIG    1        0.928   4.240  -1.259  0.00  0.00    +0.320 C 
BRANCH   8   9
ATOM      9  C   LIG    1        0.130   3.795  -0.032  0.00  0.00    -0.160 C 
ATOM     10  C   LIG    1        0.390   4.654   1.217  0.00  0.00    +0.070 C 
ATOM     11  C   LIG    1       -0.755   5.560   0.736  0.00  0.00    +0.040 C 
ATOM     12  C   LIG    1       -1.311   4.332  -0.005  0.00  0.00    +0.070 C 
BRANCH   9  13
ATOM     13  C   LIG    1        0.227   2.290   0.228  0.00  0.00    +0.460 C 
ATOM     14  F   LIG    1        1.545   1.958   0.560  0.00  0.00    -0.180 F 
ATOM     15  F   LIG    1       -0.153   1.593  -0.923  0.00  0.00    -0.180 F 
ATOM     16  F   LIG    1       -0.621   1.944   1.285  0.00  0.00    -0.180 F 
ENDBRANCH   9  13
ENDBRANCH   8   9
ENDBRANCH   6   8
ENDBRANCH   1   5
BRANCH   3  17
ATOM     17  C   LIG    1        7.030   4.455  -2.713  0.00  0.00    +0.550 C 
ATOM     18  N   LIG    1        7.920   4.860  -3.641  0.00  0.00    -0.730 N 
ATOM     19  H   LIG    1        7.699   5.592  -4.238  0.00  0.00    +0.410 HD
ATOM     20  O   LIG    1        7.307   3.540  -1.967  0.00  0.00    -0.530 OA
BRANCH  18  21
ATOM     21  C   LIG    1        9.221   4.195  -3.748  0.00  0.00    +0.320 C 
BRANCH  21  22
ATOM     22  C   LIG    1        9.984   4.757  -4.949  0.00  0.00    -0.160 C 
ATOM     23  C   LIG    1       11.511   4.619  -4.829  0.00  0.00    +0.070 C 
ATOM     24  C   LIG    1       11.501   5.987  -4.128  0.00  0.00    +0.040 C 
ATOM     25  C   LIG    1       10.196   6.279  -4.888  0.00  0.00    +0.070 C 
BRANCH  22  26
ATOM     26  C   LIG    1        9.426   4.269  -6.288  0.00  0.00    +0.460 C 
ATOM     27  F   LIG    1        9.398   2.870  -6.300  0.00  0.00    -0.180 F 
ATOM     28  F   LIG    1       10.241   4.728  -7.328  0.00  0.00    -0.180 F 
ATOM     29  F   LIG    1        8.129   4.763  -6.460  0.00  0.00    -0.180 F 
ENDBRANCH  22  26
ENDBRANCH  21  22
ENDBRANCH  18  21
ENDBRANCH   3  17
TORSDOF 8
