REMARK  Name = ZINCrH00000mk1id.0
REMARK                            x       y       z     vdW  Elec       q    Type
REMARK                         _______ _______ _______ _____ _____    ______ ____
ROOT
ATOM      1  O   LIG    1        0.728   0.574  -2.534  0.00  0.00    -0.540 OA
ATOM      2  C   LIG    1       -0.268   1.258  -2.409  0.00  0.00    +0.560 C 
ATOM      3  N   LIG    1       -0.721   1.571  -1.179  0.00  0.00    -0.720 N 
ATOM      4  H   LIG    1       -1.516   2.118  -1.079  0.00  0.00    +0.400 HD
ENDROOT
BRANCH   2   5
ATOM      5  C   LIG    1       -0.983   1.748  -3.607  0.00  0.00    -0.140 A 
ATOM      6  C   LIG    1       -2.128   2.534  -3.467  0.00  0.00    +0.040 A 
ATOM      7  C   LIG    1       -2.790   2.989  -4.589  0.00  0.00    +0.000 A 
ATOM      8  C   LIG    1       -2.322   2.667  -5.850  0.00  0.00    +0.060 A 
ATOM      9  C   LIG    1       -1.188   1.887  -5.996  0.00  0.00    -0.120 A 
ATOM     10  C   LIG    1       -0.513   1.431  -4.882  0.00  0.00    +0.100 A 
BRANCH   9  11
ATOM     11  C   LIG    1       -0.685   1.542  -7.374  0.00  0.00    +0.350 C 
BRANCH  11  12
ATOM     12  N   LIG    1        0.261   2.568  -7.820  0.00  0.00    -0.620 N 
ATOM     13  C   LIG    1        1.708   2.521  -7.582  0.00  0.00    +0.260 C 
ATOM     14  C   LIG    1        2.212   3.961  -7.824  0.00  0.00    +0.040 C 
ATOM     15  C   LIG    1        1.138   4.513  -8.789  0.00  0.00    +0.050 C 
ATOM     16  C   LIG    1       -0.086   3.671  -8.506  0.00  0.00    +0.520 C 
ATOM     17  O   LIG    1       -1.216   3.951  -8.846  0.00  0.00    -0.530 OA
ENDBRANCH  11  12
ENDBRANCH   9  11
ENDBRANCH   2   5
BRANCH   3  18
ATOM     18  C   LIG    1       -0.013   1.086   0.008  0.00  0.00    +0.270 C 
BRANCH  18  19
ATOM     19  C   LIG    1       -0.729   1.579   1.267  0.00  0.00    -0.070 C 
ATOM     20  C   LIG    1       -2.164   1.050   1.278  0.00  0.00    +0.030 C 
ATOM     21  C   LIG    1       -2.880   1.543   2.537  0.00  0.00    -0.020 C 
ATOM     22  C   LIG    1       -2.901   3.073   2.545  0.00  0.00    +0.010 C 
ATOM     23  C   LIG    1       -1.466   3.603   2.534  0.00  0.00    -0.020 C 
ATOM     24  C   LIG    1       -0.726   3.096   3.774  0.00  0.00    +0.010 C 
ATOM     25  C   LIG    1       -0.705   1.566   3.765  0.00  0.00    -0.020 C 
ATOM     26  C   LIG    1       -2.140   1.036   3.776  0.00  0.00    +0.010 C 
ATOM     27  C   LIG    1       -0.750   3.109   1.275  0.00  0.00    +0.030 C 
ATOM     28  C   LIG    1        0.011   1.072   2.506  0.00  0.00    +0.040 C 
ENDBRANCH  18  19
ENDBRANCH   3  18
TORSDOF 5
