REMARK  Name = ZINCrH000004mkJ2.0
REMARK                            x       y       z     vdW  Elec       q    Type
REMARK                         _______ _______ _______ _____ _____    ______ ____
ROOT
ATOM      1  C   LIG    1        2.801   3.976  -0.433  0.00  0.00    +0.110 A 
ATOM      2  C   LIG    1        1.546   3.398  -0.408  0.00  0.00    -0.030 A 
ATOM      3  C   LIG    1        1.381   2.079   0.000  0.00  0.00    -0.060 A 
ATOM      4  C   LIG    1        2.481   1.341   0.376  0.00  0.00    -0.100 A 
ATOM      5  C   LIG    1        2.374  -0.098   0.816  0.00  0.00    +0.330 C 
ATOM      6  N   LIG    1        0.965  -0.449   1.023  0.00  0.00    -0.620 N 
ATOM      7  C   LIG    1        0.002  -0.004   0.002  0.00  0.00    +0.290 C 
ATOM      8  C   LIG    1        0.568  -1.149   2.104  0.00  0.00    +0.520 C 
ATOM      9  O   LIG    1       -0.603  -1.425   2.251  0.00  0.00    -0.520 OA
ATOM     10  C   LIG    1        3.744   1.918   0.356  0.00  0.00    -0.030 A 
ATOM     11  C   LIG    1       -0.019   1.524   0.010  0.00  0.00    +0.080 C 
ATOM     12  C   LIG    1        3.911   3.230  -0.046  0.00  0.00    +0.100 A 
ENDROOT
BRANCH   1  14
ATOM     13  C   LIG    1        1.767   5.969  -1.217  0.00  0.00    +0.250 C 
ATOM     14  O   LIG    1        2.951   5.267  -0.834  0.00  0.00    -0.310 OA
ENDBRANCH   1  14
BRANCH  12  15
ATOM     15  O   LIG    1        5.150   3.789  -0.062  0.00  0.00    -0.310 OA
ATOM     16  C   LIG    1        6.240   2.962   0.350  0.00  0.00    +0.250 C 
ENDBRANCH  12  15
BRANCH   8  17
ATOM     17  C   LIG    1        1.581  -1.589   3.130  0.00  0.00    +0.100 C 
BRANCH  17  18
ATOM     18  C   LIG    1        0.884  -2.348   4.230  0.00  0.00    -0.070 A 
ATOM     19  C   LIG    1        0.728  -3.718   4.135  0.00  0.00    +0.010 A 
ATOM     20  C   LIG    1        0.086  -4.406   5.145  0.00  0.00    +0.000 A 
ATOM     21  C   LIG    1       -0.405  -3.733   6.255  0.00  0.00    -0.070 A 
ATOM     22  C   LIG    1       -1.108  -4.544   7.312  0.00  0.00    +0.070 C 
ATOM     23  C   LIG    1       -1.193  -3.762   8.622  0.00  0.00    +0.020 C 
ATOM     24  C   LIG    1       -1.775  -2.376   8.321  0.00  0.00    +0.020 C 
ATOM     25  C   LIG    1       -0.738  -1.577   7.535  0.00  0.00    +0.070 C 
ATOM     26  C   LIG    1       -0.245  -2.369   6.352  0.00  0.00    -0.070 A 
ATOM     27  C   LIG    1        0.404  -1.679   5.337  0.00  0.00    +0.020 A 
ENDBRANCH  17  18
ENDBRANCH   8  17
TORSDOF 4
