REMARK  Name = ZINCrg000000r4BM.0
REMARK                            x       y       z     vdW  Elec       q    Type
REMARK                         _______ _______ _______ _____ _____    ______ ____
ROOT
ATOM      1  C   LIG    1       -0.037   2.238   2.168  0.00  0.00    +0.520 C 
ATOM      2  N   LIG    1       -0.778   2.081   1.053  0.00  0.00    -0.610 N 
ATOM      3  C   LIG    1       -0.160   2.174  -0.276  0.00  0.00    +0.290 C 
ATOM      4  C   LIG    1       -0.928   3.205  -1.109  0.00  0.00    +0.030 C 
ATOM      5  C   LIG    1       -2.412   2.831  -1.134  0.00  0.00    +0.240 C 
ATOM      6  C   LIG    1       -2.969   2.850   0.291  0.00  0.00    +0.010 C 
ATOM      7  C   LIG    1       -2.224   1.815   1.140  0.00  0.00    +0.280 C 
ATOM      8  O   LIG    1       -0.571   2.238   3.257  0.00  0.00    -0.530 OA
ENDROOT
BRANCH   1  12
ATOM      9  N   LIG    1        4.125   2.014   2.909  0.00  0.00    -1.000 NA
ATOM     10  C   LIG    1        3.493   3.309   3.197  0.00  0.00    +0.300 C 
ATOM     11  C   LIG    1        1.980   3.101   3.324  0.00  0.00    +0.040 C 
ATOM     12  C   LIG    1        1.456   2.413   2.062  0.00  0.00    -0.010 C 
ATOM     13  C   LIG    1        2.121   1.043   1.913  0.00  0.00    +0.030 C 
ATOM     14  C   LIG    1        3.635   1.227   1.770  0.00  0.00    +0.300 C 
BRANCH   9  16
ATOM     15  C   LIG    1        4.547   0.500   5.159  0.00  0.00    -0.280 C 
ATOM     16  S   LIG    1        5.366   1.453   3.851  0.00  0.00    +2.610 S 
ATOM     17  O   LIG    1        5.958   2.629   4.387  0.00  0.00    -0.950 OA
ATOM     18  O   LIG    1        6.098   0.592   2.990  0.00  0.00    -0.950 OA
ENDBRANCH   9  16
ENDBRANCH   1  12
BRANCH   5  19
ATOM     19  N   LIG    1       -3.145   3.796  -1.958  0.00  0.00    -0.720 N 
ATOM     20  H   LIG    1       -2.795   4.692  -2.082  0.00  0.00    +0.400 HD
ATOM     21  C   LIG    1       -4.305   3.439  -2.543  0.00  0.00    +0.560 C 
ATOM     22  O   LIG    1       -4.744   2.316  -2.387  0.00  0.00    -0.530 OA
BRANCH  21  23
ATOM     23  C   LIG    1       -5.044   4.413  -3.373  0.00  0.00    -0.140 A 
ATOM     24  C   LIG    1       -4.546   5.705  -3.549  0.00  0.00    +0.030 A 
ATOM     25  C   LIG    1       -5.239   6.608  -4.330  0.00  0.00    +0.000 A 
ATOM     26  C   LIG    1       -6.430   6.238  -4.929  0.00  0.00    +0.040 A 
ATOM     27  C   LIG    1       -6.932   4.960  -4.754  0.00  0.00    +0.000 A 
ATOM     28  C   LIG    1       -6.247   4.047  -3.981  0.00  0.00    +0.080 A 
ENDBRANCH  21  23
ENDBRANCH   5  19
TORSDOF 4
