REMARK  Name = ZINCah0000006ljn.0
REMARK                            x       y       z     vdW  Elec       q    Type
REMARK                         _______ _______ _______ _____ _____    ______ ____
ROOT
ATOM      1  C   LIG    1       -0.013   1.086   0.008  0.00  0.00    +0.050 C 
ATOM      2  C   LIG    1       -0.729   1.579   1.267  0.00  0.00    +0.200 C 
ATOM      3  O   LIG    1       -0.141   1.012   2.470  0.00  0.00    -0.350 OA
ATOM      4  C   LIG    1       -1.248   0.236   3.022  0.00  0.00    +0.070 C 
ATOM      5  C   LIG    1       -1.962  -0.516   1.862  0.00  0.00    +0.070 C 
ATOM      6  C   LIG    1       -1.001  -0.501   4.339  0.00  0.00    +0.100 C 
ATOM      7  C   LIG    1       -2.467   1.181   2.891  0.00  0.00    +0.030 C 
ATOM      8  C   LIG    1       -2.171   0.974   1.381  0.00  0.00    -0.210 C 
ENDROOT
BRANCH   8   9
ATOM      9  C   LIG    1       -3.189   1.324   0.326  0.00  0.00    +0.490 C 
ATOM     10  O   LIG    1       -4.247   1.809   0.646  0.00  0.00    -0.450 OA
ENDBRANCH   8   9
TORSDOF 1
