REMARK  Name = ZINCvU00000009Fc.0
REMARK                            x       y       z     vdW  Elec       q    Type
REMARK                         _______ _______ _______ _____ _____    ______ ____
ROOT
ATOM      1  C   LIG    1        6.237   1.487  -2.229  0.00  0.00    +0.600 C 
ATOM      2  N   LIG    1        5.912   1.127  -0.971  0.00  0.00    -0.600 N 
ATOM      3  C   LIG    1        6.537   1.790   0.182  0.00  0.00    +0.290 C 
ATOM      4  C   LIG    1        7.144   0.720   1.095  0.00  0.00    +0.030 C 
ATOM      5  C   LIG    1        6.066  -0.301   1.466  0.00  0.00    +0.050 C 
ATOM      6  C   LIG    1        5.551  -0.985   0.197  0.00  0.00    +0.080 C 
ATOM      7  C   LIG    1        4.926   0.066  -0.727  0.00  0.00    +0.290 C 
ATOM      8  O   LIG    1        6.998   2.417  -2.418  0.00  0.00    -0.510 OA
ENDROOT
BRANCH   1  11
ATOM      9  C   LIG    1        7.888   0.402  -4.456  0.00  0.00    +0.130 C 
ATOM     10  C   LIG    1        6.389   0.257  -4.385  0.00  0.00    -0.010 A 
ATOM     11  C   LIG    1        5.673   0.754  -3.372  0.00  0.00    -0.240 A 
ATOM     12  S   LIG    1        3.965   0.419  -3.597  0.00  0.00    +0.130 S 
ATOM     13  C   LIG    1        4.279  -0.424  -5.110  0.00  0.00    -0.130 A 
ATOM     14  C   LIG    1        3.401  -1.048  -6.003  0.00  0.00    +0.040 A 
ATOM     15  C   LIG    1        3.885  -1.651  -7.138  0.00  0.00    +0.040 A 
ATOM     16  C   LIG    1        5.249  -1.645  -7.406  0.00  0.00    +0.010 A 
ATOM     17  C   LIG    1        6.121  -1.045  -6.553  0.00  0.00    +0.060 A 
ATOM     18  C   LIG    1        5.654  -0.414  -5.375  0.00  0.00    -0.080 A 
ENDBRANCH   1  11
BRANCH   6  19
ATOM     19  C   LIG    1        4.512  -2.012   0.565  0.00  0.00    +0.160 A 
ATOM     20  N   LIG    1        3.385  -1.784   1.189  0.00  0.00    -0.230 NA
ATOM     21  N   LIG    1        2.731  -2.881   1.345  0.00  0.00    -0.270 NA
ATOM     22  C   LIG    1        3.418  -3.883   0.821  0.00  0.00    +0.200 A 
ATOM     23  C   LIG    1        3.183  -5.267   0.712  0.00  0.00    +0.110 A 
ATOM     24  C   LIG    1        4.109  -6.052   0.099  0.00  0.00    +0.090 A 
ATOM     25  C   LIG    1        5.283  -5.474  -0.414  0.00  0.00    -0.200 A 
ATOM     26  C   LIG    1        5.495  -4.146  -0.302  0.00  0.00    +0.320 A 
ATOM     27  N   LIG    1        4.575  -3.347   0.310  0.00  0.00    -0.390 N 
BRANCH  25  28
ATOM     28  C   LIG    1        6.311  -6.343  -1.093  0.00  0.00    +0.520 C 
ATOM     29  F   LIG    1        7.058  -5.569  -1.987  0.00  0.00    -0.170 F 
ATOM     30  F   LIG    1        5.666  -7.370  -1.791  0.00  0.00    -0.160 F 
ATOM     31  F   LIG    1        7.162  -6.897  -0.131  0.00  0.00    -0.170 F 
ENDBRANCH  25  28
ENDBRANCH   6  19
TORSDOF 3
