REMARK  Name = ZINCrH000004mrI0.0
REMARK                            x       y       z     vdW  Elec       q    Type
REMARK                         _______ _______ _______ _____ _____    ______ ____
ROOT
ATOM      1  C   LIG    1       -0.821   1.627  -1.190  0.00  0.00    +0.280 C 
ATOM      2  C   LIG    1       -0.013   1.086   0.008  0.00  0.00    +0.050 C 
ATOM      3  C   LIG    1       -0.802   1.617   1.234  0.00  0.00    +0.040 C 
ATOM      4  C   LIG    1       -2.264   1.534   0.716  0.00  0.00    +0.250 C 
ATOM      5  N   LIG    1       -2.183   1.902  -0.710  0.00  0.00    -0.610 N 
ATOM      6  C   LIG    1       -3.190   2.407  -1.449  0.00  0.00    +0.510 C 
ATOM      7  O   LIG    1       -3.008   2.675  -2.618  0.00  0.00    -0.500 OA
ENDROOT
BRANCH   1  14
ATOM      8  C   LIG    1        0.214   0.470  -3.159  0.00  0.00    +0.150 A 
ATOM      9  C   LIG    1        0.176  -0.478  -4.171  0.00  0.00    -0.060 A 
ATOM     10  C   LIG    1       -0.931  -1.294  -4.310  0.00  0.00    +0.090 A 
ATOM     11  C   LIG    1       -2.000  -1.165  -3.442  0.00  0.00    -0.120 A 
ATOM     12  C   LIG    1       -1.961  -0.223  -2.429  0.00  0.00    +0.100 A 
ATOM     13 BR   LIG    1       -3.512  -2.284  -3.634  0.00  0.00    -0.050 Br
ATOM     14  C   LIG    1       -0.859   0.598  -2.290  0.00  0.00    -0.110 A 
BRANCH   8  16
ATOM     15  C   LIG    1        2.370   1.086  -3.951  0.00  0.00    +0.240 C 
ATOM     16  O   LIG    1        1.302   1.273  -3.020  0.00  0.00    -0.310 OA
ENDBRANCH   8  16
ENDBRANCH   1  14
BRANCH   6  17
ATOM     17  C   LIG    1       -4.541   2.639  -0.824  0.00  0.00    +0.170 C 
ATOM     18  C   LIG    1       -5.223   1.296  -0.467  0.00  0.00    +0.100 C 
ATOM     19  C   LIG    1       -6.074   1.022  -1.692  0.00  0.00    +0.130 C 
ATOM     20  N   LIG    1       -6.162   2.113  -2.376  0.00  0.00    -0.260 NA
ATOM     21  O   LIG    1       -5.465   3.192  -1.783  0.00  0.00    -0.160 OA
BRANCH  19  22
ATOM     22  C   LIG    1       -6.694  -0.272  -2.043  0.00  0.00    +0.170 A 
ATOM     23  C   LIG    1       -7.455  -0.382  -3.207  0.00  0.00    +0.010 A 
ATOM     24  C   LIG    1       -8.030  -1.601  -3.522  0.00  0.00    +0.070 A 
ATOM     25  C   LIG    1       -7.826  -2.671  -2.663  0.00  0.00    -0.020 A 
ATOM     26  C   LIG    1       -7.059  -2.492  -1.525  0.00  0.00    +0.270 A 
ATOM     27  N   LIG    1       -6.519  -1.323  -1.250  0.00  0.00    -0.450 NA
ENDBRANCH  19  22
ENDBRANCH   6  17
TORSDOF 4
