REMARK  Name = ZINCpk00000e1GOR.0
REMARK                            x       y       z     vdW  Elec       q    Type
REMARK                         _______ _______ _______ _____ _____    ______ ____
ROOT
ATOM      1  O   LIG    1       -1.849   0.189   0.409  0.00  0.00    -0.530 OA
ATOM      2  C   LIG    1       -0.890  -0.524   0.182  0.00  0.00    +0.580 C 
ATOM      3  N   LIG    1       -1.052  -1.858   0.078  0.00  0.00    -0.610 N 
ATOM      4  C   LIG    1       -2.343  -2.570   0.078  0.00  0.00    +0.260 C 
ATOM      5  C   LIG    1       -2.005  -4.004   0.556  0.00  0.00    +0.040 C 
ATOM      6  C   LIG    1       -0.627  -4.240  -0.116  0.00  0.00    +0.040 C 
ATOM      7  C   LIG    1        0.030  -2.844  -0.061  0.00  0.00    +0.220 C 
ENDROOT
BRANCH   2   8
ATOM      8  C   LIG    1        0.450   0.071   0.022  0.00  0.00    -0.180 A 
ATOM      9  C   LIG    1        0.583   1.435  -0.255  0.00  0.00    +0.120 A 
ATOM     10  C   LIG    1        1.834   1.987  -0.403  0.00  0.00    -0.040 A 
ATOM     11  C   LIG    1        2.968   1.189  -0.279  0.00  0.00    +0.140 A 
ATOM     12  C   LIG    1        2.840  -0.170  -0.004  0.00  0.00    +0.000 A 
ATOM     13  C   LIG    1        1.591  -0.728   0.146  0.00  0.00    +0.070 A 
BRANCH  11  14
ATOM     14  N   LIG    1        4.231   1.750  -0.430  0.00  0.00    -0.490 N 
ATOM     15  C   LIG    1        5.061   1.507   0.759  0.00  0.00    +0.180 C 
ATOM     16  C   LIG    1        6.458   2.088   0.527  0.00  0.00    +0.230 C 
ATOM     17  O   LIG    1        6.346   3.480   0.221  0.00  0.00    -0.380 OA
ATOM     18  C   LIG    1        5.544   3.754  -0.932  0.00  0.00    +0.230 C 
ATOM     19  C   LIG    1        4.138   3.190  -0.714  0.00  0.00    +0.170 C 
ENDBRANCH  11  14
ENDBRANCH   2   8
BRANCH   7  20
ATOM     20  C   LIG    1        0.809  -2.583  -1.352  0.00  0.00    +0.320 C 
BRANCH  20  21
ATOM     21  N   LIG    1        2.007  -3.426  -1.378  0.00  0.00    -0.290 N 
ATOM     22  C   LIG    1        2.354  -4.278  -2.371  0.00  0.00    +0.140 A 
ATOM     23  C   LIG    1        3.521  -4.848  -1.987  0.00  0.00    +0.140 A 
ATOM     24  N   LIG    1        3.826  -4.324  -0.795  0.00  0.00    -0.260 NA
ATOM     25  N   LIG    1        2.912  -3.481  -0.465  0.00  0.00    -0.090 NA
ENDBRANCH  20  21
ENDBRANCH   7  20
TORSDOF 4
