REMARK  Name = ZINCfA0000021lhP.0
REMARK                            x       y       z     vdW  Elec       q    Type
REMARK                         _______ _______ _______ _____ _____    ______ ____
ROOT
ATOM      1  C   LIG    1        2.036  -3.847   2.529  0.00  0.00    -0.050 A 
ATOM      2  C   LIG    1        2.350  -3.923   1.185  0.00  0.00    +0.020 A 
ATOM      3  C   LIG    1        2.171  -2.821   0.370  0.00  0.00    +0.030 A 
ATOM      4  C   LIG    1        1.677  -1.643   0.899  0.00  0.00    -0.110 A 
ATOM      5  C   LIG    1        1.368  -1.566   2.244  0.00  0.00    +0.010 A 
ATOM      6  C   LIG    1        1.543  -2.669   3.058  0.00  0.00    +0.010 A 
ENDROOT
BRANCH   4   7
ATOM      7  C   LIG    1        1.482  -0.441   0.011  0.00  0.00    +0.050 C 
ATOM      8  C   LIG    1        2.209   0.798   0.597  0.00  0.00    +0.080 C 
ATOM      9  C   LIG    1        1.377   1.960  -0.001  0.00  0.00    +0.270 C 
ATOM     10  N   LIG    1       -0.018   1.470   0.010  0.00  0.00    -0.510 N 
ATOM     11  H   LIG    1       -0.487   1.799   0.841  0.00  0.00    +0.430 HD
ATOM     12  H   LIG    1       -0.503   1.808  -0.808  0.00  0.00    +0.430 HD
ATOM     13  C   LIG    1        0.002  -0.004   0.002  0.00  0.00    +0.260 C 
ENDBRANCH   4   7
BRANCH   1  15
ATOM     14  C   LIG    1        3.705  -5.458   3.405  0.00  0.00    +0.050 C 
ATOM     15  C   LIG    1        2.231  -5.049   3.417  0.00  0.00    -0.040 C 
ATOM     16  C   LIG    1        1.376  -6.208   2.903  0.00  0.00    +0.050 C 
ATOM     17  C   LIG    1        1.811  -4.700   4.847  0.00  0.00    +0.030 C 
ENDBRANCH   1  15
TORSDOF 2
