REMARK  Name = ZINCrg000000plMa.0
REMARK                            x       y       z     vdW  Elec       q    Type
REMARK                         _______ _______ _______ _____ _____    ______ ____
ROOT
ATOM      1  C   LIG    1        1.736   0.907   3.474  0.00  0.00    +0.440 A 
ATOM      2  N   LIG    1        2.767   0.359   2.856  0.00  0.00    -0.630 NA
ATOM      3  C   LIG    1        3.984   0.877   3.001  0.00  0.00    +0.630 A 
ATOM      4  N   LIG    1        4.164   1.940   3.778  0.00  0.00    -0.640 NA
ATOM      5  C   LIG    1        3.125   2.485   4.402  0.00  0.00    +0.630 A 
ATOM      6  N   LIG    1        1.910   1.965   4.247  0.00  0.00    -0.610 NA
ENDROOT
BRANCH   5   7
ATOM      7  N   LIG    1        3.307   3.590   5.209  0.00  0.00    -0.800 N 
ATOM      8  H   LIG    1        4.192   3.968   5.321  0.00  0.00    +0.420 HD
ATOM      9  H   LIG    1        2.548   3.987   5.665  0.00  0.00    +0.420 HD
ENDBRANCH   5   7
BRANCH   3  10
ATOM     10  N   LIG    1        5.061   0.307   2.350  0.00  0.00    -0.630 N 
ATOM     11  H   LIG    1        4.941  -0.508   1.837  0.00  0.00    +0.430 HD
BRANCH  10  12
ATOM     12  C   LIG    1        6.322   0.905   2.429  0.00  0.00    +0.150 A 
ATOM     13  C   LIG    1        6.434   2.287   2.503  0.00  0.00    +0.020 A 
ATOM     14  C   LIG    1        7.681   2.874   2.586  0.00  0.00    +0.020 A 
ATOM     15  C   LIG    1        8.819   2.088   2.584  0.00  0.00    -0.100 A 
ATOM     16  C   LIG    1        8.711   0.711   2.505  0.00  0.00    +0.030 A 
ATOM     17  C   LIG    1       10.179   2.732   2.668  0.00  0.00    +0.100 C 
ATOM     18  C   LIG    1        7.467   0.118   2.427  0.00  0.00    -0.010 A 
ENDBRANCH  10  12
ENDBRANCH   3  10
BRANCH   1  19
ATOM     19  C   LIG    1        0.358   0.321   3.302  0.00  0.00    +0.300 C 
BRANCH  19  24
ATOM     20  C   LIG    1       -2.420   1.392   0.998  0.00  0.00    -0.440 C 
ATOM     21  C   LIG    1       -1.745   1.083  -0.341  0.00  0.00    +0.060 C 
ATOM     22  C   LIG    1       -0.256   1.426  -0.244  0.00  0.00    +0.040 C 
ATOM     23  C   LIG    1        0.372   0.630   0.901  0.00  0.00    +0.170 C 
ATOM     24  N   LIG    1       -0.308   0.961   2.160  0.00  0.00    -0.520 NA
ATOM     25  C   LIG    1       -1.729   0.597   2.108  0.00  0.00    +0.230 C 
BRANCH  20  26
ATOM     26  S   LIG    1       -4.171   0.923   0.916  0.00  0.00    +2.610 S 
ATOM     27  O   LIG    1       -4.867   1.393   2.062  0.00  0.00    -0.950 OA
ATOM     28  O   LIG    1       -4.306  -0.422   0.478  0.00  0.00    -0.950 OA
BRANCH  26  30
ATOM     29  C   LIG    1       -4.814   3.284  -0.234  0.00  0.00    +0.290 C 
ATOM     30  N   LIG    1       -4.782   1.823  -0.332  0.00  0.00    -1.120 NA
ATOM     31  H   LIG    1       -5.120   1.382  -1.127  0.00  0.00    +0.420 HD
ENDBRANCH  26  30
ENDBRANCH  20  26
ENDBRANCH  19  24
ENDBRANCH   1  19
TORSDOF 7
