REMARK  Name = ZINCrH000004sQqr.0
REMARK                            x       y       z     vdW  Elec       q    Type
REMARK                         _______ _______ _______ _____ _____    ______ ____
ROOT
ATOM      1  C   LIG    1        3.639   1.448  -0.025  0.00  0.00    +0.620 C 
ATOM      2  N   LIG    1        4.308   1.587   1.137  0.00  0.00    -0.630 N 
ATOM      3  C   LIG    1        3.973   1.509   2.568  0.00  0.00    +0.280 C 
ATOM      4  C   LIG    1        5.432   1.123   2.826  0.00  0.00    -0.090 C 
ATOM      5  C   LIG    1        6.035   1.769   4.070  0.00  0.00    +0.030 C 
ATOM      6  C   LIG    1        5.585   0.981   5.306  0.00  0.00    +0.210 C 
ATOM      7  O   LIG    1        5.932  -0.395   5.142  0.00  0.00    -0.380 OA
ATOM      8  C   LIG    1        5.281  -1.042   4.046  0.00  0.00    +0.210 C 
ATOM      9  C   LIG    1        5.714  -0.375   2.735  0.00  0.00    +0.030 C 
ATOM     10  C   LIG    1        5.693   1.890   1.531  0.00  0.00    +0.320 C 
ATOM     11  O   LIG    1        4.223   1.585  -1.083  0.00  0.00    -0.520 OA
ENDROOT
BRANCH   1  18
ATOM     12  C   LIG    1        1.543   3.573   0.006  0.00  0.00    +0.170 C 
ATOM     13  C   LIG    1        1.206   2.104   0.002  0.00  0.00    +0.150 A 
ATOM     14  N   LIG    1       -0.021   1.691   0.011  0.00  0.00    -0.460 NA
ATOM     15  S   LIG    1        0.002  -0.004   0.002  0.00  0.00    +0.290 S 
ATOM     16  C   LIG    1        1.715  -0.161  -0.015  0.00  0.00    -0.140 A 
ATOM     17  C   LIG    1        2.515  -1.438  -0.029  0.00  0.00    +0.170 C 
ATOM     18  C   LIG    1        2.200   1.129  -0.013  0.00  0.00    -0.210 A 
ENDBRANCH   1  18
BRANCH  10  19
ATOM     19  C   LIG    1        5.949   3.360   1.744  0.00  0.00    -0.240 A 
ATOM     20  C   LIG    1        7.157   3.968   1.730  0.00  0.00    +0.250 A 
ATOM     21  N   LIG    1        6.959   5.284   1.958  0.00  0.00    -0.360 N 
ATOM     22  N   LIG    1        5.583   5.489   2.127  0.00  0.00    -0.280 NA
ATOM     23  C   LIG    1        4.979   4.335   1.999  0.00  0.00    +0.230 A 
BRANCH  21  24
ATOM     24  C   LIG    1        7.998   6.314   2.023  0.00  0.00    +0.180 C 
ATOM     25  C   LIG    1        9.171   5.803   2.863  0.00  0.00    +0.060 C 
ATOM     26  C   LIG    1        7.424   7.578   2.666  0.00  0.00    +0.070 C 
ATOM     27  C   LIG    1        8.486   6.636   0.610  0.00  0.00    +0.050 C 
ENDBRANCH  21  24
ENDBRANCH  10  19
TORSDOF 3
