REMARK  Name = ZINCrg000000oWLy.0
REMARK                            x       y       z     vdW  Elec       q    Type
REMARK                         _______ _______ _______ _____ _____    ______ ____
ROOT
ATOM      1  C   LIG    1        7.538  -0.232  -3.469  0.00  0.00    +0.290 C 
ATOM      2  N   LIG    1        7.399   1.099  -2.874  0.00  0.00    -0.610 N 
ATOM      3  C   LIG    1        7.693   2.196  -3.600  0.00  0.00    +0.560 C 
ATOM      4  O   LIG    1        7.500   3.303  -3.135  0.00  0.00    -0.520 OA
ENDROOT
BRANCH   3   5
ATOM      5  C   LIG    1        8.251   2.054  -4.960  0.00  0.00    -0.110 A 
ATOM      6  C   LIG    1        7.741   1.084  -5.828  0.00  0.00    +0.070 A 
ATOM      7  C   LIG    1        8.258   0.950  -7.097  0.00  0.00    +0.070 A 
ATOM      8  C   LIG    1        9.290   1.777  -7.519  0.00  0.00    +0.060 A 
ATOM      9  O   LIG    1        9.979   1.869  -8.682  0.00  0.00    -0.230 OA
ATOM     10  C   LIG    1       10.891   2.849  -8.579  0.00  0.00    +0.640 A 
ATOM     11  N   LIG    1       10.815   3.408  -7.356  0.00  0.00    -0.650 N 
ATOM     12  H   LIG    1       11.362   4.136  -7.023  0.00  0.00    +0.450 HD
ATOM     13  O   LIG    1       11.667   3.179  -9.455  0.00  0.00    -0.480 OA
ATOM     14  C   LIG    1        9.805   2.748  -6.656  0.00  0.00    +0.060 A 
ATOM     15  C   LIG    1        9.285   2.891  -5.383  0.00  0.00    +0.100 A 
ENDBRANCH   3   5
BRANCH   2  16
ATOM     16  C   LIG    1        6.940   1.238  -1.490  0.00  0.00    +0.300 C 
BRANCH  16  17
ATOM     17  C   LIG    1        5.414   1.350  -1.467  0.00  0.00    +0.010 C 
BRANCH  17  18
ATOM     18  C   LIG    1        4.935   1.495  -0.021  0.00  0.00    +0.320 C 
BRANCH  18  19
ATOM     19  N   LIG    1        3.474   1.601   0.000  0.00  0.00    -0.470 N 
ATOM     20  C   LIG    1        2.749   2.756   0.024  0.00  0.00    +0.470 A 
ATOM     21  N   LIG    1        1.477   2.482   0.038  0.00  0.00    -0.460 NA
ATOM     22  C   LIG    1        1.304   1.139   0.025  0.00  0.00    -0.110 A 
ATOM     23  C   LIG    1        0.188   0.286   0.030  0.00  0.00    +0.510 A 
ATOM     24  N   LIG    1        0.394  -1.027   0.012  0.00  0.00    -0.590 NA
ATOM     25  C   LIG    1        1.616  -1.527  -0.011  0.00  0.00    +0.560 A 
ATOM     26  N   LIG    1        2.691  -0.767  -0.017  0.00  0.00    -0.560 NA
ATOM     27  C   LIG    1        2.583   0.557   0.000  0.00  0.00    +0.300 A 
BRANCH  23  28
ATOM     28  N   LIG    1       -1.096   0.801   0.048  0.00  0.00    -0.820 N 
ATOM     29  H   LIG    1       -1.234   1.761   0.062  0.00  0.00    +0.420 HD
ATOM     30  H   LIG    1       -1.859   0.201   0.048  0.00  0.00    +0.410 HD
ENDBRANCH  23  28
ENDBRANCH  18  19
ENDBRANCH  17  18
ENDBRANCH  16  17
ENDBRANCH   2  16
TORSDOF 6
