REMARK  Name = ZINCpe000000SVvy.0
REMARK                            x       y       z     vdW  Elec       q    Type
REMARK                         _______ _______ _______ _____ _____    ______ ____
ROOT
ATOM      1  C   LIG    1       -2.447   1.268   0.358  0.00  0.00    +0.260 C 
ATOM      2  C   LIG    1       -3.463   2.099  -0.378  0.00  0.00    +0.520 C 
ATOM      3  N   LIG    1       -3.223   3.344  -0.790  0.00  0.00    -0.720 N 
ATOM      4  H   LIG    1       -3.954   3.832  -1.200  0.00  0.00    +0.400 HD
ATOM      5  C   LIG    1       -1.940   4.023  -0.667  0.00  0.00    +0.260 C 
ATOM      6  C   LIG    1       -1.090   3.383   0.439  0.00  0.00    +0.280 C 
ATOM      7  O   LIG    1       -4.551   1.613  -0.607  0.00  0.00    -0.540 OA
ATOM      8  N   LIG    1       -1.134   1.922   0.255  0.00  0.00    -0.610 N 
ATOM      9  C   LIG    1       -0.014   1.213   0.009  0.00  0.00    +0.620 C 
ATOM     10  O   LIG    1       -0.089   0.023  -0.235  0.00  0.00    -0.540 OA
ENDROOT
BRANCH   9  11
ATOM     11  C   LIG    1        1.294   1.877   0.028  0.00  0.00    -0.380 A 
ATOM     12  C   LIG    1        2.327   1.700  -0.890  0.00  0.00    +0.460 A 
ATOM     13  N   LIG    1        3.346   2.499  -0.499  0.00  0.00    -0.350 N 
ATOM     14  N   LIG    1        2.957   3.177   0.661  0.00  0.00    -0.290 NA
ATOM     15  C   LIG    1        1.745   2.822   0.980  0.00  0.00    +0.330 A 
BRANCH  13  16
ATOM     16  C   LIG    1        4.578   2.627  -1.146  0.00  0.00    +0.370 A 
ATOM     17  C   LIG    1        5.314   3.796  -1.000  0.00  0.00    -0.010 A 
ATOM     18  C   LIG    1        6.536   3.906  -1.641  0.00  0.00    +0.100 A 
ATOM     19  C   LIG    1        6.974   2.844  -2.418  0.00  0.00    -0.030 A 
ATOM     20  C   LIG    1        6.187   1.713  -2.524  0.00  0.00    +0.300 A 
ATOM     21  N   LIG    1        5.030   1.634  -1.896  0.00  0.00    -0.520 NA
ENDBRANCH  13  16
BRANCH  12  22
ATOM     22  N   LIG    1        2.313   0.867  -1.989  0.00  0.00    -0.820 N 
ATOM     23  H   LIG    1        3.089   0.817  -2.569  0.00  0.00    +0.420 HD
ATOM     24  H   LIG    1        1.528   0.331  -2.182  0.00  0.00    +0.420 HD
ENDBRANCH  12  22
ENDBRANCH   9  11
BRANCH   1  25
ATOM     25  C   LIG    1       -2.848   1.153   1.830  0.00  0.00    +0.040 C 
BRANCH  25  27
ATOM     26  C   LIG    1       -2.200   0.200   4.047  0.00  0.00    +0.020 C 
ATOM     27  C   LIG    1       -1.875   0.219   2.552  0.00  0.00    -0.020 C 
ATOM     28  C   LIG    1       -2.008  -1.196   1.983  0.00  0.00    +0.020 C 
ENDBRANCH  25  27
ENDBRANCH   1  25
TORSDOF 5
