REMARK  Name = ZINCqH0000007KRI.0
REMARK                            x       y       z     vdW  Elec       q    Type
REMARK                         _______ _______ _______ _____ _____    ______ ____
ROOT
ATOM      1  C   LIG    1        4.041   1.425  -1.260  0.00  0.00    +0.370 C 
ATOM      2  O   LIG    1        3.379   2.313  -1.741  0.00  0.00    -0.400 OA
ENDROOT
BRANCH   1   3
ATOM      3  C   LIG    1        5.354   1.038  -1.890  0.00  0.00    +0.160 C 
BRANCH   3   6
ATOM      4  C   LIG    1        6.728   4.074  -2.106  0.00  0.00    +0.180 A 
ATOM      5  C   LIG    1        6.214   3.236  -3.103  0.00  0.00    -0.120 A 
ATOM      6  C   LIG    1        5.607   1.903  -3.098  0.00  0.00    -0.150 A 
ATOM      7  C   LIG    1        5.312   1.602  -4.372  0.00  0.00    +0.230 A 
ATOM      8  N   LIG    1        5.687   2.632  -5.193  0.00  0.00    -0.590 N 
ATOM      9  H   LIG    1        5.576   2.645  -6.157  0.00  0.00    +0.420 HD
ATOM     10  C   LIG    1        6.245   3.646  -4.447  0.00  0.00    +0.130 A 
ATOM     11  C   LIG    1        6.778   4.889  -4.772  0.00  0.00    -0.050 A 
ATOM     12  C   LIG    1        7.275   5.707  -3.781  0.00  0.00    +0.070 A 
ATOM     13  C   LIG    1        7.252   5.305  -2.453  0.00  0.00    -0.110 A 
BRANCH   4  15
ATOM     14  C   LIG    1        7.244   4.594   0.156  0.00  0.00    +0.250 C 
ATOM     15  O   LIG    1        6.706   3.683  -0.805  0.00  0.00    -0.310 OA
ENDBRANCH   4  15
ENDBRANCH   3   6
ENDBRANCH   1   3
BRANCH   1  16
ATOM     16  C   LIG    1        3.555   0.705  -0.029  0.00  0.00    +0.240 C 
BRANCH  16  17
ATOM     17  C   LIG    1        2.048   0.697  -0.014  0.00  0.00    +0.250 A 
ATOM     18  N   LIG    1        1.312  -0.373  -0.013  0.00  0.00    -0.450 NA
ATOM     19  C   LIG    1        0.002  -0.004   0.002  0.00  0.00    +0.020 A 
ATOM     20  C   LIG    1       -1.201  -0.711   0.010  0.00  0.00    +0.090 A 
ATOM     21  C   LIG    1       -2.396  -0.026   0.026  0.00  0.00    +0.020 A 
ATOM     22  C   LIG    1       -2.410   1.360   0.033  0.00  0.00    +0.060 A 
ATOM     23  C   LIG    1       -1.229   2.072   0.030  0.00  0.00    +0.050 A 
ATOM     24  C   LIG    1       -0.017   1.399   0.010  0.00  0.00    +0.020 A 
ATOM     25  O   LIG    1        1.275   1.794  -0.001  0.00  0.00    -0.190 OA
ENDBRANCH  16  17
BRANCH  16  26
ATOM     26  C   LIG    1        4.054   1.395   1.172  0.00  0.00    +0.210 C 
ATOM     27  N   LIG    1        4.439   1.928   2.099  0.00  0.00    -0.370 NA
ENDBRANCH  16  26
ENDBRANCH   1  16
TORSDOF 6
