REMARK  Name = ZINCpe000000TOk5.1
REMARK                            x       y       z     vdW  Elec       q    Type
REMARK                         _______ _______ _______ _____ _____    ______ ____
ROOT
ATOM      1  C   LIG    1       -7.551   3.300  -0.853  0.00  0.00    -0.140 A 
ATOM      2  C   LIG    1       -7.140   2.035  -0.409  0.00  0.00    +0.110 A 
ATOM      3  C   LIG    1       -5.906   1.554  -0.739  0.00  0.00    +0.010 A 
ATOM      4  C   LIG    1       -5.045   2.317  -1.519  0.00  0.00    +0.090 A 
ATOM      5  C   LIG    1       -5.441   3.589  -1.973  0.00  0.00    +0.030 A 
ATOM      6  N   LIG    1       -4.408   4.088  -2.701  0.00  0.00    -0.450 NA
ATOM      7  C   LIG    1       -3.433   3.228  -2.721  0.00  0.00    +0.240 A 
ATOM      8  N   LIG    1       -3.774   2.116  -2.013  0.00  0.00    -0.470 N 
ATOM      9  C   LIG    1       -6.701   4.077  -1.635  0.00  0.00    +0.170 A 
ENDROOT
BRANCH   1  10
ATOM     10  C   LIG    1       -8.887   3.809  -0.489  0.00  0.00    +0.510 C 
ATOM     11  O   LIG    1       -9.245   4.905  -0.872  0.00  0.00    -0.500 OA
BRANCH  10  12
ATOM     12  O   LIG    1       -9.710   3.058   0.269  0.00  0.00    -0.350 OA
BRANCH  12  14
ATOM     13  C   LIG    1      -11.798   2.633   1.448  0.00  0.00    +0.070 C 
ATOM     14  C   LIG    1      -11.010   3.622   0.588  0.00  0.00    +0.200 C 
ENDBRANCH  12  14
ENDBRANCH  10  12
ENDBRANCH   1  10
BRANCH   8  15
ATOM     15  C   LIG    1       -2.942   0.928  -1.810  0.00  0.00    +0.300 C 
ATOM     16  C   LIG    1       -2.149   1.076  -0.510  0.00  0.00    +0.040 C 
ENDBRANCH   8  15
BRANCH   7  17
ATOM     17  C   LIG    1       -2.119   3.429  -3.431  0.00  0.00    +0.490 C 
BRANCH  17  18
ATOM     18  N   LIG    1       -2.259   3.041  -4.837  0.00  0.00    -0.550 N 
ATOM     19  C   LIG    1       -1.958   1.848  -5.403  0.00  0.00    +0.560 A 
ATOM     20  O   LIG    1       -2.248   1.973  -6.708  0.00  0.00    -0.000 OA
ATOM     21  N   LIG    1       -2.677   3.080  -6.945  0.00  0.00    -0.310 NA
ATOM     22  O   LIG    1       -1.512   0.864  -4.844  0.00  0.00    -0.480 OA
ATOM     23  C   LIG    1       -2.729   3.809  -5.883  0.00  0.00    +0.240 A 
BRANCH  23  24
ATOM     24  C   LIG    1       -3.207   5.236  -5.801  0.00  0.00    +0.330 C 
BRANCH  24  25
ATOM     25  N   LIG    1       -3.599   5.699  -7.138  0.00  0.00    -0.840 NA
ATOM     26  H   LIG    1       -2.838   5.595  -7.794  0.00  0.00    +0.350 HD
ATOM     27  H   LIG    1       -3.923   6.654  -7.110  0.00  0.00    +0.360 HD
ENDBRANCH  24  25
ENDBRANCH  23  24
ENDBRANCH  17  18
ENDBRANCH   7  17
TORSDOF 8
