REMARK  Name = ZINCtV00001bB3Up.0
REMARK                            x       y       z     vdW  Elec       q    Type
REMARK                         _______ _______ _______ _____ _____    ______ ____
ROOT
ATOM      1  C   LIG    1        0.301   9.615   0.704  0.00  0.00    +0.580 A 
ATOM      2  N   LIG    1       -0.808   9.970   0.086  0.00  0.00    -0.570 NA
ATOM      3  C   LIG    1       -1.530   9.078  -0.606  0.00  0.00    +0.210 A 
ATOM      4  C   LIG    1       -2.713   9.431  -1.269  0.00  0.00    +0.020 A 
ATOM      5  C   LIG    1       -3.407   8.480  -1.958  0.00  0.00    +0.060 A 
ATOM      6  C   LIG    1       -2.961   7.163  -2.014  0.00  0.00    -0.010 A 
ATOM      7  C   LIG    1       -1.812   6.786  -1.378  0.00  0.00    +0.060 A 
ATOM      8  C   LIG    1       -1.079   7.736  -0.665  0.00  0.00    -0.200 A 
ATOM      9  C   LIG    1        0.160   7.398   0.040  0.00  0.00    +0.340 A 
ATOM     10  N   LIG    1        0.782   8.377   0.697  0.00  0.00    -0.550 NA
ENDROOT
BRANCH   9  11
ATOM     11  C   LIG    1        0.695   6.030   0.027  0.00  0.00    -0.180 A 
ATOM     12  C   LIG    1        2.021   5.704   0.013  0.00  0.00    +0.090 A 
ATOM     13  C   LIG    1        2.279   4.358   0.009  0.00  0.00    +0.020 A 
ATOM     14  C   LIG    1        1.172   3.564   0.009  0.00  0.00    -0.140 A 
ATOM     15  S   LIG    1       -0.275   4.563   0.029  0.00  0.00    +0.200 S 
BRANCH  14  16
ATOM     16  C   LIG    1        1.185   2.087   0.002  0.00  0.00    -0.020 A 
ATOM     17  C   LIG    1       -0.017   1.375   0.010  0.00  0.00    +0.030 A 
ATOM     18  C   LIG    1        0.002  -0.004   0.002  0.00  0.00    +0.040 A 
ATOM     19  C   LIG    1        1.209  -0.683  -0.014  0.00  0.00    -0.030 A 
ATOM     20  C   LIG    1        2.404   0.017  -0.022  0.00  0.00    +0.040 A 
ATOM     21 CL   LIG    1        1.224  -2.419  -0.024  0.00  0.00    -0.060 Cl
ATOM     22  C   LIG    1        2.398   1.396  -0.013  0.00  0.00    +0.050 A 
ENDBRANCH  14  16
ENDBRANCH   9  11
BRANCH   1  23
ATOM     23  N   LIG    1        1.001  10.584   1.401  0.00  0.00    -0.690 N 
ATOM     24  H   LIG    1        1.821  10.351   1.864  0.00  0.00    +0.410 HD
BRANCH  23  25
ATOM     25  C   LIG    1        0.504  11.961   1.439  0.00  0.00    +0.260 C 
ATOM     26  C   LIG    1        0.988  12.713   0.197  0.00  0.00    +0.020 C 
BRANCH  25  28
ATOM     27  C   LIG    1        2.552  12.780   2.611  0.00  0.00    +0.030 C 
ATOM     28  C   LIG    1        1.029  12.659   2.695  0.00  0.00    -0.020 C 
BRANCH  28  29
ATOM     29  C   LIG    1        0.411  14.054   2.800  0.00  0.00    +0.180 C 
BRANCH  29  30
ATOM     30  O   LIG    1        0.810  14.661   4.031  0.00  0.00    -0.570 OA
ATOM     31  H   LIG    1        0.454  15.550   4.165  0.00  0.00    +0.380 HD
ENDBRANCH  29  30
ENDBRANCH  28  29
ENDBRANCH  25  28
ENDBRANCH  23  25
ENDBRANCH   1  23
TORSDOF 7
