REMARK  Name = ZINCnE000001DKUN.0
REMARK                            x       y       z     vdW  Elec       q    Type
REMARK                         _______ _______ _______ _____ _____    ______ ____
ROOT
ATOM      1  C   LIG    1        3.059   0.736  -0.103  0.00  0.00    +0.020 C 
ENDROOT
BRANCH   1   2
ATOM      2  C   LIG    1        2.066   1.579  -0.906  0.00  0.00    +0.240 C 
ATOM      3  C   LIG    1        2.675   1.927  -2.265  0.00  0.00    +0.000 C 
BRANCH   2   4
ATOM      4  N   LIG    1        0.829   0.819  -1.104  0.00  0.00    -0.730 N 
ATOM      5  H   LIG    1        0.847  -0.150  -1.085  0.00  0.00    +0.390 HD
ATOM      6  C   LIG    1       -0.333   1.467  -1.320  0.00  0.00    +0.670 C 
ATOM      7  O   LIG    1       -0.355   2.686  -1.345  0.00  0.00    -0.610 OA
BRANCH   6   8
ATOM      8  N   LIG    1       -1.459   0.775  -1.506  0.00  0.00    -0.680 NA
ATOM      9  C   LIG    1       -2.607   1.415  -1.720  0.00  0.00    +0.360 A 
ATOM     10  N   LIG    1       -2.800   2.748  -1.777  0.00  0.00    -0.420 NA
ATOM     11  N   LIG    1       -4.089   3.174  -2.011  0.00  0.00    -0.280 NA
ATOM     12  C   LIG    1       -4.997   2.267  -2.155  0.00  0.00    +0.160 A 
ATOM     13  S   LIG    1       -4.158   0.715  -1.988  0.00  0.00    -0.090 S 
ENDBRANCH   6   8
ENDBRANCH   2   4
ENDBRANCH   1   2
BRANCH   1  14
ATOM     14  C   LIG    1        2.503   0.493   1.302  0.00  0.00    +0.070 C 
BRANCH  14  18
ATOM     15  C   LIG    1        5.276  -1.860   3.545  0.00  0.00    +0.120 A 
ATOM     16  C   LIG    1        5.363  -0.476   3.566  0.00  0.00    -0.020 A 
ATOM     17  C   LIG    1        4.466   0.283   2.840  0.00  0.00    +0.050 A 
ATOM     18  C   LIG    1        3.481  -0.337   2.093  0.00  0.00    -0.110 A 
ATOM     19  C   LIG    1        3.389  -1.716   2.074  0.00  0.00    +0.050 A 
ATOM     20  C   LIG    1        4.287  -2.479   2.794  0.00  0.00    -0.080 A 
BRANCH  15  21
ATOM     21  O   LIG    1        6.158  -2.609   4.258  0.00  0.00    -0.310 OA
BRANCH  21  23
ATOM     22  C   LIG    1        6.574  -4.660   3.050  0.00  0.00    +0.020 C 
ATOM     23  C   LIG    1        5.937  -4.021   4.285  0.00  0.00    +0.150 C 
ATOM     24  C   LIG    1        6.569  -4.612   5.548  0.00  0.00    +0.060 C 
ENDBRANCH  21  23
ENDBRANCH  15  21
ENDBRANCH  14  18
ENDBRANCH   1  14
TORSDOF 7
