REMARK  Name = ZINCvU0000000A5w.0
REMARK                            x       y       z     vdW  Elec       q    Type
REMARK                         _______ _______ _______ _____ _____    ______ ____
ROOT
ATOM      1  C   LIG    1        2.832  -2.999   0.343  0.00  0.00    +0.020 C 
ATOM      2  C   LIG    1        2.849  -3.508  -1.100  0.00  0.00    +0.090 C 
ENDROOT
BRANCH   1   5
ATOM      3  N   LIG    1        2.129  -0.633   0.169  0.00  0.00    -0.660 N 
ATOM      4  H   LIG    1        1.214  -0.943   0.082  0.00  0.00    +0.410 HD
ATOM      5  C   LIG    1        3.126  -1.521   0.357  0.00  0.00    +0.530 C 
ATOM      6  O   LIG    1        4.260  -1.130   0.538  0.00  0.00    -0.500 OA
BRANCH   3  12
ATOM      7  C   LIG    1        1.569   1.587  -0.598  0.00  0.00    -0.100 A 
ATOM      8  C   LIG    1        1.850   2.938  -0.660  0.00  0.00    +0.030 A 
ATOM      9  C   LIG    1        2.975   3.441  -0.033  0.00  0.00    -0.010 A 
ATOM     10  C   LIG    1        3.822   2.594   0.658  0.00  0.00    +0.030 A 
ATOM     11  C   LIG    1        3.546   1.242   0.724  0.00  0.00    +0.020 A 
ATOM     12  C   LIG    1        2.414   0.735   0.100  0.00  0.00    +0.140 A 
BRANCH   7  13
ATOM     13  C   LIG    1        0.342   1.040  -1.282  0.00  0.00    +0.020 C 
ATOM     14  C   LIG    1        0.360   1.440  -2.759  0.00  0.00    +0.030 C 
BRANCH  13  16
ATOM     15  C   LIG    1       -2.154   0.960  -1.225  0.00  0.00    +0.010 C 
ATOM     16  C   LIG    1       -0.911   1.609  -0.614  0.00  0.00    +0.010 C 
ENDBRANCH  13  16
ENDBRANCH   7  13
ENDBRANCH   3  12
ENDBRANCH   1   5
BRANCH   1  17
ATOM     17  S   LIG    1        4.090  -3.873   1.306  0.00  0.00    +0.070 S 
BRANCH  17  18
ATOM     18  C   LIG    1        3.436  -5.508   1.251  0.00  0.00    +0.230 A 
ATOM     19  C   LIG    1        4.101  -6.574   1.889  0.00  0.00    -0.260 A 
ATOM     20  C   LIG    1        5.286  -6.694   2.646  0.00  0.00    +0.320 A 
ATOM     21  N   LIG    1        5.428  -7.940   2.999  0.00  0.00    -0.230 NA
ATOM     22  N   LIG    1        4.359  -8.696   2.501  0.00  0.00    -0.330 N 
ATOM     23  C   LIG    1        3.530  -7.859   1.810  0.00  0.00    +0.360 A 
ATOM     24  N   LIG    1        2.390  -8.016   1.140  0.00  0.00    -0.530 NA
ATOM     25  C   LIG    1        1.805  -6.990   0.560  0.00  0.00    +0.570 A 
ATOM     26  N   LIG    1        2.299  -5.766   0.611  0.00  0.00    -0.550 NA
BRANCH  22  27
ATOM     27  C   LIG    1        4.174 -10.073   2.680  0.00  0.00    +0.150 A 
ATOM     28  C   LIG    1        2.893 -10.589   2.829  0.00  0.00    +0.020 A 
ATOM     29  C   LIG    1        2.713 -11.947   3.000  0.00  0.00    +0.030 A 
ATOM     30  C   LIG    1        3.807 -12.792   3.035  0.00  0.00    +0.010 A 
ATOM     31  C   LIG    1        5.084 -12.281   2.892  0.00  0.00    +0.030 A 
ATOM     32  C   LIG    1        5.270 -10.924   2.715  0.00  0.00    +0.020 A 
ENDBRANCH  22  27
ENDBRANCH  17  18
ENDBRANCH   1  17
TORSDOF 7
