REMARK  Name = ZINCrH000004sQfg.0
REMARK                            x       y       z     vdW  Elec       q    Type
REMARK                         _______ _______ _______ _____ _____    ______ ____
ROOT
ATOM      1  C   LIG    1       -1.588   6.520   1.678  0.00  0.00    +0.570 C 
ATOM      2  N   LIG    1       -1.470   5.694   0.619  0.00  0.00    -0.590 N 
ATOM      3  C   LIG    1       -2.668   5.143  -0.017  0.00  0.00    +0.290 C 
ATOM      4  O   LIG    1       -0.603   7.063   2.138  0.00  0.00    -0.520 OA
ENDROOT
BRANCH   1  12
ATOM      5  C   LIG    1       -6.680   3.895   2.838  0.00  0.00    +0.190 C 
ATOM      6  C   LIG    1       -6.352   5.328   3.170  0.00  0.00    +0.070 A 
ATOM      7  N   LIG    1       -7.121   6.199   3.752  0.00  0.00    -0.310 NA
ATOM      8  O   LIG    1       -6.602   7.281   3.896  0.00  0.00    +0.090 OA
ATOM      9  C   LIG    1       -5.347   7.331   3.418  0.00  0.00    +0.230 A 
ATOM     10  N   LIG    1       -4.409   8.261   3.348  0.00  0.00    -0.460 NA
ATOM     11  C   LIG    1       -3.232   8.020   2.812  0.00  0.00    +0.410 A 
ATOM     12  C   LIG    1       -2.915   6.765   2.278  0.00  0.00    -0.200 A 
ATOM     13  C   LIG    1       -3.872   5.745   2.328  0.00  0.00    +0.200 A 
ATOM     14  C   LIG    1       -5.098   6.039   2.905  0.00  0.00    -0.230 A 
ENDBRANCH   1  12
BRANCH   2  15
ATOM     15  C   LIG    1       -0.142   5.348   0.105  0.00  0.00    +0.370 C 
BRANCH  15  16
ATOM     16  C   LIG    1        0.011   3.849   0.080  0.00  0.00    +0.120 A 
ATOM     17  C   LIG    1        1.274   3.291   0.143  0.00  0.00    -0.020 A 
ATOM     18  C   LIG    1        1.405   1.911   0.119  0.00  0.00    +0.070 A 
ATOM     19  C   LIG    1        0.255   1.140   0.034  0.00  0.00    -0.030 A 
ATOM     20  C   LIG    1       -0.974   1.770  -0.030  0.00  0.00    +0.260 A 
ATOM     21  N   LIG    1       -1.060   3.085   0.000  0.00  0.00    -0.470 NA
ENDBRANCH  15  16
BRANCH  15  22
ATOM     22  C   LIG    1        0.013   5.892  -1.292  0.00  0.00    -0.090 A 
ATOM     23  C   LIG    1        0.826   5.241  -2.201  0.00  0.00    +0.010 A 
ATOM     24  C   LIG    1        0.965   5.737  -3.483  0.00  0.00    +0.000 A 
ATOM     25  C   LIG    1        0.298   6.890  -3.854  0.00  0.00    +0.010 A 
ATOM     26  C   LIG    1       -0.511   7.544  -2.944  0.00  0.00    +0.000 A 
ATOM     27  C   LIG    1       -0.653   7.045  -1.663  0.00  0.00    +0.020 A 
ENDBRANCH  15  22
ENDBRANCH   2  15
TORSDOF 4
