REMARK  Name = ZINCrH000004nxmI.0
REMARK                            x       y       z     vdW  Elec       q    Type
REMARK                         _______ _______ _______ _____ _____    ______ ____
ROOT
ATOM      1  C   LIG    1       -1.271  -0.800   0.228  0.00  0.00    +0.180 A 
ATOM      2  N   LIG    1       -2.480  -0.286   0.252  0.00  0.00    -0.260 NA
ATOM      3  N   LIG    1       -3.408  -1.290  -0.041  0.00  0.00    -0.360 N 
ATOM      4  C   LIG    1       -2.768  -2.450  -0.251  0.00  0.00    +0.280 A 
ATOM      5  C   LIG    1       -1.416  -2.220  -0.104  0.00  0.00    -0.280 A 
ENDROOT
BRANCH   1  11
ATOM      6  C   LIG    1        0.266   1.128  -0.173  0.00  0.00    +0.150 A 
ATOM      7  C   LIG    1        1.455   1.795   0.072  0.00  0.00    -0.090 A 
ATOM      8  C   LIG    1        2.373   1.270   0.962  0.00  0.00    +0.060 A 
ATOM      9  C   LIG    1        2.112   0.077   1.612  0.00  0.00    -0.030 A 
ATOM     10  C   LIG    1        0.932  -0.599   1.378  0.00  0.00    +0.110 A 
ATOM     11  C   LIG    1       -0.001  -0.079   0.483  0.00  0.00    -0.050 A 
BRANCH   6  13
ATOM     12  C   LIG    1       -0.294   2.875  -1.683  0.00  0.00    +0.250 C 
ATOM     13  O   LIG    1       -0.635   1.640  -1.051  0.00  0.00    -0.310 OA
ENDBRANCH   6  13
ENDBRANCH   1  11
BRANCH   5  14
ATOM     14  C   LIG    1       -0.333  -3.207  -0.250  0.00  0.00    +0.590 C 
ATOM     15  N   LIG    1       -0.628  -4.508  -0.446  0.00  0.00    -0.730 N 
ATOM     16  H   LIG    1       -1.554  -4.793  -0.491  0.00  0.00    +0.400 HD
ATOM     17  O   LIG    1        0.828  -2.849  -0.194  0.00  0.00    -0.530 OA
BRANCH  15  18
ATOM     18  C   LIG    1        0.450  -5.490  -0.591  0.00  0.00    +0.290 C 
BRANCH  18  19
ATOM     19  C   LIG    1       -0.152  -6.880  -0.800  0.00  0.00    -0.060 C 
ATOM     20  C   LIG    1        0.119  -7.937   0.273  0.00  0.00    +0.020 C 
ATOM     21  C   LIG    1        0.813  -8.032  -1.089  0.00  0.00    +0.030 C 
ENDBRANCH  18  19
ENDBRANCH  15  18
ENDBRANCH   5  14
BRANCH   3  22
ATOM     22  C   LIG    1       -4.860  -1.102  -0.108  0.00  0.00    +0.380 C 
BRANCH  22  23
ATOM     23  C   LIG    1       -5.349  -0.501   1.184  0.00  0.00    -0.110 A 
ATOM     24  C   LIG    1       -5.742  -1.324   2.224  0.00  0.00    +0.020 A 
ATOM     25  C   LIG    1       -6.186  -0.773   3.411  0.00  0.00    +0.000 A 
ATOM     26  C   LIG    1       -6.248   0.601   3.555  0.00  0.00    +0.010 A 
ATOM     27  C   LIG    1       -5.861   1.423   2.514  0.00  0.00    +0.000 A 
ATOM     28  C   LIG    1       -5.411   0.872   1.328  0.00  0.00    +0.040 A 
ENDBRANCH  22  23
ENDBRANCH   3  22
TORSDOF 7
