REMARK  Name = ZINCvU0000000DpS.0
REMARK                            x       y       z     vdW  Elec       q    Type
REMARK                         _______ _______ _______ _____ _____    ______ ____
ROOT
ATOM      1  O   LIG    1       -2.420   0.985  -0.002  0.00  0.00    -0.330 OA
ENDROOT
BRANCH   1   2
ATOM      2  C   LIG    1       -3.667   1.480  -0.003  0.00  0.00    +0.470 C 
ATOM      3  O   LIG    1       -3.842   2.676  -0.001  0.00  0.00    -0.490 OA
BRANCH   2   4
ATOM      4  C   LIG    1       -4.850   0.546  -0.008  0.00  0.00    +0.150 C 
ATOM      5  C   LIG    1       -4.789  -0.325  -1.233  0.00  0.00    -0.160 A 
ATOM      6  C   LIG    1       -3.917  -1.398  -1.261  0.00  0.00    +0.080 A 
ATOM      7  C   LIG    1       -3.846  -2.209  -2.377  0.00  0.00    -0.010 A 
ATOM      8  C   LIG    1       -4.648  -1.950  -3.473  0.00  0.00    +0.060 A 
ATOM      9  C   LIG    1       -5.521  -0.883  -3.450  0.00  0.00    +0.000 A 
ATOM     10  C   LIG    1       -5.596  -0.065  -2.329  0.00  0.00    +0.130 A 
ATOM     11  O   LIG    1       -6.460   0.978  -2.326  0.00  0.00    -0.240 OA
ATOM     12  C   LIG    1       -6.859   1.527  -1.154  0.00  0.00    +0.130 A 
ATOM     13  C   LIG    1       -8.030   2.276  -1.119  0.00  0.00    +0.000 A 
ATOM     14  C   LIG    1       -8.454   2.843   0.066  0.00  0.00    +0.060 A 
ATOM     15  C   LIG    1       -7.713   2.668   1.220  0.00  0.00    -0.010 A 
ATOM     16  C   LIG    1       -6.549   1.924   1.188  0.00  0.00    +0.070 A 
ATOM     17  C   LIG    1       -6.120   1.352   0.004  0.00  0.00    -0.140 A 
ENDBRANCH   2   4
ENDBRANCH   1   2
BRANCH   1  18
ATOM     18  C   LIG    1       -1.330   1.944   0.002  0.00  0.00    +0.270 C 
BRANCH  18  20
ATOM     19  O   LIG    1        0.003  -0.004   0.001  0.00  0.00    -0.490 OA
ATOM     20  C   LIG    1       -0.014   1.208   0.003  0.00  0.00    +0.520 C 
ATOM     21  N   LIG    1        1.143   1.898   0.001  0.00  0.00    -0.680 N 
ATOM     22  H   LIG    1        1.131   2.866  -0.063  0.00  0.00    +0.420 HD
BRANCH  21  23
ATOM     23  C   LIG    1        2.363   1.219   0.092  0.00  0.00    +0.200 A 
ATOM     24  C   LIG    1        2.513  -0.025  -0.508  0.00  0.00    +0.030 A 
ATOM     25  C   LIG    1        3.720  -0.690  -0.422  0.00  0.00    +0.070 A 
ATOM     26  C   LIG    1        4.775  -0.125   0.270  0.00  0.00    +0.010 A 
ATOM     27  C   LIG    1        4.628   1.111   0.873  0.00  0.00    +0.090 A 
ATOM     28  C   LIG    1        3.425   1.784   0.786  0.00  0.00    -0.210 A 
BRANCH  28  29
ATOM     29  C   LIG    1        3.265   3.130   1.444  0.00  0.00    +0.510 C 
ATOM     30  F   LIG    1        2.238   3.067   2.391  0.00  0.00    -0.170 F 
ATOM     31  F   LIG    1        2.947   4.088   0.474  0.00  0.00    -0.180 F 
ATOM     32  F   LIG    1        4.462   3.486   2.076  0.00  0.00    -0.170 F 
ENDBRANCH  28  29
ENDBRANCH  21  23
ENDBRANCH  18  20
ENDBRANCH   1  18
TORSDOF 6
