REMARK  Name = ZINCtV00000tEaH6.0
REMARK                            x       y       z     vdW  Elec       q    Type
REMARK                         _______ _______ _______ _____ _____    ______ ____
ROOT
ATOM      1  C   LIG    1       -0.276   6.416  -0.066  0.00  0.00    +0.000 C 
ATOM      2  C   LIG    1        0.674   5.756  -0.786  0.00  0.00    +0.130 C 
ENDROOT
BRANCH   1   8
ATOM      3  C   LIG    1       -0.276  11.346   3.471  0.00  0.00    +0.030 A 
ATOM      4  C   LIG    1        1.082  11.533   3.253  0.00  0.00    +0.050 A 
ATOM      5  C   LIG    1        1.777  10.659   2.446  0.00  0.00    +0.050 A 
ATOM      6  C   LIG    1        1.118   9.587   1.849  0.00  0.00    -0.170 A 
ATOM      7  S   LIG    1        1.702   8.312   0.782  0.00  0.00    +0.070 S 
ATOM      8  C   LIG    1        0.088   7.620   0.704  0.00  0.00    +0.160 A 
ATOM      9  N   LIG    1       -0.736   8.319   1.413  0.00  0.00    -0.430 NA
ATOM     10  C   LIG    1       -0.252   9.391   2.063  0.00  0.00    +0.080 A 
ATOM     11  C   LIG    1       -0.937  10.304   2.895  0.00  0.00    +0.080 A 
ENDBRANCH   1   8
BRANCH   1  12
ATOM     12  C   LIG    1       -1.666   5.927  -0.056  0.00  0.00    +0.160 A 
ATOM     13  N   LIG    1       -2.711   6.670  -0.221  0.00  0.00    -0.420 NA
ATOM     14  C   LIG    1       -3.916   6.076  -0.190  0.00  0.00    +0.080 A 
ATOM     15  C   LIG    1       -5.193   6.658  -0.345  0.00  0.00    +0.080 A 
ATOM     16  C   LIG    1       -6.316   5.891  -0.276  0.00  0.00    +0.030 A 
ATOM     17  C   LIG    1       -6.229   4.524  -0.053  0.00  0.00    +0.050 A 
ATOM     18  C   LIG    1       -4.998   3.928   0.103  0.00  0.00    +0.050 A 
ATOM     19  C   LIG    1       -3.837   4.696   0.036  0.00  0.00    -0.170 A 
ATOM     20  S   LIG    1       -2.139   4.252   0.191  0.00  0.00    +0.080 S 
ENDBRANCH   1  12
BRANCH   2  21
ATOM     21  C   LIG    1        0.287   4.650  -1.670  0.00  0.00    -0.080 A 
ATOM     22  C   LIG    1       -0.967   4.654  -2.293  0.00  0.00    +0.070 A 
ATOM     23  C   LIG    1       -1.325   3.616  -3.125  0.00  0.00    +0.040 A 
ATOM     24  C   LIG    1       -0.451   2.560  -3.342  0.00  0.00    +0.060 A 
ATOM     25  O   LIG    1       -0.569   1.435  -4.104  0.00  0.00    -0.300 OA
ATOM     26  C   LIG    1        0.450   0.537  -3.628  0.00  0.00    +0.440 C 
ATOM     27  O   LIG    1        1.463   1.415  -3.103  0.00  0.00    -0.300 OA
ATOM     28  C   LIG    1        0.802   2.549  -2.725  0.00  0.00    +0.030 A 
ATOM     29  C   LIG    1        1.171   3.586  -1.893  0.00  0.00    +0.090 A 
ENDBRANCH   2  21
TORSDOF 3
