REMARK  Name = ZINCvU00000009tl.0
REMARK                            x       y       z     vdW  Elec       q    Type
REMARK                         _______ _______ _______ _____ _____    ______ ____
ROOT
ATOM      1  S   LIG    1        7.607  -1.103  -1.656  0.00  0.00    +0.060 S 
ENDROOT
BRANCH   1   7
ATOM      2  C   LIG    1        5.052   0.798  -2.549  0.00  0.00    +0.360 C 
ATOM      3  N   LIG    1        5.400   0.542  -1.150  0.00  0.00    -0.450 N 
ATOM      4  C   LIG    1        4.761   1.020  -0.039  0.00  0.00    +0.170 A 
ATOM      5  N   LIG    1        5.394   0.557   1.002  0.00  0.00    -0.250 NA
ATOM      6  N   LIG    1        6.376  -0.183   0.628  0.00  0.00    -0.280 NA
ATOM      7  C   LIG    1        6.430  -0.225  -0.683  0.00  0.00    +0.160 A 
BRANCH   4   8
ATOM      8  C   LIG    1        3.553   1.920  -0.022  0.00  0.00    +0.350 C 
BRANCH   8   9
ATOM      9  O   LIG    1        2.366   1.124  -0.015  0.00  0.00    -0.310 OA
BRANCH   9  10
ATOM     10  C   LIG    1        1.179   1.786   0.000  0.00  0.00    +0.130 A 
ATOM     11  C   LIG    1       -0.013   1.076   0.008  0.00  0.00    +0.010 A 
ATOM     12  C   LIG    1       -1.218   1.751   0.017  0.00  0.00    +0.070 A 
ATOM     13  C   LIG    1       -1.237   3.134   0.030  0.00  0.00    -0.070 A 
ATOM     14  C   LIG    1       -0.050   3.844   0.023  0.00  0.00    +0.070 A 
ATOM     15 CL   LIG    1       -2.753   3.980   0.049  0.00  0.00    -0.070 Cl
ATOM     16  C   LIG    1        1.158   3.173   0.008  0.00  0.00    -0.060 A 
ENDBRANCH   9  10
ENDBRANCH   8   9
ENDBRANCH   4   8
ENDBRANCH   1   7
BRANCH   1  17
ATOM     17  C   LIG    1        8.607  -1.846  -0.344  0.00  0.00    +0.050 C 
BRANCH  17  18
ATOM     18  C   LIG    1        9.306  -0.760   0.432  0.00  0.00    -0.090 A 
ATOM     19  C   LIG    1       10.185   0.092  -0.210  0.00  0.00    +0.030 A 
ATOM     20  C   LIG    1       10.822   1.092   0.501  0.00  0.00    +0.000 A 
ATOM     21  C   LIG    1       10.587   1.234   1.856  0.00  0.00    +0.010 A 
ATOM     22  C   LIG    1        9.712   0.378   2.499  0.00  0.00    +0.010 A 
ATOM     23  C   LIG    1        9.071  -0.618   1.787  0.00  0.00    +0.060 A 
ENDBRANCH  17  18
BRANCH  17  24
ATOM     24  C   LIG    1        9.633  -2.766  -0.955  0.00  0.00    +0.430 C 
ATOM     25  O   LIG    1       10.004  -2.589  -2.096  0.00  0.00    -0.430 OA
BRANCH  24  26
ATOM     26  C   LIG    1       10.186  -3.879  -0.166  0.00  0.00    -0.160 A 
ATOM     27  C   LIG    1        9.765  -4.083   1.152  0.00  0.00    +0.060 A 
ATOM     28  C   LIG    1       10.285  -5.131   1.883  0.00  0.00    +0.000 A 
ATOM     29  C   LIG    1       11.226  -5.974   1.318  0.00  0.00    +0.050 A 
ATOM     30  C   LIG    1       11.651  -5.775   0.016  0.00  0.00    +0.000 A 
ATOM     31  C   LIG    1       11.138  -4.735  -0.729  0.00  0.00    +0.080 A 
ENDBRANCH  24  26
ENDBRANCH  17  24
ENDBRANCH   1  17
TORSDOF 8
