REMARK  Name = ZINCpk000000nv2f.0
REMARK                            x       y       z     vdW  Elec       q    Type
REMARK                         _______ _______ _______ _____ _____    ______ ____
ROOT
ATOM      1  N   LIG    1       -3.097  -3.769  -0.207  0.00  0.00    -0.730 N 
ATOM      2  H   LIG    1       -2.381  -4.415  -0.102  0.00  0.00    +0.400 HD
ATOM      3  C   LIG    1       -2.811  -2.454  -0.283  0.00  0.00    +0.510 C 
ATOM      4  O   LIG    1       -3.706  -1.646  -0.415  0.00  0.00    -0.520 OA
ENDROOT
BRANCH   1   5
ATOM      5  C   LIG    1       -4.488  -4.222  -0.283  0.00  0.00    +0.320 C 
BRANCH   5  10
ATOM      6  C   LIG    1       -4.504  -7.885  -1.212  0.00  0.00    +0.130 A 
ATOM      7  C   LIG    1       -4.619  -8.484   0.033  0.00  0.00    -0.070 A 
ATOM      8  C   LIG    1       -4.691  -7.702   1.170  0.00  0.00    +0.050 A 
ATOM      9  C   LIG    1       -4.649  -6.324   1.067  0.00  0.00    -0.010 A 
ATOM     10  C   LIG    1       -4.534  -5.724  -0.174  0.00  0.00    -0.070 A 
ATOM     11  C   LIG    1       -4.466  -6.502  -1.314  0.00  0.00    +0.000 A 
BRANCH   6  12
ATOM     12  O   LIG    1       -4.433  -8.652  -2.332  0.00  0.00    -0.310 OA
BRANCH  12  13
ATOM     13  C   LIG    1       -4.483 -10.069  -2.152  0.00  0.00    +0.180 C 
BRANCH  13  15
ATOM     14  C   LIG    1       -4.319 -12.274  -3.315  0.00  0.00    +0.040 C 
ATOM     15  C   LIG    1       -4.391 -10.759  -3.515  0.00  0.00    -0.020 C 
ATOM     16  C   LIG    1       -5.628 -10.412  -4.347  0.00  0.00    +0.020 C 
ENDBRANCH  13  15
ENDBRANCH  12  13
ENDBRANCH   6  12
ENDBRANCH   5  10
ENDBRANCH   1   5
BRANCH   3  17
ATOM     17  C   LIG    1       -1.380  -1.988  -0.204  0.00  0.00    +0.210 C 
BRANCH  17  18
ATOM     18  N   LIG    1       -1.336  -0.524  -0.311  0.00  0.00    -0.510 NA
ATOM     19  C   LIG    1       -1.776  -0.079  -1.640  0.00  0.00    +0.210 C 
BRANCH  18  20
ATOM     20  C   LIG    1        0.007  -0.014  -0.003  0.00  0.00    +0.150 C 
ATOM     21  C   LIG    1        0.385  -0.365   1.447  0.00  0.00    +0.080 C 
ATOM     22  C   LIG    1        1.624   0.458   1.849  0.00  0.00    -0.310 C 
ATOM     23  S   LIG    1        1.536   1.977   0.833  0.00  0.00    +2.390 S 
ATOM     24  O   LIG    1        1.261   3.090   1.672  0.00  0.00    -0.930 OA
ATOM     25  O   LIG    1        2.645   2.014  -0.055  0.00  0.00    -0.930 OA
ATOM     26  C   LIG    1        0.024   1.533  -0.103  0.00  0.00    -0.300 C 
ENDBRANCH  18  20
ENDBRANCH  17  18
ENDBRANCH   3  17
TORSDOF 8
