REMARK  Name = ZINCrH00000No4SW.0
REMARK                            x       y       z     vdW  Elec       q    Type
REMARK                         _______ _______ _______ _____ _____    ______ ____
ROOT
ATOM      1  C   LIG    1       -0.285   1.482   0.670  0.00  0.00    +0.240 C 
ENDROOT
BRANCH   1   4
ATOM      2  N   LIG    1       -1.182  -0.687  -0.109  0.00  0.00    -0.670 N 
ATOM      3  H   LIG    1       -1.831  -0.195  -0.636  0.00  0.00    +0.410 HD
ATOM      4  C   LIG    1       -0.309  -0.025   0.675  0.00  0.00    +0.510 C 
ATOM      5  O   LIG    1        0.458  -0.641   1.384  0.00  0.00    -0.500 OA
BRANCH   2  10
ATOM      6  C   LIG    1       -1.065  -6.355  -0.327  0.00  0.00    +0.090 C 
ATOM      7  C   LIG    1       -1.096  -4.849  -0.270  0.00  0.00    -0.080 A 
ATOM      8  C   LIG    1       -2.284  -4.194  -0.003  0.00  0.00    +0.010 A 
ATOM      9  C   LIG    1       -2.316  -2.814   0.051  0.00  0.00    -0.090 A 
ATOM     10  C   LIG    1       -1.153  -2.085  -0.163  0.00  0.00    +0.130 A 
ATOM     11  C   LIG    1        0.037  -2.746  -0.436  0.00  0.00    -0.060 A 
ATOM     12  C   LIG    1        1.299  -1.959  -0.675  0.00  0.00    +0.080 C 
ATOM     13  C   LIG    1       -3.611  -2.100   0.343  0.00  0.00    +0.080 C 
ATOM     14  C   LIG    1        0.063  -4.126  -0.483  0.00  0.00    +0.020 A 
ENDBRANCH   2  10
ENDBRANCH   1   4
BRANCH   1  15
ATOM     15  O   LIG    1        0.718   1.946   1.576  0.00  0.00    -0.210 OA
BRANCH  15  16
ATOM     16  N   LIG    1        0.823   3.356   1.648  0.00  0.00    -0.340 NA
ATOM     17  C   LIG    1        1.695   3.901   2.433  0.00  0.00    +0.190 C 
ATOM     18  C   LIG    1        2.599   3.035   3.271  0.00  0.00    +0.110 C 
BRANCH  17  19
ATOM     19  C   LIG    1        1.804   5.370   2.507  0.00  0.00    -0.050 A 
ATOM     20  C   LIG    1        2.744   5.961   3.353  0.00  0.00    +0.060 A 
ATOM     21  C   LIG    1        2.843   7.334   3.421  0.00  0.00    +0.020 A 
ATOM     22  C   LIG    1        2.010   8.135   2.650  0.00  0.00    +0.070 A 
ATOM     23  O   LIG    1        2.123   9.488   2.737  0.00  0.00    -0.300 OA
ATOM     24  C   LIG    1        1.534  10.253   1.679  0.00  0.00    +0.230 C 
ATOM     25  C   LIG    1        0.128   9.700   1.412  0.00  0.00    +0.230 C 
ATOM     26  O   LIG    1        0.251   8.324   1.038  0.00  0.00    -0.310 OA
ATOM     27  C   LIG    1        1.072   7.553   1.803  0.00  0.00    +0.040 A 
ATOM     28  C   LIG    1        0.971   6.175   1.727  0.00  0.00    +0.080 A 
ENDBRANCH  17  19
ENDBRANCH  15  16
ENDBRANCH   1  15
TORSDOF 5
