REMARK  Name = ZINCqH0000003Lx2.0
REMARK                            x       y       z     vdW  Elec       q    Type
REMARK                         _______ _______ _______ _____ _____    ______ ____
ROOT
ATOM      1  N   LIG    1       -0.725   6.725   0.349  0.00  0.00    -0.670 N 
ATOM      2  H   LIG    1       -1.557   6.420  -0.046  0.00  0.00    +0.410 HD
ATOM      3  C   LIG    1        0.089   5.848   0.969  0.00  0.00    +0.510 C 
ATOM      4  O   LIG    1        1.081   6.243   1.544  0.00  0.00    -0.500 OA
ENDROOT
BRANCH   1   8
ATOM      5  C   LIG    1        0.337  10.755   0.132  0.00  0.00    +0.090 A 
ATOM      6  C   LIG    1        1.317   9.777   0.102  0.00  0.00    -0.010 A 
ATOM      7  C   LIG    1        0.965   8.442   0.174  0.00  0.00    +0.030 A 
ATOM      8  C   LIG    1       -0.371   8.079   0.277  0.00  0.00    +0.150 A 
ATOM      9  C   LIG    1       -1.356   9.057   0.301  0.00  0.00    -0.060 A 
ATOM     10  C   LIG    1       -1.004  10.394   0.234  0.00  0.00    +0.120 A 
BRANCH   5  11
ATOM     11  O   LIG    1        0.684  12.069   0.061  0.00  0.00    -0.300 OA
BRANCH  11  13
ATOM     12  C   LIG    1        2.272  13.882  -0.110  0.00  0.00    +0.070 C 
ATOM     13  C   LIG    1        2.078  12.366  -0.043  0.00  0.00    +0.170 C 
ENDBRANCH  11  13
ENDBRANCH   5  11
BRANCH  10  14
ATOM     14  O   LIG    1       -1.967  11.354   0.264  0.00  0.00    -0.300 OA
BRANCH  14  15
ATOM     15  C   LIG    1       -3.321  10.911   0.370  0.00  0.00    +0.170 C 
ATOM     16  C   LIG    1       -4.254  12.123   0.389  0.00  0.00    +0.070 C 
ENDBRANCH  14  15
ENDBRANCH  10  14
ENDBRANCH   1   8
BRANCH   3  17
ATOM     17  C   LIG    1       -0.233   4.376   0.947  0.00  0.00    +0.300 C 
BRANCH  17  18
ATOM     18  N   LIG    1        0.797   3.639   1.685  0.00  0.00    -0.720 N 
ATOM     19  H   LIG    1        1.537   4.117   2.091  0.00  0.00    +0.430 HD
BRANCH  18  20
ATOM     20  C   LIG    1        0.713   2.260   1.801  0.00  0.00    +0.280 A 
ATOM     21  C   LIG    1       -0.274   1.560   1.119  0.00  0.00    -0.090 A 
ATOM     22  C   LIG    1       -0.355   0.187   1.237  0.00  0.00    +0.100 A 
ATOM     23  C   LIG    1        0.544  -0.505   2.034  0.00  0.00    -0.070 A 
ATOM     24  C   LIG    1        1.530   0.169   2.719  0.00  0.00    +0.110 A 
ATOM     25  C   LIG    1        1.627   1.562   2.611  0.00  0.00    -0.260 A 
BRANCH  25  26
ATOM     26  C   LIG    1        2.674   2.288   3.338  0.00  0.00    +0.400 C 
ATOM     27  O   LIG    1        2.820   3.479   3.163  0.00  0.00    -0.470 OA
ATOM     28  C   LIG    1        3.568   1.553   4.304  0.00  0.00    +0.060 C 
ENDBRANCH  25  26
ENDBRANCH  18  20
ENDBRANCH  17  18
ENDBRANCH   3  17
TORSDOF 9
