REMARK  Name = ZINCvU00000006HJ.0
REMARK                            x       y       z     vdW  Elec       q    Type
REMARK                         _______ _______ _______ _____ _____    ______ ____
ROOT
ATOM      1  C   LIG    1       -1.954  -3.010  -0.629  0.00  0.00    +0.060 C 
ATOM      2  C   LIG    1       -1.692  -4.329  -0.561  0.00  0.00    +0.060 C 
ENDROOT
BRANCH   1   9
ATOM      3  C   LIG    1       -0.019   1.519   0.010  0.00  0.00    +0.080 C 
ATOM      4  C   LIG    1        1.423   2.032  -0.001  0.00  0.00    +0.060 C 
ATOM      5  C   LIG    1        2.215   1.349   1.117  0.00  0.00    +0.030 C 
ATOM      6  C   LIG    1        2.428  -0.123   0.749  0.00  0.00    +0.120 C 
ATOM      7  C   LIG    1        1.101  -0.714   0.334  0.00  0.00    -0.200 A 
ATOM      8  S   LIG    1        0.733  -2.430   0.204  0.00  0.00    +0.090 S 
ATOM      9  C   LIG    1       -0.908  -2.037  -0.298  0.00  0.00    +0.110 A 
ATOM     10  N   LIG    1       -1.043  -0.743  -0.327  0.00  0.00    -0.460 NA
ATOM     11  C   LIG    1        0.002  -0.004   0.002  0.00  0.00    +0.070 A 
BRANCH   3  15
ATOM     12  C   LIG    1       -2.734   2.169  -2.609  0.00  0.00    +0.280 C 
ATOM     13  N   LIG    1       -2.030   1.681  -1.420  0.00  0.00    -0.720 N 
ATOM     14  H   LIG    1       -2.490   1.113  -0.783  0.00  0.00    +0.410 HD
ATOM     15  C   LIG    1       -0.743   2.021  -1.212  0.00  0.00    +0.520 C 
ATOM     16  O   LIG    1       -0.167   2.732  -2.009  0.00  0.00    -0.540 OA
ENDBRANCH   3  15
ENDBRANCH   1   9
BRANCH   2  17
ATOM     17  C   LIG    1       -2.741  -5.306  -0.894  0.00  0.00    -0.060 A 
ATOM     18  C   LIG    1       -4.011  -4.866  -1.281  0.00  0.00    +0.030 A 
ATOM     19  C   LIG    1       -4.992  -5.784  -1.592  0.00  0.00    -0.040 A 
ATOM     20  C   LIG    1       -4.724  -7.143  -1.522  0.00  0.00    +0.110 A 
ATOM     21  C   LIG    1       -3.461  -7.589  -1.137  0.00  0.00    +0.100 A 
ATOM     22  C   LIG    1       -2.470  -6.677  -0.830  0.00  0.00    -0.010 A 
BRANCH  21  23
ATOM     23  O   LIG    1       -3.202  -8.922  -1.070  0.00  0.00    -0.300 OA
ATOM     24  C   LIG    1       -1.886  -9.308  -0.668  0.00  0.00    +0.240 C 
ENDBRANCH  21  23
BRANCH  20  25
ATOM     25  O   LIG    1       -5.695  -8.042  -1.831  0.00  0.00    -0.290 OA
BRANCH  25  26
ATOM     26  C   LIG    1       -6.967  -7.517  -2.217  0.00  0.00    +0.240 C 
BRANCH  26  27
ATOM     27  C   LIG    1       -7.909  -8.654  -2.518  0.00  0.00    -0.100 A 
ATOM     28  C   LIG    1       -7.993  -9.160  -3.802  0.00  0.00    +0.030 A 
ATOM     29  C   LIG    1       -8.854 -10.206  -4.077  0.00  0.00    +0.010 A 
ATOM     30  C   LIG    1       -9.639 -10.738  -3.071  0.00  0.00    +0.010 A 
ATOM     31  C   LIG    1       -9.559 -10.228  -1.789  0.00  0.00    +0.010 A 
ATOM     32  C   LIG    1       -8.694  -9.186  -1.512  0.00  0.00    +0.030 A 
ENDBRANCH  26  27
ENDBRANCH  25  26
ENDBRANCH  20  25
ENDBRANCH   2  17
TORSDOF 7
