REMARK  Name = ZINCpk000000oiKO.0
REMARK                            x       y       z     vdW  Elec       q    Type
REMARK                         _______ _______ _______ _____ _____    ______ ____
ROOT
ATOM      1  N   LIG    1       -1.142   4.229  -1.171  0.00  0.00    -0.600 N 
ATOM      2  C   LIG    1       -0.885   3.725  -2.393  0.00  0.00    +0.510 C 
ATOM      3  O   LIG    1       -0.292   2.672  -2.503  0.00  0.00    -0.520 OA
ENDROOT
BRANCH   1   4
ATOM      4  C   LIG    1       -0.705   3.507   0.027  0.00  0.00    +0.260 C 
ATOM      5  C   LIG    1       -1.260   2.068   0.019  0.00  0.00    +0.100 C 
ATOM      6  C   LIG    1       -0.014   1.208   0.009  0.00  0.00    +0.540 C 
ATOM      7  N   LIG    1        1.066   1.998   0.003  0.00  0.00    -0.560 N 
ATOM      8  C   LIG    1        2.433   1.472  -0.013  0.00  0.00    +0.310 C 
ATOM      9  O   LIG    1        0.002  -0.004   0.002  0.00  0.00    -0.480 OA
ATOM     10  C   LIG    1        0.795   3.309   0.012  0.00  0.00    +0.530 C 
ATOM     11  O   LIG    1        1.620   4.197   0.009  0.00  0.00    -0.470 OA
ENDBRANCH   1   4
BRANCH   1  12
ATOM     12  C   LIG    1       -1.858   5.500  -1.038  0.00  0.00    +0.290 C 
BRANCH  12  14
ATOM     13  C   LIG    1       -1.601   7.981  -0.884  0.00  0.00    +0.030 C 
ATOM     14  C   LIG    1       -0.853   6.653  -1.022  0.00  0.00    -0.010 C 
ENDBRANCH  12  14
ENDBRANCH   1  12
BRANCH   2  15
ATOM     15  C   LIG    1       -1.334   4.468  -3.625  0.00  0.00    +0.150 C 
BRANCH  15  16
ATOM     16  C   LIG    1       -0.927   3.697  -4.854  0.00  0.00    -0.210 A 
ATOM     17  C   LIG    1        0.239   3.832  -5.528  0.00  0.00    +0.120 A 
ATOM     18  N   LIG    1        0.219   2.964  -6.562  0.00  0.00    -0.440 N 
ATOM     19  N   LIG    1       -1.003   2.279  -6.526  0.00  0.00    -0.270 NA
ATOM     20  C   LIG    1        1.359   4.779  -5.185  0.00  0.00    +0.150 C 
ATOM     21  C   LIG    1       -1.688   2.719  -5.502  0.00  0.00    +0.110 A 
ATOM     22  C   LIG    1       -3.061   2.252  -5.092  0.00  0.00    +0.160 C 
BRANCH  18  23
ATOM     23  C   LIG    1        1.284   2.776  -7.550  0.00  0.00    +0.660 C 
ATOM     24  F   LIG    1        1.979   3.978  -7.721  0.00  0.00    -0.180 F 
ATOM     25  F   LIG    1        0.724   2.382  -8.770  0.00  0.00    -0.170 F 
ENDBRANCH  18  23
ENDBRANCH  15  16
ENDBRANCH   2  15
TORSDOF 6
