REMARK  Name = ZINCpk000000n8Dk.0
REMARK                            x       y       z     vdW  Elec       q    Type
REMARK                         _______ _______ _______ _____ _____    ______ ____
ROOT
ATOM      1  C   LIG    1        1.567   3.539  -0.408  0.00  0.00    +0.320 C 
ENDROOT
BRANCH   1   8
ATOM      2  C   LIG    1        2.509   1.968  -2.375  0.00  0.00    +0.650 C 
ATOM      3  N   LIG    1        1.964   1.305  -1.335  0.00  0.00    -0.590 N 
ATOM      4  C   LIG    1        1.837  -0.158  -1.364  0.00  0.00    +0.270 C 
ATOM      5  C   LIG    1        0.379  -0.532  -1.080  0.00  0.00    +0.010 C 
ATOM      6  C   LIG    1       -0.062   0.112   0.237  0.00  0.00    +0.020 C 
ATOM      7  C   LIG    1        0.033   1.635   0.119  0.00  0.00    +0.020 C 
ATOM      8  C   LIG    1        1.487   2.033  -0.151  0.00  0.00    +0.230 C 
ATOM      9  O   LIG    1        2.524   3.183  -2.381  0.00  0.00    -0.550 OA
BRANCH   2  10
ATOM     10  O   LIG    1        3.038   1.283  -3.406  0.00  0.00    -0.360 OA
BRANCH  10  12
ATOM     11  C   LIG    1        4.743   2.934  -3.952  0.00  0.00    +0.040 C 
ATOM     12  C   LIG    1        3.608   2.062  -4.492  0.00  0.00    +0.140 C 
ATOM     13  C   LIG    1        2.525   2.954  -5.102  0.00  0.00    +0.040 C 
ATOM     14  C   LIG    1        4.155   1.118  -5.564  0.00  0.00    +0.080 C 
ENDBRANCH  10  12
ENDBRANCH   2  10
ENDBRANCH   1   8
BRANCH   1  15
ATOM     15  N   LIG    1        1.105   4.262   0.780  0.00  0.00    -0.750 N 
ATOM     16  H   LIG    1        0.887   3.775   1.589  0.00  0.00    +0.390 HD
ATOM     17  C   LIG    1        0.984   5.604   0.747  0.00  0.00    +0.710 C 
ATOM     18  N   LIG    1        0.559   6.269   1.839  0.00  0.00    -0.740 N 
ATOM     19  H   LIG    1        0.341   5.782   2.649  0.00  0.00    +0.400 HD
ATOM     20  O   LIG    1        1.258   6.214  -0.268  0.00  0.00    -0.580 OA
BRANCH  18  21
ATOM     21  C   LIG    1        0.428   7.728   1.804  0.00  0.00    +0.320 C 
BRANCH  21  22
ATOM     22  C   LIG    1       -0.069   8.228   3.161  0.00  0.00    +0.120 C 
ATOM     23  C   LIG    1       -0.207   9.753   3.126  0.00  0.00    +0.210 C 
ATOM     24  O   LIG    1       -0.776  10.202   4.359  0.00  0.00    -0.380 OA
ATOM     25  C   LIG    1       -2.052   9.622   4.645  0.00  0.00    +0.190 C 
ATOM     26  C   LIG    1       -1.914   8.097   4.681  0.00  0.00    +0.190 C 
ATOM     27  O   LIG    1       -1.345   7.648   3.448  0.00  0.00    -0.370 OA
ENDBRANCH  21  22
ENDBRANCH  18  21
ENDBRANCH   1  15
TORSDOF 6
