REMARK  Name = ZINCvU00000009LU.0
REMARK                            x       y       z     vdW  Elec       q    Type
REMARK                         _______ _______ _______ _____ _____    ______ ____
ROOT
ATOM      1  C   LIG    1       -2.539  -4.171   0.004  0.00  0.00    +0.360 C 
ATOM      2  C   LIG    1       -2.790  -4.684   1.384  0.00  0.00    -0.240 A 
ATOM      3  C   LIG    1       -3.971  -5.370   1.365  0.00  0.00    +0.100 A 
ATOM      4  C   LIG    1       -4.508  -5.328  -0.006  0.00  0.00    +0.570 C 
ATOM      5  O   LIG    1       -5.547  -5.848  -0.362  0.00  0.00    -0.420 OA
ATOM      6  O   LIG    1       -4.490  -5.955   2.463  0.00  0.00    -0.170 OA
ATOM      7  C   LIG    1       -3.731  -6.081   3.575  0.00  0.00    +0.160 A 
ATOM      8  C   LIG    1       -4.183  -6.896   4.613  0.00  0.00    +0.040 A 
ATOM      9  C   LIG    1       -3.432  -7.039   5.758  0.00  0.00    +0.130 A 
ATOM     10  C   LIG    1       -2.220  -6.378   5.902  0.00  0.00    -0.120 A 
ATOM     11  C   LIG    1       -1.751  -5.568   4.889  0.00  0.00    +0.160 A 
ATOM     12 BR   LIG    1       -1.211  -6.588   7.487  0.00  0.00    -0.020 Br
ATOM     13  C   LIG    1       -2.502  -5.418   3.724  0.00  0.00    -0.210 A 
ATOM     14  C   LIG    1       -2.009  -4.558   2.618  0.00  0.00    +0.460 A 
ATOM     15  O   LIG    1       -1.046  -3.819   2.726  0.00  0.00    -0.420 OA
ATOM     16  N   LIG    1       -3.679  -4.629  -0.807  0.00  0.00    -0.510 N 
ENDROOT
BRANCH   1  21
ATOM     17  C   LIG    1       -1.200  -0.637   0.010  0.00  0.00    +0.140 A 
ATOM     18  C   LIG    1       -2.374   0.101   0.031  0.00  0.00    -0.060 A 
ATOM     19  C   LIG    1       -3.595  -0.545   0.032  0.00  0.00    +0.060 A 
ATOM     20  C   LIG    1       -3.648  -1.927   0.026  0.00  0.00    -0.010 A 
ATOM     21  C   LIG    1       -2.479  -2.665   0.011  0.00  0.00    -0.080 A 
ATOM     22  C   LIG    1       -1.255  -2.024   0.003  0.00  0.00    +0.030 A 
BRANCH  17  23
ATOM     23  O   LIG    1        0.002  -0.004   0.002  0.00  0.00    -0.310 OA
BRANCH  23  25
ATOM     24  C   LIG    1        1.418   1.954  -0.001  0.00  0.00    +0.070 C 
ATOM     25  C   LIG    1       -0.017   1.425   0.010  0.00  0.00    +0.170 C 
ENDBRANCH  23  25
ENDBRANCH  17  23
ENDBRANCH   1  21
BRANCH  16  26
ATOM     26  C   LIG    1       -3.867  -4.385  -2.161  0.00  0.00    +0.280 A 
ATOM     27  N   LIG    1       -4.878  -4.804  -2.857  0.00  0.00    -0.480 NA
ATOM     28  C   LIG    1       -4.899  -4.475  -4.135  0.00  0.00    +0.100 A 
ATOM     29  C   LIG    1       -3.852  -3.753  -4.540  0.00  0.00    -0.100 A 
ATOM     30  C   LIG    1       -6.013  -4.887  -5.063  0.00  0.00    +0.160 C 
ATOM     31  S   LIG    1       -2.797  -3.496  -3.153  0.00  0.00    +0.170 S 
ENDBRANCH  16  26
TORSDOF 4
