REMARK  Name = ZINCrg00000IZlXh.0
REMARK                            x       y       z     vdW  Elec       q    Type
REMARK                         _______ _______ _______ _____ _____    ______ ____
ROOT
ATOM      1  N   LIG    1       -6.872   0.325   1.368  0.00  0.00    -0.660 N 
ATOM      2  H   LIG    1       -6.746  -0.622   1.196  0.00  0.00    +0.410 HD
ATOM      3  C   LIG    1       -5.807   1.112   1.616  0.00  0.00    +0.720 C 
ATOM      4  N   LIG    1       -4.560   0.614   1.504  0.00  0.00    -0.620 N 
ATOM      5  C   LIG    1       -4.337  -0.812   1.218  0.00  0.00    +0.250 C 
ATOM      6  C   LIG    1       -3.362  -0.923   0.041  0.00  0.00    +0.230 C 
ATOM      7  O   LIG    1       -2.197  -0.141   0.319  0.00  0.00    -0.370 OA
ATOM      8  C   LIG    1       -2.452   1.258   0.464  0.00  0.00    +0.220 C 
ATOM      9  C   LIG    1       -3.381   1.480   1.663  0.00  0.00    +0.320 C 
ATOM     10  O   LIG    1       -5.971   2.272   1.941  0.00  0.00    -0.550 OA
ENDROOT
BRANCH   1  13
ATOM     11  C   LIG    1       -9.634   2.739   1.262  0.00  0.00    +0.450 A 
ATOM     12  C   LIG    1       -8.333   2.244   1.273  0.00  0.00    -0.130 A 
ATOM     13  C   LIG    1       -8.152   0.868   1.359  0.00  0.00    +0.440 A 
ATOM     14  N   LIG    1       -9.222   0.080   1.437  0.00  0.00    -0.590 NA
ATOM     15  C   LIG    1      -10.438   0.586   1.430  0.00  0.00    +0.570 A 
ATOM     16  N   LIG    1      -10.651   1.883   1.344  0.00  0.00    -0.590 NA
BRANCH  11  18
ATOM     17  C   LIG    1       -8.748   5.026   0.972  0.00  0.00    +0.310 C 
ATOM     18  N   LIG    1       -9.868   4.103   1.172  0.00  0.00    -0.600 N 
ATOM     19  C   LIG    1      -11.234   4.620   1.277  0.00  0.00    +0.290 C 
ENDBRANCH  11  18
ENDBRANCH   1  13
BRANCH   8  20
ATOM     20  C   LIG    1       -1.153   1.985   0.692  0.00  0.00    +0.220 A 
ATOM     21  C   LIG    1        0.053   1.305   0.626  0.00  0.00    -0.110 A 
ATOM     22  C   LIG    1        1.226   2.013   0.837  0.00  0.00    +0.360 A 
ATOM     23  N   LIG    1        1.160   3.308   1.097  0.00  0.00    -0.560 NA
ATOM     24  C   LIG    1       -0.010   3.928   1.159  0.00  0.00    +0.570 A 
ATOM     25  N   LIG    1       -1.149   3.280   0.963  0.00  0.00    -0.560 NA
BRANCH  24  26
ATOM     26  N   LIG    1       -0.042   5.284   1.435  0.00  0.00    -0.590 N 
ATOM     27  C   LIG    1       -1.326   5.986   1.507  0.00  0.00    +0.300 C 
ATOM     28  C   LIG    1        1.207   6.017   1.655  0.00  0.00    +0.310 C 
ENDBRANCH  24  26
ENDBRANCH   8  20
TORSDOF 4
