REMARK  Name = ZINCpk000000oNVT.1
REMARK                            x       y       z     vdW  Elec       q    Type
REMARK                         _______ _______ _______ _____ _____    ______ ____
ROOT
ATOM      1  C   LIG    1        5.801   2.567  -0.041  0.00  0.00    +0.240 A 
ATOM      2  N   LIG    1        4.894   1.614  -0.037  0.00  0.00    -0.540 NA
ATOM      3  C   LIG    1        3.669   2.158  -0.022  0.00  0.00    +0.290 A 
ATOM      4  N   LIG    1        3.784   3.467  -0.021  0.00  0.00    -0.270 NA
ATOM      5  N   LIG    1        5.158   3.756  -0.028  0.00  0.00    -0.460 N 
ATOM      6  H   LIG    1        5.566   4.636  -0.027  0.00  0.00    +0.450 HD
ENDROOT
BRANCH   3   7
ATOM      7  C   LIG    1        2.391   1.405  -0.013  0.00  0.00    -0.090 A 
ATOM      8  C   LIG    1        2.401   0.012  -0.021  0.00  0.00    +0.140 A 
ATOM      9  C   LIG    1        1.212  -0.686  -0.014  0.00  0.00    -0.110 A 
ATOM     10  C   LIG    1        0.002  -0.004   0.002  0.00  0.00    +0.190 A 
ATOM     11  C   LIG    1       -0.017   1.383   0.010  0.00  0.00    -0.110 A 
ATOM     12  C   LIG    1        1.172   2.092   0.002  0.00  0.00    +0.200 A 
BRANCH  10  13
ATOM     13  O   LIG    1       -1.166  -0.697   0.009  0.00  0.00    -0.310 OA
ATOM     14  C   LIG    1       -1.075  -2.123   0.001  0.00  0.00    +0.240 C 
ENDBRANCH  10  13
BRANCH  12  15
ATOM     15  O   LIG    1        1.156   3.450   0.009  0.00  0.00    -0.290 OA
ATOM     16  C   LIG    1       -0.125   4.083   0.025  0.00  0.00    +0.240 C 
ENDBRANCH  12  15
ENDBRANCH   3   7
BRANCH   1  17
ATOM     17  S   LIG    1        7.547   2.335  -0.059  0.00  0.00    +0.090 S 
BRANCH  17  18
ATOM     18  C   LIG    1        7.623   0.527  -0.070  0.00  0.00    +0.130 C 
BRANCH  18  24
ATOM     19  N   LIG    1       10.956  -2.938  -0.122  0.00  0.00    -0.740 N 
ATOM     20  H   LIG    1       10.246  -3.598  -0.119  0.00  0.00    +0.400 HD
ATOM     21  C   LIG    1       10.654  -1.624  -0.112  0.00  0.00    +0.690 C 
ATOM     22  N   LIG    1        9.366  -1.229  -0.097  0.00  0.00    -0.690 N 
ATOM     23  H   LIG    1        8.656  -1.890  -0.094  0.00  0.00    +0.410 HD
ATOM     24  C   LIG    1        9.064   0.085  -0.086  0.00  0.00    +0.540 C 
ATOM     25  O   LIG    1        9.952   0.911  -0.090  0.00  0.00    -0.450 OA
ATOM     26  O   LIG    1       11.544  -0.796  -0.115  0.00  0.00    -0.530 OA
BRANCH  19  28
ATOM     27  C   LIG    1       12.421  -4.896  -0.147  0.00  0.00    +0.030 C 
ATOM     28  C   LIG    1       12.357  -3.367  -0.138  0.00  0.00    +0.270 C 
ENDBRANCH  19  28
ENDBRANCH  18  24
ENDBRANCH  17  18
ENDBRANCH   1  17
TORSDOF 7
