REMARK  Name = ZINCpk000000oNVT.0
REMARK                            x       y       z     vdW  Elec       q    Type
REMARK                         _______ _______ _______ _____ _____    ______ ____
ROOT
ATOM      1  C   LIG    1        5.773   2.637  -0.040  0.00  0.00    +0.190 A 
ATOM      2  N   LIG    1        5.153   3.794  -0.027  0.00  0.00    -0.320 NA
ATOM      3  N   LIG    1        3.776   3.522  -0.021  0.00  0.00    -0.480 N 
ATOM      4  H   LIG    1        3.055   4.171  -0.015  0.00  0.00    +0.440 HD
ATOM      5  C   LIG    1        3.653   2.175  -0.021  0.00  0.00    +0.360 A 
ATOM      6  N   LIG    1        4.866   1.657  -0.036  0.00  0.00    -0.480 NA
ENDROOT
BRANCH   5   7
ATOM      7  C   LIG    1        2.385   1.417  -0.013  0.00  0.00    -0.120 A 
ATOM      8  C   LIG    1        1.165   2.095   0.002  0.00  0.00    +0.120 A 
ATOM      9  C   LIG    1       -0.017   1.385   0.010  0.00  0.00    -0.110 A 
ATOM     10  C   LIG    1        0.002  -0.004   0.002  0.00  0.00    +0.200 A 
ATOM     11  C   LIG    1        1.210  -0.686  -0.013  0.00  0.00    -0.100 A 
ATOM     12  C   LIG    1        2.402   0.017  -0.021  0.00  0.00    +0.220 A 
BRANCH  10  13
ATOM     13  O   LIG    1       -1.166  -0.697   0.009  0.00  0.00    -0.310 OA
ATOM     14  C   LIG    1       -2.374   0.068   0.024  0.00  0.00    +0.250 C 
ENDBRANCH  10  13
BRANCH  12  15
ATOM     15  O   LIG    1        3.585  -0.650  -0.037  0.00  0.00    -0.270 OA
ATOM     16  C   LIG    1        3.526  -2.077  -0.044  0.00  0.00    +0.250 C 
ENDBRANCH  12  15
ENDBRANCH   5   7
BRANCH   1  17
ATOM     17  S   LIG    1        7.521   2.412  -0.057  0.00  0.00    +0.120 S 
BRANCH  17  18
ATOM     18  C   LIG    1        8.150   4.114  -0.054  0.00  0.00    +0.100 C 
BRANCH  18  24
ATOM     19  N   LIG    1       12.387   6.386  -0.081  0.00  0.00    -0.740 N 
ATOM     20  H   LIG    1       11.914   7.233  -0.072  0.00  0.00    +0.400 HD
ATOM     21  C   LIG    1       11.696   5.229  -0.081  0.00  0.00    +0.690 C 
ATOM     22  N   LIG    1       10.348   5.248  -0.068  0.00  0.00    -0.690 N 
ATOM     23  H   LIG    1        9.876   6.096  -0.059  0.00  0.00    +0.410 HD
ATOM     24  C   LIG    1        9.657   4.091  -0.068  0.00  0.00    +0.540 C 
ATOM     25  O   LIG    1       10.248   3.033  -0.079  0.00  0.00    -0.440 OA
ATOM     26  O   LIG    1       12.288   4.167  -0.092  0.00  0.00    -0.520 OA
BRANCH  19  28
ATOM     27  C   LIG    1       14.383   7.799  -0.092  0.00  0.00    +0.030 C 
ATOM     28  C   LIG    1       13.851   6.364  -0.095  0.00  0.00    +0.270 C 
ENDBRANCH  19  28
ENDBRANCH  18  24
ENDBRANCH  17  18
ENDBRANCH   1  17
TORSDOF 7
