REMARK  Name = ZINCrg000000nN7u.0
REMARK                            x       y       z     vdW  Elec       q    Type
REMARK                         _______ _______ _______ _____ _____    ______ ____
ROOT
ATOM      1  O   LIG    1        1.771   2.687   3.656  0.00  0.00    -0.330 OA
ENDROOT
BRANCH   1   2
ATOM      2  C   LIG    1        1.182   2.366   2.493  0.00  0.00    +0.470 C 
ATOM      3  O   LIG    1        1.568   2.866   1.463  0.00  0.00    -0.480 OA
BRANCH   2   4
ATOM      4  C   LIG    1        0.041   1.382   2.472  0.00  0.00    +0.220 C 
BRANCH   4   5
ATOM      5  C   LIG    1        0.586  -0.021   2.540  0.00  0.00    -0.100 A 
ATOM      6  C   LIG    1        1.196  -0.580   1.432  0.00  0.00    +0.050 A 
ATOM      7  C   LIG    1        1.700  -1.865   1.496  0.00  0.00    -0.010 A 
ATOM      8  C   LIG    1        1.586  -2.596   2.664  0.00  0.00    +0.010 A 
ATOM      9  C   LIG    1        0.972  -2.039   3.770  0.00  0.00    +0.010 A 
ATOM     10  C   LIG    1        0.471  -0.752   3.708  0.00  0.00    +0.030 A 
ENDBRANCH   4   5
BRANCH   4  11
ATOM     11  N   LIG    1       -0.727   1.550   1.232  0.00  0.00    -0.520 NA
ATOM     12  C   LIG    1       -1.300   2.900   1.145  0.00  0.00    +0.200 C 
BRANCH  11  14
ATOM     13  C   LIG    1       -2.227   0.418  -0.339  0.00  0.00    +0.040 C 
ATOM     14  C   LIG    1       -1.774   0.526   1.119  0.00  0.00    +0.170 C 
ENDBRANCH  11  14
ENDBRANCH   4  11
ENDBRANCH   2   4
ENDBRANCH   1   2
BRANCH   1  15
ATOM     15  C   LIG    1        2.864   3.641   3.601  0.00  0.00    +0.180 C 
ATOM     16  C   LIG    1        2.311   5.059   3.757  0.00  0.00    +0.060 C 
BRANCH  15  17
ATOM     17  C   LIG    1        3.837   3.356   4.716  0.00  0.00    +0.520 C 
ATOM     18  N   LIG    1        4.938   4.120   4.862  0.00  0.00    -0.730 N 
ATOM     19  H   LIG    1        5.103   4.854   4.249  0.00  0.00    +0.400 HD
ATOM     20  O   LIG    1        3.630   2.438   5.481  0.00  0.00    -0.510 OA
BRANCH  18  21
ATOM     21  C   LIG    1        5.883   3.842   5.945  0.00  0.00    +0.270 C 
BRANCH  21  22
ATOM     22  C   LIG    1        7.035   4.848   5.887  0.00  0.00    +0.170 C 
BRANCH  22  23
ATOM     23  N   LIG    1        7.984   4.570   6.974  0.00  0.00    -0.530 NA
ATOM     24  C   LIG    1        7.371   4.825   8.286  0.00  0.00    +0.150 C 
ATOM     25  C   LIG    1        8.371   4.466   9.388  0.00  0.00    +0.220 C 
ATOM     26  O   LIG    1        9.574   5.217   9.196  0.00  0.00    -0.380 OA
ATOM     27  C   LIG    1       10.197   4.992   7.929  0.00  0.00    +0.220 C 
ATOM     28  C   LIG    1        9.215   5.356   6.812  0.00  0.00    +0.160 C 
ENDBRANCH  22  23
ENDBRANCH  21  22
ENDBRANCH  18  21
ENDBRANCH  15  17
ENDBRANCH   1  15
TORSDOF 10
