REMARK  Name = ZINCpk000005ZIeq.0
REMARK                            x       y       z     vdW  Elec       q    Type
REMARK                         _______ _______ _______ _____ _____    ______ ____
ROOT
ATOM      1  O   LIG    1       -3.050   5.537   0.719  0.00  0.00    -0.550 OA
ATOM      2  C   LIG    1       -2.233   5.013  -0.021  0.00  0.00    +0.510 A 
ATOM      3  C   LIG    1       -1.262   5.804  -0.651  0.00  0.00    -0.110 A 
ATOM      4  C   LIG    1       -0.321   5.202  -1.434  0.00  0.00    +0.120 A 
ATOM      5  C   LIG    1       -0.343   3.809  -1.565  0.00  0.00    -0.110 A 
ATOM      6  C   LIG    1       -1.298   3.070  -0.939  0.00  0.00    +0.200 A 
ATOM      7  C   LIG    1       -1.212   1.567  -1.074  0.00  0.00    +0.070 C 
ATOM      8  C   LIG    1       -2.615   0.967  -0.925  0.00  0.00    +0.050 C 
ATOM      9  C   LIG    1       -3.185   1.456   0.410  0.00  0.00    +0.010 C 
ATOM     10  C   LIG    1       -3.418   2.955   0.341  0.00  0.00    +0.290 C 
ATOM     11  C   LIG    1       -2.268   1.075   1.562  0.00  0.00    +0.230 C 
ATOM     12  N   LIG    1       -0.906   1.573   1.341  0.00  0.00    -0.470 N 
ATOM     13  C   LIG    1       -0.347   1.047   0.086  0.00  0.00    +0.240 C 
ATOM     14  N   LIG    1       -2.276   3.673  -0.225  0.00  0.00    -0.470 N 
ENDROOT
BRANCH  12  15
ATOM     15  C   LIG    1       -0.085   1.271   2.414  0.00  0.00    +0.410 A 
ATOM     16  N   LIG    1        0.208   0.069   2.859  0.00  0.00    -0.350 NA
ATOM     17  N   LIG    1        0.999   0.143   3.867  0.00  0.00    -0.040 NA
ATOM     18  N   LIG    1        1.259   1.375   4.143  0.00  0.00    -0.070 NA
ATOM     19  N   LIG    1        0.561   2.157   3.206  0.00  0.00    -0.350 N 
BRANCH  19  20
ATOM     20  C   LIG    1        0.538   3.619   3.108  0.00  0.00    +0.360 C 
BRANCH  20  21
ATOM     21  C   LIG    1       -0.617   4.168   3.947  0.00  0.00    +0.010 C 
ATOM     22  C   LIG    1       -0.371   3.912   5.415  0.00  0.00    -0.050 C 
ATOM     23  C   LIG    1       -0.639   4.971   6.129  0.00  0.00    -0.020 C 
ATOM     24  C   LIG    1       -1.109   6.111   5.256  0.00  0.00    +0.060 C 
ATOM     25  C   LIG    1       -0.688   5.708   3.823  0.00  0.00    +0.060 C 
ENDBRANCH  20  21
ENDBRANCH  19  20
ENDBRANCH  12  15
TORSDOF 3
