REMARK  Name = ZINCvU0000000AkQ.0
REMARK                            x       y       z     vdW  Elec       q    Type
REMARK                         _______ _______ _______ _____ _____    ______ ____
ROOT
ATOM      1  O   LIG    1       -0.847   1.919   1.250  0.00  0.00    -0.580 OA
ATOM      2  C   LIG    1       -2.048   2.109   1.227  0.00  0.00    +0.710 C 
ATOM      3  N   LIG    1       -2.667   2.638   2.301  0.00  0.00    -0.610 N 
ATOM      4  C   LIG    1       -4.110   2.744   2.284  0.00  0.00    +0.270 C 
ATOM      5  C   LIG    1       -4.522   4.120   1.704  0.00  0.00    +0.030 C 
ATOM      6  C   LIG    1       -4.162   5.189   2.655  0.00  0.00    +0.200 C 
ATOM      7  N   LIG    1       -2.728   5.302   2.921  0.00  0.00    -0.450 N 
ATOM      8  C   LIG    1       -2.341   4.429   4.009  0.00  0.00    +0.200 C 
ATOM      9  C   LIG    1       -1.843   3.080   3.445  0.00  0.00    +0.310 C 
ATOM     10  N   LIG    1       -2.759   1.789   0.128  0.00  0.00    -0.740 N 
ATOM     11  H   LIG    1       -3.726   1.872   0.135  0.00  0.00    +0.400 HD
ENDROOT
BRANCH   7  12
ATOM     12  C   LIG    1       -2.373   6.620   3.190  0.00  0.00    +0.360 A 
ATOM     13  N   LIG    1       -3.300   7.564   3.177  0.00  0.00    -0.500 NA
ATOM     14  C   LIG    1       -3.006   8.827   3.427  0.00  0.00    +0.370 A 
ATOM     15  C   LIG    1       -1.711   9.209   3.712  0.00  0.00    -0.260 A 
ATOM     16  C   LIG    1       -0.707   8.249   3.735  0.00  0.00    +0.170 A 
ATOM     17  C   LIG    1       -1.046   6.933   3.475  0.00  0.00    -0.120 A 
ATOM     18 CL   LIG    1        0.166   5.690   3.498  0.00  0.00    -0.020 Cl
BRANCH  15  19
ATOM     19  C   LIG    1       -1.389  10.654   3.995  0.00  0.00    +0.520 C 
ATOM     20  F   LIG    1       -0.461  11.118   3.056  0.00  0.00    -0.170 F 
ATOM     21  F   LIG    1       -0.847  10.767   5.280  0.00  0.00    -0.170 F 
ATOM     22  F   LIG    1       -2.558  11.417   3.912  0.00  0.00    -0.170 F 
ENDBRANCH  15  19
ENDBRANCH   7  12
BRANCH  10  23
ATOM     23  C   LIG    1       -2.073   1.316  -1.077  0.00  0.00    +0.260 C 
ATOM     24  C   LIG    1       -1.610   2.516  -1.905  0.00  0.00    +0.010 C 
ATOM     25  C   LIG    1       -0.894   2.022  -3.163  0.00  0.00    +0.040 C 
ATOM     26  C   LIG    1       -1.854   1.169  -3.994  0.00  0.00    +0.040 C 
ATOM     27  C   LIG    1       -2.316  -0.032  -3.166  0.00  0.00    -0.010 C 
ATOM     28  C   LIG    1       -3.033   0.462  -1.908  0.00  0.00    +0.030 C 
BRANCH  27  29
ATOM     29  C   LIG    1       -3.276  -0.885  -3.998  0.00  0.00    +0.450 C 
ATOM     30  F   LIG    1       -4.386  -0.116  -4.365  0.00  0.00    -0.180 F 
ATOM     31  F   LIG    1       -3.699  -1.983  -3.241  0.00  0.00    -0.180 F 
ATOM     32  F   LIG    1       -2.621  -1.337  -5.148  0.00  0.00    -0.180 F 
ENDBRANCH  27  29
ENDBRANCH  10  23
TORSDOF 4
