REMARK  Name = ZINCrD000007594z.0
REMARK                            x       y       z     vdW  Elec       q    Type
REMARK                         _______ _______ _______ _____ _____    ______ ____
ROOT
ATOM      1  O   LIG    1       -1.848   7.004  -3.564  0.00  0.00    -0.350 OA
ENDROOT
BRANCH   1   2
ATOM      2  C   LIG    1       -1.493   5.704  -3.579  0.00  0.00    +0.520 C 
ATOM      3  O   LIG    1       -1.200   5.166  -4.628  0.00  0.00    -0.500 OA
BRANCH   2   4
ATOM      4  C   LIG    1       -1.459   4.935  -2.321  0.00  0.00    -0.120 A 
ATOM      5  C   LIG    1       -1.795   5.553  -1.114  0.00  0.00    +0.110 A 
ATOM      6  C   LIG    1       -1.764   4.834   0.062  0.00  0.00    +0.010 A 
ATOM      7  C   LIG    1       -1.399   3.496   0.048  0.00  0.00    +0.140 A 
ATOM      8  N   LIG    1       -1.365   2.756   1.233  0.00  0.00    -0.660 N 
ATOM      9  H   LIG    1       -1.801   3.089   2.033  0.00  0.00    +0.420 HD
ATOM     10  C   LIG    1       -0.717   1.571   1.249  0.00  0.00    +0.490 C 
ATOM     11  C   LIG    1       -0.013   1.086   0.008  0.00  0.00    +0.310 C 
ATOM     12  O   LIG    1       -0.703   1.559  -1.151  0.00  0.00    -0.300 OA
ATOM     13  O   LIG    1       -0.702   0.900   2.259  0.00  0.00    -0.500 OA
ATOM     14  C   LIG    1       -1.060   2.872  -1.156  0.00  0.00    +0.060 A 
ATOM     15  C   LIG    1       -1.090   3.586  -2.335  0.00  0.00    +0.120 A 
ENDBRANCH   2   4
ENDBRANCH   1   2
BRANCH   1  16
ATOM     16  C   LIG    1       -1.860   7.699  -4.839  0.00  0.00    +0.340 C 
BRANCH  16  19
ATOM     17  C   LIG    1        0.042  10.108  -4.245  0.00  0.00    +0.200 C 
ATOM     18  C   LIG    1       -1.459  10.166  -4.372  0.00  0.00    -0.000 A 
ATOM     19  C   LIG    1       -2.279   9.130  -4.628  0.00  0.00    -0.020 A 
ATOM     20  N   LIG    1       -3.535   9.600  -4.667  0.00  0.00    -0.450 NA
ATOM     21  C   LIG    1       -3.507  10.891  -4.433  0.00  0.00    +0.240 A 
ATOM     22  O   LIG    1       -2.229  11.266  -4.250  0.00  0.00    -0.190 OA
BRANCH  21  23
ATOM     23  C   LIG    1       -4.684  11.785  -4.384  0.00  0.00    -0.020 A 
ATOM     24  C   LIG    1       -5.964  11.270  -4.596  0.00  0.00    +0.070 A 
ATOM     25  C   LIG    1       -7.058  12.109  -4.544  0.00  0.00    +0.010 A 
ATOM     26  C   LIG    1       -6.888  13.459  -4.292  0.00  0.00    +0.030 A 
ATOM     27  C   LIG    1       -5.622  13.976  -4.086  0.00  0.00    +0.010 A 
ATOM     28  C   LIG    1       -4.519  13.147  -4.130  0.00  0.00    +0.040 A 
ENDBRANCH  21  23
ENDBRANCH  16  19
ENDBRANCH   1  16
TORSDOF 5
