REMARK  Name = ZINCvU0000000Apk.0
REMARK                            x       y       z     vdW  Elec       q    Type
REMARK                         _______ _______ _______ _____ _____    ______ ____
ROOT
ATOM      1  C   LIG    1        1.241  -6.333  -0.258  0.00  0.00    +0.260 C 
ENDROOT
BRANCH   1   4
ATOM      2  N   LIG    1        0.059  -4.173  -0.020  0.00  0.00    -0.670 N 
ATOM      3  H   LIG    1       -0.770  -4.670   0.062  0.00  0.00    +0.410 HD
ATOM      4  C   LIG    1        1.229  -4.831  -0.137  0.00  0.00    +0.510 C 
ATOM      5  O   LIG    1        2.273  -4.214  -0.144  0.00  0.00    -0.510 OA
BRANCH   2   9
ATOM      6  C   LIG    1       -0.000  -0.004  -0.017  0.00  0.00    -0.040 A 
ATOM      7  C   LIG    1       -0.923  -0.716   0.748  0.00  0.00    +0.050 A 
ATOM      8  C   LIG    1       -0.905  -2.095   0.741  0.00  0.00    -0.010 A 
ATOM      9  C   LIG    1        0.039  -2.774  -0.019  0.00  0.00    +0.150 A 
ATOM     10  C   LIG    1        0.964  -2.067  -0.777  0.00  0.00    +0.020 A 
ATOM     11  C   LIG    1        0.946  -0.688  -0.778  0.00  0.00    +0.080 A 
BRANCH   6  15
ATOM     12  C   LIG    1        1.587   4.487  -1.351  0.00  0.00    +0.180 C 
ATOM     13  C   LIG    1        0.712   3.493  -0.631  0.00  0.00    +0.050 A 
ATOM     14  N   LIG    1        0.835   2.213  -0.711  0.00  0.00    -0.470 NA
ATOM     15  C   LIG    1       -0.021   1.479  -0.015  0.00  0.00    +0.110 A 
ATOM     16  C   LIG    1       -0.910   2.200   0.699  0.00  0.00    -0.080 A 
ATOM     17  S   LIG    1       -0.577   3.906   0.412  0.00  0.00    +0.130 S 
ENDBRANCH   6  15
ENDBRANCH   2   9
ENDBRANCH   1   4
BRANCH   1  18
ATOM     18  N   LIG    1        2.624  -6.803  -0.371  0.00  0.00    -0.710 N 
ATOM     19  H   LIG    1        3.349  -6.268  -0.011  0.00  0.00    +0.410 HD
ATOM     20  C   LIG    1        2.889  -7.978  -0.975  0.00  0.00    +0.600 C 
ATOM     21  O   LIG    1        1.980  -8.649  -1.427  0.00  0.00    -0.500 OA
BRANCH  20  22
ATOM     22  C   LIG    1        4.273  -8.448  -1.088  0.00  0.00    -0.270 A 
ATOM     23  C   LIG    1        4.668  -9.617  -1.676  0.00  0.00    +0.100 A 
ATOM     24  C   LIG    1        6.029  -9.810  -1.643  0.00  0.00    +0.000 A 
ATOM     25  C   LIG    1        6.726  -8.834  -1.050  0.00  0.00    -0.060 A 
ATOM     26  S   LIG    1        5.692  -7.595  -0.496  0.00  0.00    +0.200 S 
ENDBRANCH  20  22
ENDBRANCH   1  18
BRANCH   1  27
ATOM     27  C   LIG    1        0.593  -6.950   0.983  0.00  0.00    +0.080 C 
BRANCH  27  28
ATOM     28  C   LIG    1        0.493  -8.443   0.808  0.00  0.00    -0.070 A 
ATOM     29  C   LIG    1       -0.635  -8.998   0.233  0.00  0.00    +0.010 A 
ATOM     30  C   LIG    1       -0.724 -10.368   0.068  0.00  0.00    +0.010 A 
ATOM     31  C   LIG    1        0.310 -11.183   0.487  0.00  0.00    +0.000 A 
ATOM     32  C   LIG    1        1.436 -10.629   1.067  0.00  0.00    +0.010 A 
ATOM     33  C   LIG    1        1.528  -9.259   1.227  0.00  0.00    +0.000 A 
ENDBRANCH  27  28
ENDBRANCH   1  27
TORSDOF 7
