REMARK  Name = ZINCvU00000004nE.0
REMARK                            x       y       z     vdW  Elec       q    Type
REMARK                         _______ _______ _______ _____ _____    ______ ____
ROOT
ATOM      1  C   LIG    1       -5.994   7.929   0.694  0.00  0.00    +0.000 A 
ATOM      2  N   LIG    1       -6.151   6.646   0.592  0.00  0.00    -0.280 NA
ATOM      3  N   LIG    1       -4.991   5.913   0.465  0.00  0.00    -0.280 NA
ATOM      4  C   LIG    1       -3.892   6.599   0.463  0.00  0.00    +0.000 A 
ATOM      5  S   LIG    1       -4.276   8.308   0.639  0.00  0.00    +0.170 S 
ENDROOT
BRANCH   1   6
ATOM      6  S   LIG    1       -7.295   9.105   0.868  0.00  0.00    +0.120 S 
BRANCH   6   7
ATOM      7  C   LIG    1       -8.785   8.071   0.860  0.00  0.00    +0.110 C 
BRANCH   7   9
ATOM      8  O   LIG    1       -9.880  10.148   1.100  0.00  0.00    -0.500 OA
ATOM      9  C   LIG    1      -10.004   8.945   1.003  0.00  0.00    +0.540 C 
ATOM     10  N   LIG    1      -11.232   8.390   1.022  0.00  0.00    -0.660 N 
ATOM     11  H   LIG    1      -11.328   7.425   1.026  0.00  0.00    +0.420 HD
BRANCH  10  12
ATOM     12  C   LIG    1      -12.369   9.208   1.038  0.00  0.00    +0.150 A 
ATOM     13  C   LIG    1      -12.305  10.498   0.530  0.00  0.00    +0.080 A 
ATOM     14  C   LIG    1      -13.429  11.301   0.541  0.00  0.00    +0.030 A 
ATOM     15  C   LIG    1      -14.617  10.824   1.070  0.00  0.00    +0.100 A 
ATOM     16  C   LIG    1      -14.683   9.539   1.582  0.00  0.00    +0.030 A 
ATOM     17  F   LIG    1      -15.713  11.613   1.085  0.00  0.00    -0.130 F 
ATOM     18  C   LIG    1      -13.562   8.731   1.567  0.00  0.00    -0.040 A 
ATOM     19 CL   LIG    1      -13.645   7.120   2.210  0.00  0.00    -0.050 Cl
ENDBRANCH  10  12
ENDBRANCH   7   9
ENDBRANCH   6   7
ENDBRANCH   1   6
BRANCH   4  20
ATOM     20  S   LIG    1       -2.269   5.928   0.316  0.00  0.00    +0.120 S 
BRANCH  20  21
ATOM     21  C   LIG    1       -2.576   4.145   0.178  0.00  0.00    +0.110 C 
BRANCH  21  22
ATOM     22  C   LIG    1       -1.263   3.418   0.043  0.00  0.00    +0.540 C 
ATOM     23  N   LIG    1       -1.245   2.076  -0.074  0.00  0.00    -0.660 N 
ATOM     24  H   LIG    1       -2.078   1.585  -0.152  0.00  0.00    +0.420 HD
ATOM     25  O   LIG    1       -0.223   4.042   0.040  0.00  0.00    -0.500 OA
BRANCH  23  26
ATOM     26  C   LIG    1       -0.024   1.390  -0.084  0.00  0.00    +0.150 A 
ATOM     27  C   LIG    1        1.093   1.952   0.519  0.00  0.00    +0.080 A 
ATOM     28  C   LIG    1        2.298   1.276   0.505  0.00  0.00    +0.030 A 
ATOM     29  C   LIG    1        2.393   0.040  -0.111  0.00  0.00    +0.100 A 
ATOM     30  C   LIG    1        1.280  -0.523  -0.714  0.00  0.00    +0.030 A 
ATOM     31  F   LIG    1        3.572  -0.619  -0.124  0.00  0.00    -0.130 F 
ATOM     32  C   LIG    1        0.073   0.149  -0.701  0.00  0.00    -0.040 A 
ATOM     33 CL   LIG    1       -1.322  -0.557  -1.456  0.00  0.00    -0.050 Cl
ENDBRANCH  23  26
ENDBRANCH  21  22
ENDBRANCH  20  21
ENDBRANCH   4  20
TORSDOF 8
