REMARK  Name = ZINCpk00000ebAtd.0
REMARK                            x       y       z     vdW  Elec       q    Type
REMARK                         _______ _______ _______ _____ _____    ______ ____
ROOT
ATOM      1  N   LIG    1       -2.682   1.095  -0.823  0.00  0.00    -0.720 N 
ATOM      2  H   LIG    1       -2.006   1.706  -0.491  0.00  0.00    +0.410 HD
ATOM      3  C   LIG    1       -2.496  -0.236  -0.720  0.00  0.00    +0.560 C 
ATOM      4  O   LIG    1       -3.295  -1.000  -1.219  0.00  0.00    -0.520 OA
ENDROOT
BRANCH   3   5
ATOM      5  C   LIG    1       -1.295  -0.775   0.014  0.00  0.00    -0.120 C 
ATOM      6  C   LIG    1       -0.710  -2.104  -0.467  0.00  0.00    +0.090 C 
ATOM      7  C   LIG    1        0.039  -0.797  -0.735  0.00  0.00    +0.070 C 
BRANCH   5   8
ATOM      8  C   LIG    1       -1.258  -0.493   1.494  0.00  0.00    -0.060 A 
ATOM      9  C   LIG    1       -2.438  -0.371   2.203  0.00  0.00    +0.050 A 
ATOM     10  C   LIG    1       -2.406  -0.113   3.561  0.00  0.00    -0.010 A 
ATOM     11  C   LIG    1       -1.190   0.023   4.210  0.00  0.00    +0.100 A 
ATOM     12  C   LIG    1       -0.009  -0.100   3.498  0.00  0.00    -0.010 A 
ATOM     13  F   LIG    1       -1.157   0.274   5.537  0.00  0.00    -0.140 F 
ATOM     14  C   LIG    1       -0.044  -0.358   2.141  0.00  0.00    +0.050 A 
ENDBRANCH   5   8
ENDBRANCH   3   5
BRANCH   1  15
ATOM     15  C   LIG    1       -3.905   1.618  -1.437  0.00  0.00    +0.250 C 
BRANCH  15  16
ATOM     16  C   LIG    1       -3.865   3.148  -1.429  0.00  0.00    +0.370 C 
BRANCH  16  19
ATOM     17  O   LIG    1       -6.447   3.839  -0.207  0.00  0.00    -0.530 OA
ATOM     18  C   LIG    1       -6.239   3.963  -1.402  0.00  0.00    +0.640 A 
ATOM     19  N   LIG    1       -5.088   3.671  -2.042  0.00  0.00    -0.430 N 
ATOM     20  N   LIG    1       -5.273   3.965  -3.400  0.00  0.00    -0.290 NA
ATOM     21  C   LIG    1       -6.499   4.407  -3.554  0.00  0.00    +0.300 A 
ATOM     22  C   LIG    1       -7.215   4.844  -4.697  0.00  0.00    +0.040 A 
ATOM     23  C   LIG    1       -8.495   5.264  -4.559  0.00  0.00    +0.110 A 
ATOM     24  C   LIG    1       -9.101   5.264  -3.285  0.00  0.00    -0.020 A 
ATOM     25  C   LIG    1       -8.418   4.849  -2.204  0.00  0.00    +0.300 A 
ATOM     26  N   LIG    1       -7.118   4.418  -2.317  0.00  0.00    -0.480 N 
ENDBRANCH  16  19
ENDBRANCH  15  16
ENDBRANCH   1  15
TORSDOF 5
