REMARK  Name = ZINCkj000005hkOS.0
REMARK                            x       y       z     vdW  Elec       q    Type
REMARK                         _______ _______ _______ _____ _____    ______ ____
ROOT
ATOM      1  C   LIG    1        6.809  -7.802   1.313  0.00  0.00    +0.310 C 
ATOM      2  N   LIG    1        5.563  -7.305   0.714  0.00  0.00    -0.410 N 
ATOM      3  C   LIG    1        5.796  -6.357  -0.401  0.00  0.00    +0.340 C 
ATOM      4  C   LIG    1        4.637  -5.558   0.187  0.00  0.00    -0.130 C 
ATOM      5  C   LIG    1        3.252  -5.832  -0.425  0.00  0.00    +0.080 C 
ATOM      6  C   LIG    1        2.448  -4.601   0.077  0.00  0.00    +0.270 C 
ATOM      7  N   LIG    1        3.411  -3.484   0.055  0.00  0.00    -0.620 N 
ATOM      8  C   LIG    1        3.096  -2.177  -0.038  0.00  0.00    +0.590 C 
ATOM      9  O   LIG    1        3.977  -1.345  -0.139  0.00  0.00    -0.530 OA
ATOM     10  C   LIG    1        4.775  -4.034   0.157  0.00  0.00    +0.310 C 
ATOM     11  C   LIG    1        4.923  -6.239   1.522  0.00  0.00    +0.330 C 
ATOM     12  H   LIG    1        4.927  -8.049   0.471  0.00  0.00    +0.440 HD
ENDROOT
BRANCH   8  13
ATOM     13  C   LIG    1        1.683  -1.755  -0.016  0.00  0.00    -0.140 A 
ATOM     14  C   LIG    1        1.255  -0.677  -0.803  0.00  0.00    +0.100 A 
ATOM     15  N   LIG    1        1.884   0.175  -1.681  0.00  0.00    -0.590 N 
ATOM     16  H   LIG    1        2.824   0.163  -1.919  0.00  0.00    +0.430 HD
ATOM     17  C   LIG    1        0.944   1.039  -2.152  0.00  0.00    +0.490 A 
ATOM     18  N   LIG    1       -0.214   0.771  -1.622  0.00  0.00    -0.490 NA
ATOM     19  C   LIG    1       -0.093  -0.283  -0.775  0.00  0.00    +0.040 A 
ATOM     20  C   LIG    1       -0.995  -0.972   0.039  0.00  0.00    +0.120 A 
ATOM     21  C   LIG    1       -0.563  -2.032   0.808  0.00  0.00    +0.000 A 
ATOM     22  C   LIG    1        0.762  -2.426   0.787  0.00  0.00    +0.070 A 
ENDBRANCH   8  13
TORSDOF 1
