REMARK  Name = ZINCrH00000No57n.0
REMARK                            x       y       z     vdW  Elec       q    Type
REMARK                         _______ _______ _______ _____ _____    ______ ____
ROOT
ATOM      1  C   LIG    1        5.029   6.238   0.464  0.00  0.00    +0.300 C 
ATOM      2  N   LIG    1        4.836   5.170   1.448  0.00  0.00    -0.610 N 
ATOM      3  C   LIG    1        4.523   3.924   1.039  0.00  0.00    +0.520 C 
ATOM      4  O   LIG    1        4.363   3.040   1.853  0.00  0.00    -0.520 OA
ENDROOT
BRANCH   3   5
ATOM      5  C   LIG    1        4.370   3.631  -0.432  0.00  0.00    +0.190 C 
BRANCH   5   6
ATOM      6  C   LIG    1        4.021   2.177  -0.620  0.00  0.00    +0.150 A 
ATOM      7  N   LIG    1        4.859   1.199  -0.775  0.00  0.00    -0.280 NA
ATOM      8  O   LIG    1        4.154  -0.017  -0.922  0.00  0.00    -0.090 OA
ATOM      9  C   LIG    1        2.829   0.225  -0.855  0.00  0.00    +0.090 A 
ATOM     10  C   LIG    1        1.704  -0.586  -0.937  0.00  0.00    +0.020 A 
ATOM     11  C   LIG    1        0.448  -0.029  -0.829  0.00  0.00    +0.080 A 
ATOM     12  C   LIG    1        0.296   1.337  -0.639  0.00  0.00    -0.010 A 
ATOM     13  C   LIG    1        1.389   2.153  -0.556  0.00  0.00    +0.090 A 
ATOM     14  C   LIG    1        2.671   1.608  -0.663  0.00  0.00    -0.190 A 
ENDBRANCH   5   6
ENDBRANCH   3   5
BRANCH   2  15
ATOM     15  C   LIG    1        4.985   5.455   2.877  0.00  0.00    +0.420 C 
BRANCH  15  16
ATOM     16  C   LIG    1        6.435   5.330   3.267  0.00  0.00    +0.280 A 
ATOM     17  N   LIG    1        7.327   6.268   3.131  0.00  0.00    -0.460 NA
ATOM     18  C   LIG    1        8.528   5.825   3.583  0.00  0.00    +0.050 A 
ATOM     19  C   LIG    1        9.796   6.403   3.675  0.00  0.00    +0.070 A 
ATOM     20  C   LIG    1       10.839   5.681   4.184  0.00  0.00    +0.010 A 
ATOM     21  C   LIG    1       10.652   4.375   4.613  0.00  0.00    +0.050 A 
ATOM     22  C   LIG    1        9.409   3.784   4.533  0.00  0.00    +0.020 A 
ATOM     23  C   LIG    1        8.338   4.502   4.019  0.00  0.00    +0.060 A 
ATOM     24  N   LIG    1        7.004   4.218   3.805  0.00  0.00    -0.540 N 
BRANCH  24  25
ATOM     25  C   LIG    1        6.327   2.954   4.104  0.00  0.00    +0.640 C 
ATOM     26  F   LIG    1        5.030   3.215   4.557  0.00  0.00    -0.170 F 
ATOM     27  F   LIG    1        7.037   2.267   5.095  0.00  0.00    -0.180 F 
ENDBRANCH  24  25
ENDBRANCH  15  16
ENDBRANCH   2  15
TORSDOF 5
