REMARK  Name = ZINCvU0000000JsS.0
REMARK                            x       y       z     vdW  Elec       q    Type
REMARK                         _______ _______ _______ _____ _____    ______ ____
ROOT
ATOM      1  C   LIG    1       -0.591   4.268  -0.830  0.00  0.00    +0.140 A 
ATOM      2  N   LIG    1       -0.170   5.054  -1.793  0.00  0.00    -0.280 NA
ATOM      3  N   LIG    1       -0.334   4.485  -2.933  0.00  0.00    -0.270 NA
ATOM      4  C   LIG    1       -0.867   3.296  -2.768  0.00  0.00    +0.280 A 
ATOM      5  N   LIG    1       -1.045   3.118  -1.415  0.00  0.00    -0.440 N 
ENDROOT
BRANCH   4   6
ATOM      6  C   LIG    1       -1.209   2.332  -3.833  0.00  0.00    -0.110 A 
ATOM      7  C   LIG    1       -1.646   1.057  -3.664  0.00  0.00    +0.260 A 
ATOM      8  N   LIG    1       -1.861   0.479  -4.881  0.00  0.00    -0.580 N 
ATOM      9  H   LIG    1       -2.178  -0.428  -5.016  0.00  0.00    +0.420 HD
ATOM     10  C   LIG    1       -1.558   1.367  -5.891  0.00  0.00    +0.090 A 
ATOM     11  C   LIG    1       -1.597   1.281  -7.279  0.00  0.00    -0.010 A 
ATOM     12  C   LIG    1       -1.224   2.363  -8.045  0.00  0.00    +0.040 A 
ATOM     13  C   LIG    1       -0.809   3.544  -7.447  0.00  0.00    -0.010 A 
ATOM     14  C   LIG    1       -0.763   3.650  -6.074  0.00  0.00    +0.070 A 
ATOM     15  C   LIG    1       -1.137   2.563  -5.286  0.00  0.00    -0.070 A 
ENDBRANCH   4   6
BRANCH   5  16
ATOM     16  C   LIG    1       -1.609   1.944  -0.743  0.00  0.00    +0.190 C 
ATOM     17  C   LIG    1       -0.669   1.112   0.131  0.00  0.00    +0.060 C 
ATOM     18  C   LIG    1       -1.734   1.996   0.781  0.00  0.00    +0.080 C 
ENDBRANCH   5  16
BRANCH   1  19
ATOM     19  S   LIG    1       -0.573   4.625   0.895  0.00  0.00    +0.070 S 
BRANCH  19  20
ATOM     20  C   LIG    1        0.150   6.284   0.865  0.00  0.00    +0.080 C 
BRANCH  20  21
ATOM     21  C   LIG    1        0.266   6.808   2.273  0.00  0.00    +0.450 C 
ATOM     22  O   LIG    1       -0.104   6.126   3.206  0.00  0.00    -0.460 OA
BRANCH  21  26
ATOM     23  N   LIG    1        1.542   9.971   3.521  0.00  0.00    -0.430 N 
ATOM     24  C   LIG    1        1.736  10.173   2.185  0.00  0.00    +0.010 A 
ATOM     25  C   LIG    1        1.318   9.089   1.510  0.00  0.00    +0.000 A 
ATOM     26  C   LIG    1        0.826   8.139   2.516  0.00  0.00    -0.270 A 
ATOM     27  C   LIG    1        2.325  11.415   1.566  0.00  0.00    +0.120 C 
ATOM     28  C   LIG    1        0.993   8.762   3.738  0.00  0.00    +0.120 A 
ATOM     29  C   LIG    1        0.628   8.186   5.082  0.00  0.00    +0.150 C 
BRANCH  23  30
ATOM     30  C   LIG    1        1.880  10.936   4.570  0.00  0.00    +0.320 C 
BRANCH  30  32
ATOM     31  C   LIG    1        0.212  11.947   6.039  0.00  0.00    +0.050 C 
ATOM     32  C   LIG    1        0.696  11.832   4.827  0.00  0.00    -0.060 C 
ENDBRANCH  30  32
ENDBRANCH  23  30
ENDBRANCH  21  26
ENDBRANCH  20  21
ENDBRANCH  19  20
ENDBRANCH   1  19
TORSDOF 8
