REMARK  Name = ZINCrD00000lchpH.1
REMARK                            x       y       z     vdW  Elec       q    Type
REMARK                         _______ _______ _______ _____ _____    ______ ____
ROOT
ATOM      1  O   LIG    1       -1.402   6.084   0.143  0.00  0.00    -0.500 OA
ATOM      2  C   LIG    1       -2.448   5.470   0.151  0.00  0.00    +0.530 C 
ATOM      3  N   LIG    1       -2.441   4.127   0.044  0.00  0.00    -0.660 N 
ATOM      4  H   LIG    1       -3.279   3.642  -0.028  0.00  0.00    +0.420 HD
ENDROOT
BRANCH   3   5
ATOM      5  C   LIG    1       -1.226   3.430   0.035  0.00  0.00    +0.150 A 
ATOM      6  C   LIG    1       -1.097   2.268  -0.713  0.00  0.00    +0.010 A 
ATOM      7  C   LIG    1        0.101   1.578  -0.724  0.00  0.00    +0.040 A 
ATOM      8  C   LIG    1        1.173   2.049   0.015  0.00  0.00    +0.050 A 
ATOM      9  O   LIG    1        2.361   1.375   0.011  0.00  0.00    -0.320 OA
ATOM     10  C   LIG    1        3.452   2.035  -0.633  0.00  0.00    +0.230 C 
ATOM     11  C   LIG    1        4.135   3.004   0.320  0.00  0.00    -0.010 C 
ATOM     12  C   LIG    1        3.223   4.148   0.733  0.00  0.00    +0.230 C 
ATOM     13  O   LIG    1        2.112   3.663   1.490  0.00  0.00    -0.320 OA
ATOM     14  C   LIG    1        1.048   3.211   0.764  0.00  0.00    +0.090 A 
ATOM     15  C   LIG    1       -0.151   3.901   0.781  0.00  0.00    +0.030 A 
ENDBRANCH   3   5
BRANCH   2  16
ATOM     16  C   LIG    1       -3.755   6.210   0.279  0.00  0.00    +0.120 C 
BRANCH  16  17
ATOM     17  S   LIG    1       -3.433   7.986   0.403  0.00  0.00    +0.100 S 
BRANCH  17  18
ATOM     18  C   LIG    1       -5.084   8.587   0.539  0.00  0.00    +0.250 A 
ATOM     19  N   LIG    1       -6.175   7.854   0.540  0.00  0.00    -0.530 NA
ATOM     20  C   LIG    1       -7.250   8.646   0.661  0.00  0.00    +0.280 A 
ATOM     21  N   LIG    1       -6.851   9.896   0.738  0.00  0.00    -0.290 NA
ATOM     22  N   LIG    1       -5.449   9.883   0.667  0.00  0.00    -0.460 N 
ATOM     23  H   LIG    1       -4.859  10.652   0.700  0.00  0.00    +0.450 HD
BRANCH  20  24
ATOM     24  C   LIG    1       -8.661   8.187   0.700  0.00  0.00    -0.020 A 
ATOM     25  C   LIG    1       -8.957   6.829   0.601  0.00  0.00    +0.050 A 
ATOM     26  C   LIG    1      -10.270   6.407   0.644  0.00  0.00    +0.010 A 
ATOM     27  C   LIG    1      -11.292   7.330   0.772  0.00  0.00    +0.030 A 
ATOM     28  C   LIG    1      -11.004   8.680   0.865  0.00  0.00    +0.010 A 
ATOM     29  C   LIG    1       -9.694   9.113   0.829  0.00  0.00    +0.050 A 
ENDBRANCH  20  24
ENDBRANCH  17  18
ENDBRANCH  16  17
ENDBRANCH   2  16
TORSDOF 5
