REMARK  Name = ZINCrD00000lchpH.0
REMARK                            x       y       z     vdW  Elec       q    Type
REMARK                         _______ _______ _______ _____ _____    ______ ____
ROOT
ATOM      1  O   LIG    1       -0.028   0.001   0.321  0.00  0.00    -0.490 OA
ATOM      2  C   LIG    1       -0.027   1.205   0.174  0.00  0.00    +0.540 C 
ATOM      3  N   LIG    1       -1.191   1.867   0.018  0.00  0.00    -0.670 N 
ATOM      4  H   LIG    1       -1.196   2.836  -0.023  0.00  0.00    +0.420 HD
ENDROOT
BRANCH   3   5
ATOM      5  C   LIG    1       -2.393   1.154  -0.086  0.00  0.00    +0.150 A 
ATOM      6  C   LIG    1       -3.565   1.695   0.424  0.00  0.00    +0.010 A 
ATOM      7  C   LIG    1       -4.754   0.995   0.323  0.00  0.00    +0.050 A 
ATOM      8  C   LIG    1       -4.771  -0.248  -0.287  0.00  0.00    +0.050 A 
ATOM      9  O   LIG    1       -5.939  -0.947  -0.390  0.00  0.00    -0.320 OA
ATOM     10  C   LIG    1       -6.462  -1.100  -1.711  0.00  0.00    +0.230 C 
ATOM     11  C   LIG    1       -5.820  -2.287  -2.412  0.00  0.00    -0.010 C 
ATOM     12  C   LIG    1       -4.330  -2.087  -2.641  0.00  0.00    +0.230 C 
ATOM     13  O   LIG    1       -3.631  -2.017  -1.397  0.00  0.00    -0.320 OA
ATOM     14  C   LIG    1       -3.600  -0.790  -0.798  0.00  0.00    +0.090 A 
ATOM     15  C   LIG    1       -2.411  -0.090  -0.705  0.00  0.00    +0.030 A 
ENDBRANCH   3   5
BRANCH   2  16
ATOM     16  C   LIG    1        1.277   1.961   0.161  0.00  0.00    +0.100 C 
BRANCH  16  17
ATOM     17  S   LIG    1        2.652   0.799   0.386  0.00  0.00    +0.120 S 
BRANCH  17  18
ATOM     18  C   LIG    1        4.068   1.847   0.343  0.00  0.00    +0.200 A 
ATOM     19  N   LIG    1        4.047   3.150   0.177  0.00  0.00    -0.320 NA
ATOM     20  N   LIG    1        5.381   3.588   0.209  0.00  0.00    -0.470 N 
ATOM     21  H   LIG    1        5.696   4.500   0.116  0.00  0.00    +0.440 HD
ATOM     22  C   LIG    1        6.140   2.484   0.390  0.00  0.00    +0.340 A 
ATOM     23  N   LIG    1        5.334   1.445   0.469  0.00  0.00    -0.500 NA
BRANCH  22  24
ATOM     24  C   LIG    1        7.617   2.449   0.483  0.00  0.00    -0.040 A 
ATOM     25  C   LIG    1        8.353   3.629   0.378  0.00  0.00    +0.020 A 
ATOM     26  C   LIG    1        9.729   3.590   0.471  0.00  0.00    +0.010 A 
ATOM     27  C   LIG    1       10.379   2.383   0.658  0.00  0.00    +0.040 A 
ATOM     28  C   LIG    1        9.655   1.209   0.758  0.00  0.00    +0.010 A 
ATOM     29  C   LIG    1        8.278   1.235   0.672  0.00  0.00    +0.080 A 
ENDBRANCH  22  24
ENDBRANCH  17  18
ENDBRANCH  16  17
ENDBRANCH   2  16
TORSDOF 5
