REMARK  Name = ZINCah0000002z2a.0
REMARK                            x       y       z     vdW  Elec       q    Type
REMARK                         _______ _______ _______ _____ _____    ______ ____
ROOT
ATOM      1  C   LIG    1       -3.571   2.445   0.032  0.00  0.00    -0.330 A 
ATOM      2  C   LIG    1       -2.640   3.449   0.033  0.00  0.00    +0.190 A 
ATOM      3  C   LIG    1       -1.348   2.996   0.030  0.00  0.00    -0.130 A 
ATOM      4  C   LIG    1       -1.220   1.642   0.017  0.00  0.00    +0.120 A 
ATOM      5  S   LIG    1       -2.751   0.890   0.021  0.00  0.00    +0.230 S 
ENDROOT
BRANCH   4   6
ATOM      6  N   LIG    1       -0.011   0.966   0.007  0.00  0.00    -0.830 N 
ATOM      7  H   LIG    1        0.822   1.462   0.002  0.00  0.00    +0.410 HD
ATOM      8  H   LIG    1        0.002  -0.004   0.002  0.00  0.00    +0.410 HD
ENDBRANCH   4   6
BRANCH   1   9
ATOM      9  C   LIG    1       -4.974   2.629   0.040  0.00  0.00    +0.550 C 
ATOM     10  O   LIG    1       -5.439   3.754   0.048  0.00  0.00    -0.510 OA
BRANCH   9  12
ATOM     11  C   LIG    1       -7.200   1.819   0.048  0.00  0.00    +0.260 C 
ATOM     12  O   LIG    1       -5.795   1.558   0.040  0.00  0.00    -0.360 OA
ENDBRANCH   9  12
ENDBRANCH   1   9
TORSDOF 3
