REMARK  Name = ZINCrD000000Bgzb.0
REMARK                            x       y       z     vdW  Elec       q    Type
REMARK                         _______ _______ _______ _____ _____    ______ ____
ROOT
ATOM      1  C   LIG    1        3.150   0.009  -0.027  0.00  0.00    +0.110 C 
ENDROOT
BRANCH   1   2
ATOM      2  C   LIG    1        2.600   1.412  -0.015  0.00  0.00    -0.160 A 
ATOM      3  C   LIG    1        3.312   2.549  -0.016  0.00  0.00    +0.240 A 
ATOM      4  N   LIG    1        2.470   3.628  -0.002  0.00  0.00    -0.590 N 
ATOM      5  H   LIG    1        2.753   4.556  -0.001  0.00  0.00    +0.420 HD
ATOM      6  C   LIG    1        1.161   3.199   0.008  0.00  0.00    +0.100 A 
ATOM      7  C   LIG    1       -0.062   3.860   0.022  0.00  0.00    -0.010 A 
ATOM      8  C   LIG    1       -1.233   3.133   0.030  0.00  0.00    +0.030 A 
ATOM      9  C   LIG    1       -1.204   1.745   0.017  0.00  0.00    -0.020 A 
ATOM     10  C   LIG    1       -0.013   1.076   0.008  0.00  0.00    +0.050 A 
ATOM     11  C   LIG    1        1.185   1.793   0.000  0.00  0.00    -0.100 A 
ENDBRANCH   1   2
BRANCH   1  12
ATOM     12  C   LIG    1        3.984  -0.193  -1.266  0.00  0.00    -0.080 A 
ATOM     13  C   LIG    1        5.088   0.607  -1.494  0.00  0.00    +0.010 A 
ATOM     14  C   LIG    1        5.855   0.418  -2.629  0.00  0.00    +0.000 A 
ATOM     15  C   LIG    1        5.512  -0.563  -3.540  0.00  0.00    +0.000 A 
ATOM     16  C   LIG    1        4.404  -1.359  -3.315  0.00  0.00    +0.010 A 
ATOM     17  C   LIG    1        3.640  -1.173  -2.178  0.00  0.00    +0.000 A 
ENDBRANCH   1  12
BRANCH   1  18
ATOM     18  C   LIG    1        4.020  -0.208   1.213  0.00  0.00    +0.290 C 
BRANCH  18  21
ATOM     19  O   LIG    1        5.580  -1.255   3.147  0.00  0.00    -0.520 OA
ATOM     20  C   LIG    1        5.239  -2.031   2.276  0.00  0.00    +0.560 C 
ATOM     21  N   LIG    1        4.457  -1.605   1.264  0.00  0.00    -0.720 N 
ATOM     22  H   LIG    1        4.185  -2.225   0.569  0.00  0.00    +0.400 HD
BRANCH  20  23
ATOM     23  C   LIG    1        5.681  -3.442   2.327  0.00  0.00    -0.100 C 
ATOM     24  C   LIG    1        5.295  -4.353   1.338  0.00  0.00    +0.080 C 
ATOM     25  C   LIG    1        5.733  -5.658   1.422  0.00  0.00    +0.260 C 
ATOM     26  N   LIG    1        6.498  -6.053   2.422  0.00  0.00    -0.110 NA
ATOM     27  C   LIG    1        6.882  -5.228   3.378  0.00  0.00    +0.260 C 
ATOM     28  O   LIG    1        6.921  -7.404   2.471  0.00  0.00    -0.530 OA
ATOM     29  C   LIG    1        6.493  -3.904   3.369  0.00  0.00    +0.120 C 
ENDBRANCH  20  23
ENDBRANCH  18  21
ENDBRANCH   1  18
TORSDOF 5
