REMARK  Name = ZINCrD00000hQ4x5.0
REMARK                            x       y       z     vdW  Elec       q    Type
REMARK                         _______ _______ _______ _____ _____    ______ ____
ROOT
ATOM      1  C   LIG    1        4.423   1.005  -0.002  0.00  0.00    +0.090 C 
ENDROOT
BRANCH   1   5
ATOM      2  C   LIG    1        1.867  -1.867   2.956  0.00  0.00    +0.520 C 
ATOM      3  N   LIG    1        3.080  -1.432   2.563  0.00  0.00    -0.600 N 
ATOM      4  C   LIG    1        3.246  -0.133   1.887  0.00  0.00    +0.260 C 
ATOM      5  C   LIG    1        4.113  -0.348   0.641  0.00  0.00    +0.160 C 
ATOM      6  O   LIG    1        5.335  -0.990   1.013  0.00  0.00    -0.360 OA
ATOM      7  C   LIG    1        5.166  -2.310   1.539  0.00  0.00    +0.240 C 
ATOM      8  C   LIG    1        4.286  -2.237   2.787  0.00  0.00    +0.110 C 
ATOM      9  C   LIG    1        4.008  -3.599   3.430  0.00  0.00    +0.050 C 
ATOM     10  C   LIG    1        4.176  -2.899   4.790  0.00  0.00    +0.010 C 
ATOM     11  C   LIG    1        5.049  -1.862   4.061  0.00  0.00    +0.020 C 
ATOM     12  O   LIG    1        1.745  -2.974   3.434  0.00  0.00    -0.520 OA
BRANCH   2  14
ATOM     13  C   LIG    1       -0.581  -1.703   3.321  0.00  0.00    +0.040 C 
ATOM     14  C   LIG    1        0.661  -0.976   2.802  0.00  0.00    +0.030 C 
ENDBRANCH   2  14
ENDBRANCH   1   5
BRANCH   1  15
ATOM     15  C   LIG    1        5.169   0.788  -1.294  0.00  0.00    +0.520 C 
ATOM     16  N   LIG    1        5.549   1.845  -2.039  0.00  0.00    -0.730 N 
ATOM     17  H   LIG    1        5.343   2.745  -1.743  0.00  0.00    +0.400 HD
ATOM     18  O   LIG    1        5.426  -0.338  -1.663  0.00  0.00    -0.520 OA
BRANCH  16  19
ATOM     19  C   LIG    1        6.273   1.633  -3.295  0.00  0.00    +0.290 C 
BRANCH  19  20
ATOM     20  C   LIG    1        7.748   1.513  -3.010  0.00  0.00    -0.130 A 
ATOM     21  C   LIG    1        8.282   2.093  -1.875  0.00  0.00    +0.050 A 
ATOM     22  C   LIG    1        9.634   1.977  -1.610  0.00  0.00    +0.000 A 
ATOM     23  C   LIG    1       10.455   1.292  -2.486  0.00  0.00    +0.040 A 
ATOM     24  C   LIG    1        9.924   0.717  -3.625  0.00  0.00    -0.010 A 
ATOM     25  C   LIG    1        8.569   0.826  -3.888  0.00  0.00    +0.110 A 
ATOM     26  F   LIG    1        8.049   0.264  -5.000  0.00  0.00    -0.140 F 
ENDBRANCH  19  20
BRANCH  19  27
ATOM     27  C   LIG    1        6.030   2.820  -4.229  0.00  0.00    +0.020 C 
ATOM     28  C   LIG    1        4.551   2.867  -4.618  0.00  0.00    +0.030 C 
ENDBRANCH  19  27
ENDBRANCH  16  19
ENDBRANCH   1  15
TORSDOF 6
