REMARK  Name = ZINCrH000004lqbo.0
REMARK                            x       y       z     vdW  Elec       q    Type
REMARK                         _______ _______ _______ _____ _____    ______ ____
ROOT
ATOM      1  C   LIG    1       -0.467   0.531   0.945  0.00  0.00    +0.230 C 
ATOM      2  C   LIG    1       -0.701   0.438   2.457  0.00  0.00    +0.220 C 
ATOM      3  O   LIG    1       -1.664   1.419   2.847  0.00  0.00    -0.370 OA
ATOM      4  C   LIG    1       -2.955   1.238   2.256  0.00  0.00    +0.220 C 
ATOM      5  C   LIG    1       -2.837   1.373   0.734  0.00  0.00    +0.250 C 
ATOM      6  N   LIG    1       -1.773   0.469   0.269  0.00  0.00    -0.620 N 
ATOM      7  C   LIG    1       -1.988  -0.392  -0.746  0.00  0.00    +0.710 C 
ATOM      8  N   LIG    1       -3.162  -0.372  -1.409  0.00  0.00    -0.680 N 
ATOM      9  H   LIG    1       -3.831   0.294  -1.190  0.00  0.00    +0.410 HD
ATOM     10  O   LIG    1       -1.124  -1.186  -1.063  0.00  0.00    -0.550 OA
ENDROOT
BRANCH   8  11
ATOM     11  C   LIG    1       -3.413  -1.312  -2.409  0.00  0.00    +0.240 A 
ATOM     12  C   LIG    1       -2.392  -1.749  -3.253  0.00  0.00    -0.050 A 
ATOM     13  C   LIG    1       -2.677  -2.681  -4.228  0.00  0.00    +0.330 A 
ATOM     14  N   LIG    1       -3.900  -3.154  -4.376  0.00  0.00    -0.530 NA
ATOM     15  C   LIG    1       -4.899  -2.762  -3.601  0.00  0.00    +0.340 A 
ATOM     16  C   LIG    1       -4.691  -1.831  -2.595  0.00  0.00    -0.070 A 
BRANCH  15  17
ATOM     17  O   LIG    1       -6.140  -3.277  -3.792  0.00  0.00    -0.240 OA
BRANCH  17  18
ATOM     18  C   LIG    1       -6.285  -4.266  -4.714  0.00  0.00    +0.110 A 
ATOM     19  C   LIG    1       -6.840  -3.984  -5.953  0.00  0.00    +0.040 A 
ATOM     20  C   LIG    1       -6.986  -4.991  -6.888  0.00  0.00    +0.040 A 
ATOM     21  C   LIG    1       -6.580  -6.278  -6.590  0.00  0.00    +0.040 A 
ATOM     22  C   LIG    1       -6.026  -6.563  -5.355  0.00  0.00    +0.040 A 
ATOM     23  C   LIG    1       -5.872  -5.559  -4.418  0.00  0.00    -0.040 A 
ATOM     24 CL   LIG    1       -5.171  -5.914  -2.870  0.00  0.00    -0.050 Cl
ENDBRANCH  17  18
ENDBRANCH  15  17
ENDBRANCH   8  11
BRANCH   1  25
ATOM     25  C   LIG    1        0.408  -0.636   0.485  0.00  0.00    +0.070 C 
BRANCH  25  26
ATOM     26  C   LIG    1        1.738  -0.605   1.241  0.00  0.00    +0.150 C 
BRANCH  26  28
ATOM     27  C   LIG    1        3.882  -1.670   1.361  0.00  0.00    +0.200 C 
ATOM     28  O   LIG    1        2.606  -1.614   0.721  0.00  0.00    -0.390 OA
ENDBRANCH  26  28
ENDBRANCH  25  26
ENDBRANCH   1  25
TORSDOF 6
