REMARK  Name = ZINCpk00000y6x0x.0
REMARK                            x       y       z     vdW  Elec       q    Type
REMARK                         _______ _______ _______ _____ _____    ______ ____
ROOT
ATOM      1  N   LIG    1        1.145   4.333   1.596  0.00  0.00    -1.100 NA
ATOM      2  H   LIG    1        0.379   4.800   1.963  0.00  0.00    +0.420 HD
ENDROOT
BRANCH   1   7
ATOM      3  C   LIG    1        1.867   3.800   3.901  0.00  0.00    +0.240 C 
ATOM      4  O   LIG    1        2.900   4.413   4.707  0.00  0.00    -0.360 OA
ATOM      5  C   LIG    1        3.227   5.649   4.036  0.00  0.00    +0.200 C 
ATOM      6  C   LIG    1        3.222   5.295   2.532  0.00  0.00    +0.010 C 
ATOM      7  C   LIG    1        2.308   4.053   2.442  0.00  0.00    +0.230 C 
BRANCH   3  10
ATOM      8  N   LIG    1        1.028   0.289   4.418  0.00  0.00    -0.370 N 
ATOM      9  C   LIG    1        0.679   1.552   4.096  0.00  0.00    +0.240 A 
ATOM     10  C   LIG    1        1.790   2.321   4.176  0.00  0.00    -0.240 A 
ATOM     11  C   LIG    1        2.856   1.497   4.555  0.00  0.00    +0.250 A 
ATOM     12  N   LIG    1        2.398   0.281   4.706  0.00  0.00    -0.290 NA
BRANCH   8  14
ATOM     13  C   LIG    1        0.689  -1.978   3.564  0.00  0.00    +0.050 C 
ATOM     14  C   LIG    1        0.131  -0.869   4.458  0.00  0.00    +0.320 C 
ENDBRANCH   8  14
ENDBRANCH   3  10
ENDBRANCH   1   7
BRANCH   1  15
ATOM     15  S   LIG    1        1.138   3.851   0.011  0.00  0.00    +2.700 S 
ATOM     16  O   LIG    1       -0.123   4.233  -0.519  0.00  0.00    -0.950 OA
ATOM     17  O   LIG    1        2.376   4.276  -0.543  0.00  0.00    -0.950 OA
BRANCH  15  18
ATOM     18  C   LIG    1        1.169   2.089   0.002  0.00  0.00    -0.670 A 
ATOM     19  C   LIG    1       -0.017   1.379   0.010  0.00  0.00    +0.160 A 
ATOM     20  C   LIG    1        0.002  -0.004   0.002  0.00  0.00    +0.030 A 
ATOM     21  C   LIG    1        1.210  -0.681  -0.013  0.00  0.00    +0.090 A 
ATOM     22  O   LIG    1        1.501  -2.014  -0.022  0.00  0.00    -0.300 OA
ATOM     23  C   LIG    1        2.873  -2.106  -0.448  0.00  0.00    +0.440 C 
ATOM     24  O   LIG    1        3.444  -0.850  -0.034  0.00  0.00    -0.300 OA
ATOM     25  C   LIG    1        2.405   0.035  -0.020  0.00  0.00    +0.020 A 
ATOM     26  C   LIG    1        2.379   1.420  -0.013  0.00  0.00    +0.150 A 
ENDBRANCH  15  18
ENDBRANCH   1  15
TORSDOF 5
