REMARK  Name = ZINCpk00001AZiT9.0
REMARK                            x       y       z     vdW  Elec       q    Type
REMARK                         _______ _______ _______ _____ _____    ______ ____
ROOT
ATOM      1  C   LIG    1        1.173  -2.637  -0.181  0.00  0.00    +0.140 C 
ATOM      2  C   LIG    1        0.336  -2.042  -1.316  0.00  0.00    +0.050 C 
ATOM      3  C   LIG    1        0.466  -0.517  -1.294  0.00  0.00    +0.180 C 
ATOM      4  N   LIG    1        0.002  -0.004   0.002  0.00  0.00    -0.520 NA
ATOM      5  C   LIG    1        0.822  -0.525   1.103  0.00  0.00    +0.190 C 
ATOM      6  C   LIG    1        0.702  -2.050   1.153  0.00  0.00    +0.010 C 
ENDROOT
BRANCH   1   7
ATOM      7  O   LIG    1        1.011  -4.057  -0.162  0.00  0.00    -0.370 OA
BRANCH   7   8
ATOM      8  C   LIG    1        2.153  -4.766   0.323  0.00  0.00    +0.180 C 
BRANCH   8   9
ATOM      9  C   LIG    1        1.867  -6.269   0.299  0.00  0.00    +0.180 C 
BRANCH   9  10
ATOM     10  O   LIG    1        1.700  -6.701  -1.053  0.00  0.00    -0.370 OA
BRANCH  10  12
ATOM     11  C   LIG    1        0.569  -8.332  -2.432  0.00  0.00    +0.040 C 
ATOM     12  C   LIG    1        1.428  -8.097  -1.187  0.00  0.00    +0.140 C 
ATOM     13  C   LIG    1        2.745  -8.863  -1.325  0.00  0.00    +0.000 C 
ENDBRANCH  10  12
ENDBRANCH   9  10
ENDBRANCH   8   9
ENDBRANCH   7   8
ENDBRANCH   1   7
BRANCH   4  14
ATOM     14  C   LIG    1       -0.018   1.465   0.010  0.00  0.00    +0.290 C 
BRANCH  14  15
ATOM     15  C   LIG    1       -0.723   1.951   1.250  0.00  0.00    +0.360 A 
ATOM     16  N   LIG    1       -1.194   1.075   2.088  0.00  0.00    -0.440 NA
ATOM     17  C   LIG    1       -1.832   1.463   3.221  0.00  0.00    +0.030 A 
ATOM     18  C   LIG    1       -1.994   2.829   3.481  0.00  0.00    -0.040 A 
ATOM     19  N   LIG    1       -2.665   2.933   4.666  0.00  0.00    -0.330 N 
ATOM     20  N   LIG    1       -2.916   1.636   5.134  0.00  0.00    -0.230 NA
ATOM     21  C   LIG    1       -3.053   4.179   5.331  0.00  0.00    +0.380 C 
ATOM     22  C   LIG    1       -1.477   3.761   2.551  0.00  0.00    +0.570 A 
ATOM     23  O   LIG    1       -1.595   4.960   2.737  0.00  0.00    -0.530 OA
ATOM     24  C   LIG    1       -2.429   0.768   4.289  0.00  0.00    +0.290 A 
ATOM     25  N   LIG    1       -0.851   3.289   1.450  0.00  0.00    -0.630 N 
ATOM     26  H   LIG    1       -0.488   3.910   0.799  0.00  0.00    +0.420 HD
ENDBRANCH  14  15
ENDBRANCH   4  14
TORSDOF 7
