REMARK  Name = ZINCwl00000004bP.1
REMARK                            x       y       z     vdW  Elec       q    Type
REMARK                         _______ _______ _______ _____ _____    ______ ____
ROOT
ATOM      1  N   LIG    1       10.683  -0.550   0.297  0.00  0.00    -0.690 N 
ATOM      2  H   LIG    1       10.431  -0.732   1.216  0.00  0.00    +0.410 HD
ATOM      3  C   LIG    1        9.880   0.197  -0.487  0.00  0.00    +0.710 C 
ATOM      4  N   LIG    1        8.774   0.766   0.030  0.00  0.00    -0.730 N 
ATOM      5  H   LIG    1        8.555   0.639   0.967  0.00  0.00    +0.400 HD
ATOM      6  O   LIG    1       10.154   0.356  -1.661  0.00  0.00    -0.560 OA
ENDROOT
BRANCH   4   7
ATOM      7  C   LIG    1        7.901   1.578  -0.821  0.00  0.00    +0.260 C 
ATOM      8  C   LIG    1        7.013   2.516   0.038  0.00  0.00    +0.050 C 
ATOM      9  C   LIG    1        5.793   2.728  -0.896  0.00  0.00    +0.260 C 
ATOM     10  N   LIG    1        5.592   1.423  -1.552  0.00  0.00    -0.610 N 
ATOM     11  C   LIG    1        4.432   0.977  -2.075  0.00  0.00    +0.580 C 
ATOM     12  O   LIG    1        4.358  -0.155  -2.511  0.00  0.00    -0.520 OA
ATOM     13  C   LIG    1        6.867   0.691  -1.546  0.00  0.00    +0.250 C 
BRANCH  11  14
ATOM     14  C   LIG    1        3.249   1.866  -2.119  0.00  0.00    -0.090 A 
ATOM     15  C   LIG    1        1.956   1.339  -2.195  0.00  0.00    +0.030 A 
ATOM     16  C   LIG    1        0.880   2.205  -2.233  0.00  0.00    +0.270 A 
ATOM     17  N   LIG    1        1.061   3.510  -2.198  0.00  0.00    -0.470 NA
ATOM     18  C   LIG    1        2.262   4.049  -2.126  0.00  0.00    +0.260 A 
ATOM     19  C   LIG    1        3.393   3.256  -2.084  0.00  0.00    -0.010 A 
ENDBRANCH  11  14
ENDBRANCH   4   7
BRANCH   1  24
ATOM     20  C   LIG    1       14.178  -1.675   0.094  0.00  0.00    -0.140 A 
ATOM     21  C   LIG    1       14.247  -2.078  -1.227  0.00  0.00    +0.020 A 
ATOM     22  C   LIG    1       13.135  -1.975  -2.043  0.00  0.00    +0.050 A 
ATOM     23  C   LIG    1       11.951  -1.474  -1.540  0.00  0.00    +0.060 A 
ATOM     24  C   LIG    1       11.880  -1.063  -0.215  0.00  0.00    +0.180 A 
ATOM     25  C   LIG    1       12.998  -1.168   0.602  0.00  0.00    +0.000 A 
BRANCH  20  26
ATOM     26  C   LIG    1       15.392  -1.789   0.980  0.00  0.00    +0.330 C 
BRANCH  26  31
ATOM     27  C   LIG    1       16.502  -3.167   2.610  0.00  0.00    +0.160 C 
ATOM     28  C   LIG    1       17.413  -4.338   2.195  0.00  0.00    +0.100 C 
ATOM     29  C   LIG    1       16.471  -5.227   1.340  0.00  0.00    +0.080 C 
ATOM     30  C   LIG    1       15.599  -4.163   0.627  0.00  0.00    +0.270 C 
ATOM     31  N   LIG    1       15.396  -3.103   1.637  0.00  0.00    -0.370 N 
ATOM     32  H   LIG    1       14.518  -3.249   2.111  0.00  0.00    +0.430 HD
BRANCH  27  36
ATOM     33  N   LIG    1       17.464  -1.179   3.722  0.00  0.00    -0.830 N 
ATOM     34  H   LIG    1       17.967  -0.349   3.706  0.00  0.00    +0.420 HD
ATOM     35  H   LIG    1       17.093  -1.504   4.557  0.00  0.00    +0.410 HD
ATOM     36  C   LIG    1       17.283  -1.879   2.585  0.00  0.00    +0.510 C 
ATOM     37  O   LIG    1       17.748  -1.471   1.541  0.00  0.00    -0.510 OA
ENDBRANCH  27  36
ENDBRANCH  26  31
ENDBRANCH  20  26
ENDBRANCH   1  24
TORSDOF 6
