REMARK  Name = ZINCwl00000004bP.2
REMARK                            x       y       z     vdW  Elec       q    Type
REMARK                         _______ _______ _______ _____ _____    ______ ____
ROOT
ATOM      1  N   LIG    1       10.418  -0.833   0.571  0.00  0.00    -0.690 N 
ATOM      2  H   LIG    1       10.610  -0.153   1.235  0.00  0.00    +0.410 HD
ATOM      3  C   LIG    1        9.140  -1.150   0.281  0.00  0.00    +0.710 C 
ATOM      4  N   LIG    1        8.130  -0.451   0.836  0.00  0.00    -0.730 N 
ATOM      5  H   LIG    1        8.323   0.280   1.444  0.00  0.00    +0.400 HD
ATOM      6  O   LIG    1        8.899  -2.067  -0.480  0.00  0.00    -0.560 OA
ENDROOT
BRANCH   4   7
ATOM      7  C   LIG    1        6.742  -0.796   0.522  0.00  0.00    +0.260 C 
ATOM      8  C   LIG    1        5.793   0.391   0.836  0.00  0.00    +0.050 C 
ATOM      9  C   LIG    1        4.453  -0.345   1.097  0.00  0.00    +0.280 C 
ATOM     10  N   LIG    1        4.835  -1.581   1.803  0.00  0.00    -0.610 N 
ATOM     11  C   LIG    1        4.039  -2.298   2.620  0.00  0.00    +0.580 C 
ATOM     12  O   LIG    1        4.490  -3.248   3.229  0.00  0.00    -0.520 OA
ATOM     13  C   LIG    1        6.228  -1.906   1.463  0.00  0.00    +0.250 C 
BRANCH  11  14
ATOM     14  C   LIG    1        2.612  -1.929   2.775  0.00  0.00    -0.090 A 
ATOM     15  C   LIG    1        1.859  -2.406   3.852  0.00  0.00    +0.030 A 
ATOM     16  C   LIG    1        0.533  -2.036   3.958  0.00  0.00    +0.270 A 
ATOM     17  N   LIG    1       -0.023  -1.244   3.063  0.00  0.00    -0.470 NA
ATOM     18  C   LIG    1        0.651  -0.772   2.033  0.00  0.00    +0.260 A 
ATOM     19  C   LIG    1        1.982  -1.091   1.849  0.00  0.00    -0.010 A 
ENDBRANCH  11  14
ENDBRANCH   4   7
BRANCH   1  24
ATOM     20  C   LIG    1       13.695  -2.370  -0.076  0.00  0.00    -0.140 A 
ATOM     21  C   LIG    1       13.540  -2.775  -1.389  0.00  0.00    +0.020 A 
ATOM     22  C   LIG    1       12.351  -2.537  -2.053  0.00  0.00    +0.050 A 
ATOM     23  C   LIG    1       11.314  -1.893  -1.406  0.00  0.00    +0.060 A 
ATOM     24  C   LIG    1       11.467  -1.485  -0.088  0.00  0.00    +0.180 A 
ATOM     25  C   LIG    1       12.664  -1.721   0.575  0.00  0.00    +0.000 A 
BRANCH  20  26
ATOM     26  C   LIG    1       14.993  -2.631   0.644  0.00  0.00    +0.320 C 
BRANCH  26  31
ATOM     27  C   LIG    1       17.125  -1.690   1.242  0.00  0.00    +0.170 C 
ATOM     28  C   LIG    1       18.316  -1.698   0.261  0.00  0.00    +0.100 C 
ATOM     29  C   LIG    1       17.758  -0.940  -0.973  0.00  0.00    +0.080 C 
ATOM     30  C   LIG    1       16.280  -1.406  -0.983  0.00  0.00    +0.270 C 
ATOM     31  N   LIG    1       15.902  -1.494   0.443  0.00  0.00    -0.380 N 
ATOM     32  H   LIG    1       15.445  -0.639   0.725  0.00  0.00    +0.430 HD
BRANCH  27  36
ATOM     33  N   LIG    1       18.334  -0.538   3.067  0.00  0.00    -0.820 N 
ATOM     34  H   LIG    1       18.433   0.188   3.703  0.00  0.00    +0.420 HD
ATOM     35  H   LIG    1       18.995  -1.247   3.034  0.00  0.00    +0.410 HD
ATOM     36  C   LIG    1       17.279  -0.561   2.230  0.00  0.00    +0.520 C 
ATOM     37  O   LIG    1       16.452   0.325   2.271  0.00  0.00    -0.530 OA
ENDBRANCH  27  36
ENDBRANCH  26  31
ENDBRANCH  20  26
ENDBRANCH   1  24
TORSDOF 6
