REMARK  Name = ZINCrH000004nO5P.0
REMARK                            x       y       z     vdW  Elec       q    Type
REMARK                         _______ _______ _______ _____ _____    ______ ____
ROOT
ATOM      1  C   LIG    1        6.782  -1.061   0.031  0.00  0.00    +0.550 C 
ATOM      2  N   LIG    1        6.475   0.248  -0.060  0.00  0.00    -0.670 N 
ATOM      3  H   LIG    1        7.182   0.907  -0.141  0.00  0.00    +0.410 HD
ATOM      4  O   LIG    1        5.897  -1.894   0.035  0.00  0.00    -0.500 OA
ENDROOT
BRANCH   1   8
ATOM      5  C   LIG    1       10.843  -2.276   0.303  0.00  0.00    -0.640 A 
ATOM      6  C   LIG    1        9.838  -3.227   0.309  0.00  0.00    +0.120 A 
ATOM      7  C   LIG    1        8.517  -2.839   0.221  0.00  0.00    +0.070 A 
ATOM      8  C   LIG    1        8.196  -1.484   0.126  0.00  0.00    -0.080 A 
ATOM      9  C   LIG    1        9.215  -0.530   0.116  0.00  0.00    +0.030 A 
ATOM     10  C   LIG    1       10.531  -0.931   0.209  0.00  0.00    +0.120 A 
BRANCH   5  12
ATOM     11  C   LIG    1       13.047  -3.011  -1.306  0.00  0.00    -0.250 C 
ATOM     12  S   LIG    1       12.528  -2.780   0.416  0.00  0.00    +2.500 S 
ATOM     13  O   LIG    1       12.476  -4.028   1.093  0.00  0.00    -0.930 OA
ATOM     14  O   LIG    1       13.190  -1.662   0.991  0.00  0.00    -0.930 OA
ENDBRANCH   5  12
ENDBRANCH   1   8
BRANCH   2  15
ATOM     15  C   LIG    1        5.138   0.656  -0.039  0.00  0.00    +0.150 A 
ATOM     16  C   LIG    1        4.210  -0.048   0.720  0.00  0.00    +0.020 A 
ATOM     17  C   LIG    1        2.891   0.352   0.743  0.00  0.00    +0.070 A 
ATOM     18  C   LIG    1        2.488   1.463   0.004  0.00  0.00    -0.020 A 
ATOM     19  C   LIG    1        3.419   2.164  -0.762  0.00  0.00    +0.050 A 
ATOM     20  C   LIG    1        4.738   1.764  -0.776  0.00  0.00    -0.010 A 
BRANCH  18  21
ATOM     21  C   LIG    1        1.069   1.895   0.026  0.00  0.00    +0.090 A 
ATOM     22  C   LIG    1        0.548   2.952  -0.643  0.00  0.00    +0.160 A 
ATOM     23  N   LIG    1       -0.807   3.006  -0.342  0.00  0.00    -0.420 N 
ATOM     24  C   LIG    1       -1.907   3.772  -0.657  0.00  0.00    +0.220 A 
ATOM     25  C   LIG    1       -3.075   3.453  -0.128  0.00  0.00    +0.010 A 
ATOM     26  S   LIG    1       -2.771   2.024   0.876  0.00  0.00    +0.160 S 
ATOM     27  C   LIG    1       -1.042   1.960   0.498  0.00  0.00    +0.160 A 
ATOM     28  N   LIG    1        0.073   1.306   0.717  0.00  0.00    -0.440 NA
ENDBRANCH  18  21
ENDBRANCH   2  15
TORSDOF 4
