REMARK  Name = ZINCrH000004vAnq.0
REMARK                            x       y       z     vdW  Elec       q    Type
REMARK                         _______ _______ _______ _____ _____    ______ ____
ROOT
ATOM      1  O   LIG    1        0.475  -2.782   0.568  0.00  0.00    -0.530 OA
ATOM      2  C   LIG    1        1.315  -2.130  -0.021  0.00  0.00    +0.580 C 
ATOM      3  N   LIG    1        2.296  -2.754  -0.704  0.00  0.00    -0.610 N 
ATOM      4  C   LIG    1        3.417  -2.091  -1.394  0.00  0.00    +0.260 C 
ATOM      5  C   LIG    1        3.864  -3.099  -2.483  0.00  0.00    +0.040 C 
ATOM      6  C   LIG    1        3.678  -4.453  -1.749  0.00  0.00    +0.240 C 
ATOM      7  C   LIG    1        2.429  -4.208  -0.877  0.00  0.00    +0.240 C 
ENDROOT
BRANCH   2   8
ATOM      8  C   LIG    1        1.261  -0.656   0.011  0.00  0.00    -0.220 A 
ATOM      9  C   LIG    1        0.038   0.007   0.194  0.00  0.00    +0.160 A 
ATOM     10  C   LIG    1        0.035   1.376   0.217  0.00  0.00    -0.060 A 
ATOM     11  C   LIG    1        1.236   2.065   0.060  0.00  0.00    +0.350 A 
ATOM     12  N   LIG    1        2.378   1.414  -0.112  0.00  0.00    -0.520 NA
ATOM     13  C   LIG    1        2.425   0.099  -0.141  0.00  0.00    +0.320 A 
BRANCH  11  14
ATOM     14  N   LIG    1        1.236   3.450   0.083  0.00  0.00    -0.490 N 
ATOM     15  C   LIG    1        0.230   3.996  -0.855  0.00  0.00    +0.200 C 
ATOM     16  C   LIG    1        0.376   5.478  -1.068  0.00  0.00    +0.040 C 
ATOM     17  C   LIG    1        1.255   5.710  -2.315  0.00  0.00    +0.010 C 
ATOM     18  C   LIG    1        2.674   5.531  -2.028  0.00  0.00    +0.000 C 
ATOM     19  C   LIG    1        2.996   4.100  -1.548  0.00  0.00    +0.000 C 
ATOM     20  C   LIG    1        2.604   3.983  -0.100  0.00  0.00    +0.230 C 
ENDBRANCH  11  14
ENDBRANCH   2   8
BRANCH   6  21
ATOM     21  N   LIG    1        3.444  -5.535  -2.708  0.00  0.00    -0.740 N 
ATOM     22  H   LIG    1        3.069  -5.338  -3.580  0.00  0.00    +0.400 HD
BRANCH  21  23
ATOM     23  C   LIG    1        3.763  -6.852  -2.367  0.00  0.00    +0.210 A 
ATOM     24  C   LIG    1        4.306  -7.136  -1.121  0.00  0.00    -0.080 A 
ATOM     25  C   LIG    1        4.615  -8.440  -0.785  0.00  0.00    +0.050 A 
ATOM     26  C   LIG    1        4.394  -9.460  -1.692  0.00  0.00    -0.060 A 
ATOM     27  C   LIG    1        3.858  -9.180  -2.936  0.00  0.00    +0.050 A 
ATOM     28  C   LIG    1        3.542  -7.879  -3.276  0.00  0.00    -0.070 A 
ENDBRANCH  21  23
ENDBRANCH   6  21
TORSDOF 4
