REMARK  Name = ZINCrg00000fSsDQ.0
REMARK                            x       y       z     vdW  Elec       q    Type
REMARK                         _______ _______ _______ _____ _____    ______ ____
ROOT
ATOM      1  C   LIG    1       -0.630   1.533  -1.076  0.00  0.00    +0.260 C 
ATOM      2  C   LIG    1       -2.086   1.469  -0.544  0.00  0.00    +0.050 C 
ATOM      3  C   LIG    1       -1.912   1.719   0.969  0.00  0.00    +0.260 C 
ATOM      4  N   LIG    1       -0.523   1.371   1.314  0.00  0.00    -0.620 N 
ATOM      5  C   LIG    1        0.034   1.470   2.537  0.00  0.00    +0.530 C 
ATOM      6  O   LIG    1        1.193   1.153   2.703  0.00  0.00    -0.510 OA
ATOM      7  C   LIG    1        0.157   0.895   0.096  0.00  0.00    +0.260 C 
ENDROOT
BRANCH   1  11
ATOM      8  N   LIG    1        0.700   0.225  -4.245  0.00  0.00    -0.650 N 
ATOM      9  H   LIG    1        0.095  -0.513  -4.420  0.00  0.00    +0.430 HD
ATOM     10  C   LIG    1        0.565   0.954  -3.119  0.00  0.00    +0.700 C 
ATOM     11  N   LIG    1       -0.484   0.740  -2.300  0.00  0.00    -0.720 N 
ATOM     12  H   LIG    1       -1.141   0.062  -2.520  0.00  0.00    +0.410 HD
ATOM     13  O   LIG    1        1.389   1.804  -2.843  0.00  0.00    -0.560 OA
BRANCH   8  19
ATOM     14  C   LIG    1        1.891   3.007  -4.707  0.00  0.00    +0.350 C 
ATOM     15  N   LIG    1        2.254   1.757  -5.380  0.00  0.00    -0.450 N 
ATOM     16  C   LIG    1        3.203   1.611  -6.347  0.00  0.00    +0.430 A 
ATOM     17  N   LIG    1        3.256   0.365  -6.716  0.00  0.00    -0.440 NA
ATOM     18  C   LIG    1        2.350  -0.353  -6.002  0.00  0.00    +0.020 A 
ATOM     19  C   LIG    1        1.704   0.529  -5.152  0.00  0.00    +0.310 A 
BRANCH  18  20
ATOM     20  C   LIG    1        2.106  -1.760  -6.110  0.00  0.00    +0.300 C 
ATOM     21  N   LIG    1        1.912  -2.876  -6.196  0.00  0.00    -0.410 NA
ENDBRANCH  18  20
ENDBRANCH   8  19
ENDBRANCH   1  11
BRANCH   5  22
ATOM     22  C   LIG    1       -0.783   1.975   3.699  0.00  0.00    +0.230 C 
BRANCH  22  23
ATOM     23  O   LIG    1        0.024   1.988   4.878  0.00  0.00    -0.290 OA
BRANCH  23  24
ATOM     24  C   LIG    1       -0.566   2.420   6.024  0.00  0.00    +0.130 A 
ATOM     25  C   LIG    1       -1.892   2.828   6.012  0.00  0.00    -0.080 A 
ATOM     26  C   LIG    1       -2.491   3.262   7.179  0.00  0.00    +0.050 A 
ATOM     27  C   LIG    1       -1.766   3.299   8.356  0.00  0.00    -0.030 A 
ATOM     28  C   LIG    1       -0.443   2.898   8.370  0.00  0.00    +0.050 A 
ATOM     29  C   LIG    1        0.158   2.459   7.206  0.00  0.00    -0.020 A 
ENDBRANCH  23  24
ENDBRANCH  22  23
ENDBRANCH   5  22
TORSDOF 6
