REMARK  Name = ZINCqH0000035rVk.0
REMARK                            x       y       z     vdW  Elec       q    Type
REMARK                         _______ _______ _______ _____ _____    ______ ____
ROOT
ATOM      1  C   LIG    1       -3.719  -1.002  -0.076  0.00  0.00    +0.140 A 
ATOM      2  C   LIG    1       -4.897  -0.270  -0.156  0.00  0.00    +0.000 A 
ATOM      3  C   LIG    1       -6.113  -0.921  -0.248  0.00  0.00    +0.040 A 
ATOM      4  C   LIG    1       -6.165  -2.300  -0.250  0.00  0.00    +0.050 A 
ATOM      5  C   LIG    1       -4.988  -3.042  -0.165  0.00  0.00    +0.000 A 
ATOM      6  C   LIG    1       -3.762  -2.388  -0.077  0.00  0.00    +0.060 A 
ENDROOT
BRANCH   5   7
ATOM      7  C   LIG    1       -5.041  -4.525  -0.167  0.00  0.00    +0.270 A 
ATOM      8  N   LIG    1       -4.004  -5.330  -0.091  0.00  0.00    -0.290 NA
ATOM      9  N   LIG    1       -4.506  -6.641  -0.127  0.00  0.00    -0.480 N 
ATOM     10  H   LIG    1       -3.990  -7.461  -0.088  0.00  0.00    +0.440 HD
ATOM     11  C   LIG    1       -5.844  -6.535  -0.223  0.00  0.00    +0.320 A 
ATOM     12  N   LIG    1       -6.155  -5.266  -0.241  0.00  0.00    -0.520 NA
BRANCH  11  13
ATOM     13  C   LIG    1       -6.817  -7.684  -0.292  0.00  0.00    +0.050 C 
ATOM     14  C   LIG    1       -6.256  -9.066  -0.633  0.00  0.00    +0.030 C 
ATOM     15  C   LIG    1       -7.086  -8.301  -1.666  0.00  0.00    +0.060 C 
ENDBRANCH  11  13
ENDBRANCH   5   7
BRANCH   1  17
ATOM     16  C   LIG    1       -1.399  -0.864  -0.581  0.00  0.00    +0.560 C 
ATOM     17  N   LIG    1       -2.490  -0.340   0.012  0.00  0.00    -0.670 N 
ATOM     18  H   LIG    1       -2.422   0.495   0.500  0.00  0.00    +0.410 HD
ATOM     19  O   LIG    1       -1.463  -1.951  -1.121  0.00  0.00    -0.510 OA
BRANCH  16  25
ATOM     20  C   LIG    1        1.007  -0.653  -1.194  0.00  0.00    -0.020 A 
ATOM     21  C   LIG    1        2.195   0.048  -1.181  0.00  0.00    +0.030 A 
ATOM     22  C   LIG    1        2.266   1.283  -0.561  0.00  0.00    +0.040 A 
ATOM     23  C   LIG    1        1.148   1.823   0.049  0.00  0.00    +0.000 A 
ATOM     24  C   LIG    1       -0.046   1.133   0.043  0.00  0.00    +0.050 A 
ATOM     25  C   LIG    1       -0.124  -0.116  -0.576  0.00  0.00    -0.140 A 
BRANCH  20  26
ATOM     26  C   LIG    1        0.931  -1.999  -1.869  0.00  0.00    +0.260 C 
BRANCH  26  28
ATOM     27  C   LIG    1        2.247  -3.593  -3.083  0.00  0.00    +0.200 C 
ATOM     28  O   LIG    1        2.209  -2.329  -2.417  0.00  0.00    -0.400 OA
ENDBRANCH  26  28
ENDBRANCH  20  26
ENDBRANCH  16  25
ENDBRANCH   1  17
TORSDOF 6
