REMARK  Name = ZINCpk000000orAZ.0
REMARK                            x       y       z     vdW  Elec       q    Type
REMARK                         _______ _______ _______ _____ _____    ______ ____
ROOT
ATOM      1  C   LIG    1        1.940  -2.199  -1.450  0.00  0.00    +0.500 C 
ATOM      2  N   LIG    1        2.375  -3.449  -1.708  0.00  0.00    -0.730 N 
ATOM      3  H   LIG    1        2.590  -4.048  -0.976  0.00  0.00    +0.400 HD
ATOM      4  O   LIG    1        1.671  -1.450  -2.365  0.00  0.00    -0.530 OA
ENDROOT
BRANCH   1   5
ATOM      5  C   LIG    1        1.788  -1.734  -0.025  0.00  0.00    +0.360 C 
BRANCH   5  10
ATOM      6  C   LIG    1       -0.018   1.512   0.010  0.00  0.00    +0.120 C 
ATOM      7  N   LIG    1        1.409   1.877  -0.001  0.00  0.00    -0.720 N 
ATOM      8  H   LIG    1        1.777   2.775  -0.000  0.00  0.00    +0.440 HD
ATOM      9  C   LIG    1        2.101   0.724  -0.014  0.00  0.00    +0.710 C 
ATOM     10  N   LIG    1        1.304  -0.351  -0.012  0.00  0.00    -0.560 N 
ATOM     11  O   LIG    1        3.315   0.665  -0.026  0.00  0.00    -0.540 OA
ATOM     12  C   LIG    1       -0.722   2.047  -1.238  0.00  0.00    +0.080 C 
ATOM     13  C   LIG    1        0.002  -0.004   0.002  0.00  0.00    +0.540 C 
ATOM     14  O   LIG    1       -0.954  -0.749   0.006  0.00  0.00    -0.460 OA
BRANCH   6  15
ATOM     15  C   LIG    1       -0.698   2.034   1.278  0.00  0.00    +0.060 C 
BRANCH  15  17
ATOM     16  C   LIG    1       -1.383   4.086   2.527  0.00  0.00    +0.030 C 
ATOM     17  C   LIG    1       -0.704   3.564   1.260  0.00  0.00    +0.010 C 
ENDBRANCH  15  17
ENDBRANCH   6  15
ENDBRANCH   5  10
ENDBRANCH   1   5
BRANCH   2  18
ATOM     18  C   LIG    1        2.523  -3.901  -3.093  0.00  0.00    +0.260 C 
BRANCH  18  19
ATOM     19  C   LIG    1        3.028  -5.346  -3.107  0.00  0.00    +0.070 C 
BRANCH  19  20
ATOM     20  C   LIG    1        3.181  -5.811  -4.532  0.00  0.00    -0.120 A 
ATOM     21  C   LIG    1        2.121  -6.425  -5.175  0.00  0.00    +0.060 A 
ATOM     22  C   LIG    1        2.257  -6.848  -6.483  0.00  0.00    -0.080 A 
ATOM     23  C   LIG    1        3.461  -6.666  -7.148  0.00  0.00    +0.130 A 
ATOM     24  C   LIG    1        4.524  -6.055  -6.499  0.00  0.00    -0.020 A 
ATOM     25  C   LIG    1        4.381  -5.629  -5.193  0.00  0.00    +0.060 A 
BRANCH  23  26
ATOM     26  O   LIG    1        3.598  -7.086  -8.433  0.00  0.00    -0.320 OA
ATOM     27  C   LIG    1        2.462  -7.706  -9.038  0.00  0.00    +0.250 C 
ENDBRANCH  23  26
ENDBRANCH  19  20
ENDBRANCH  18  19
ENDBRANCH   2  18
TORSDOF 8
