REMARK  Name = ZINCrD00000l3I81.0
REMARK                            x       y       z     vdW  Elec       q    Type
REMARK                         _______ _______ _______ _____ _____    ______ ____
ROOT
ATOM      1  N   LIG    1       -2.613   0.874   1.545  0.00  0.00    -0.600 N 
ATOM      2  C   LIG    1       -2.403  -0.366   2.031  0.00  0.00    +0.560 C 
ATOM      3  O   LIG    1       -1.888  -1.214   1.330  0.00  0.00    -0.520 OA
ENDROOT
BRANCH   2   4
ATOM      4  C   LIG    1       -2.800  -0.693   3.417  0.00  0.00    -0.140 A 
ATOM      5  C   LIG    1       -3.799   0.045   4.053  0.00  0.00    +0.040 A 
ATOM      6  C   LIG    1       -4.169  -0.269   5.345  0.00  0.00    +0.000 A 
ATOM      7  C   LIG    1       -3.544  -1.307   6.013  0.00  0.00    +0.050 A 
ATOM      8  C   LIG    1       -2.549  -2.039   5.390  0.00  0.00    -0.120 A 
ATOM      9  C   LIG    1       -2.174  -1.739   4.097  0.00  0.00    +0.100 A 
BRANCH   8  10
ATOM     10  C   LIG    1       -1.873  -3.168   6.126  0.00  0.00    +0.350 C 
BRANCH  10  11
ATOM     11  N   LIG    1       -0.705  -2.653   6.844  0.00  0.00    -0.620 N 
ATOM     12  C   LIG    1       -0.737  -2.143   8.220  0.00  0.00    +0.250 C 
ATOM     13  C   LIG    1        0.566  -1.331   8.390  0.00  0.00    +0.040 C 
ATOM     14  C   LIG    1        1.489  -1.994   7.341  0.00  0.00    +0.050 C 
ATOM     15  C   LIG    1        0.535  -2.591   6.330  0.00  0.00    +0.520 C 
ATOM     16  O   LIG    1        0.844  -2.958   5.216  0.00  0.00    -0.520 OA
ENDBRANCH  10  11
ENDBRANCH   8  10
ENDBRANCH   2   4
BRANCH   1  17
ATOM     17  C   LIG    1       -3.209   1.904   2.399  0.00  0.00    +0.420 C 
BRANCH  17  19
ATOM     18  C   LIG    1       -5.768   2.184   1.787  0.00  0.00    +0.060 C 
ATOM     19  C   LIG    1       -4.633   2.060   2.059  0.00  0.00    -0.230 C 
ENDBRANCH  17  19
ENDBRANCH   1  17
BRANCH   1  20
ATOM     20  C   LIG    1       -2.244   1.191   0.163  0.00  0.00    +0.350 C 
BRANCH  20  21
ATOM     21  C   LIG    1       -0.823   1.689   0.124  0.00  0.00    -0.120 A 
ATOM     22  C   LIG    1        0.218   0.796  -0.047  0.00  0.00    +0.040 A 
ATOM     23  C   LIG    1        1.522   1.254  -0.089  0.00  0.00    +0.000 A 
ATOM     24  C   LIG    1        1.785   2.604   0.047  0.00  0.00    -0.080 A 
ATOM     25  C   LIG    1        0.745   3.497   0.224  0.00  0.00    -0.010 A 
ATOM     26  C   LIG    1        3.207   3.103   0.002  0.00  0.00    +0.090 C 
ATOM     27  C   LIG    1       -0.559   3.039   0.265  0.00  0.00    +0.020 A 
ENDBRANCH  20  21
ENDBRANCH   1  20
TORSDOF 7
