REMARK  Name = ZINCrD000000B6DA.0
REMARK                            x       y       z     vdW  Elec       q    Type
REMARK                         _______ _______ _______ _____ _____    ______ ____
ROOT
ATOM      1  O   LIG    1        3.610   4.771  -3.671  0.00  0.00    -0.540 OA
ATOM      2  C   LIG    1        3.956   5.272  -2.619  0.00  0.00    +0.570 C 
ATOM      3  N   LIG    1        3.595   4.705  -1.451  0.00  0.00    -0.730 N 
ATOM      4  H   LIG    1        3.872   5.104  -0.611  0.00  0.00    +0.400 HD
ENDROOT
BRANCH   2   5
ATOM      5  C   LIG    1        4.771   6.502  -2.620  0.00  0.00    -0.260 A 
ATOM      6  C   LIG    1        5.152   7.102  -3.830  0.00  0.00    +0.180 A 
ATOM      7  C   LIG    1        5.907   8.243  -3.784  0.00  0.00    -0.110 A 
ATOM      8  C   LIG    1        6.273   8.771  -2.548  0.00  0.00    +0.430 A 
ATOM      9  N   LIG    1        5.900   8.184  -1.418  0.00  0.00    -0.550 NA
ATOM     10  C   LIG    1        5.169   7.090  -1.418  0.00  0.00    +0.350 A 
BRANCH   8  11
ATOM     11  N   LIG    1        7.038   9.924  -2.498  0.00  0.00    -0.710 N 
ATOM     12  H   LIG    1        7.296  10.298  -1.641  0.00  0.00    +0.410 HD
BRANCH  11  13
ATOM     13  C   LIG    1        7.456  10.580  -3.739  0.00  0.00    +0.290 C 
BRANCH  13  14
ATOM     14  C   LIG    1        8.284  11.823  -3.405  0.00  0.00    -0.060 C 
ATOM     15  C   LIG    1        7.718  13.182  -3.824  0.00  0.00    +0.020 C 
ATOM     16  C   LIG    1        8.914  12.587  -4.572  0.00  0.00    +0.030 C 
ENDBRANCH  13  14
ENDBRANCH  11  13
ENDBRANCH   8  11
ENDBRANCH   2   5
BRANCH   3  17
ATOM     17  C   LIG    1        2.786   3.483  -1.449  0.00  0.00    +0.280 C 
BRANCH  17  18
ATOM     18  C   LIG    1        2.519   3.050  -0.006  0.00  0.00    +0.150 C 
BRANCH  18  19
ATOM     19  C   LIG    1        1.687   1.794  -0.004  0.00  0.00    +0.050 A 
ATOM     20  N   LIG    1        2.164   0.598  -0.015  0.00  0.00    -0.450 NA
ATOM     21  C   LIG    1        1.292  -0.401  -0.012  0.00  0.00    +0.100 A 
ATOM     22  C   LIG    1        0.002  -0.004   0.002  0.00  0.00    -0.060 A 
ATOM     23  S   LIG    1       -0.022   1.758   0.012  0.00  0.00    +0.160 S 
BRANCH  21  24
ATOM     24  C   LIG    1        1.698  -1.826  -0.024  0.00  0.00    +0.020 A 
ATOM     25  C   LIG    1        3.045  -2.190   0.059  0.00  0.00    +0.000 A 
ATOM     26  C   LIG    1        3.378  -3.528   0.050  0.00  0.00    +0.260 A 
ATOM     27  N   LIG    1        2.447  -4.458  -0.046  0.00  0.00    -0.480 NA
ATOM     28  C   LIG    1        1.165  -4.157  -0.133  0.00  0.00    +0.260 A 
ATOM     29  C   LIG    1        0.744  -2.844  -0.125  0.00  0.00    -0.020 A 
ENDBRANCH  21  24
ENDBRANCH  18  19
ENDBRANCH  17  18
ENDBRANCH   3  17
TORSDOF 8
