REMARK  Name = ZINCkj000005kdpm.0
REMARK                            x       y       z     vdW  Elec       q    Type
REMARK                         _______ _______ _______ _____ _____    ______ ____
ROOT
ATOM      1  CA  LIG    1       -3.688   3.509   3.547  0.00  0.00    +0.240 C 
ENDROOT
BRANCH   1   7
ATOM      2  C   LIG    1       -1.600   2.008   7.840  0.00  0.00    +0.100 C 
ATOM      3  C   LIG    1       -2.528   2.931   7.092  0.00  0.00    -0.070 A 
ATOM      4  C   LIG    1       -3.231   3.905   7.775  0.00  0.00    +0.030 A 
ATOM      5  C   LIG    1       -4.083   4.751   7.090  0.00  0.00    -0.070 A 
ATOM      6  C   LIG    1       -4.231   4.623   5.721  0.00  0.00    +0.030 A 
ATOM      7  C   LIG    1       -3.527   3.649   5.038  0.00  0.00    -0.130 A 
ATOM      8  C   LIG    1       -4.850   5.813   7.835  0.00  0.00    +0.100 C 
ATOM      9  C   LIG    1       -2.679   2.799   5.725  0.00  0.00    +0.010 A 
ENDBRANCH   1   7
BRANCH   1  10
ATOM     10  N   LIG    1       -2.382   3.229   2.937  0.00  0.00    -0.500 N 
ATOM     11  H1  LIG    1       -1.725   3.947   3.205  0.00  0.00    +0.430 HD
ATOM     12  H2  LIG    1       -2.047   2.332   3.255  0.00  0.00    +0.440 HD
BRANCH  10  13
ATOM     13  C   LIG    1       -2.518   3.211   1.474  0.00  0.00    +0.270 C 
BRANCH  13  14
ATOM     14  C   LIG    1       -1.157   2.920   0.839  0.00  0.00    +0.150 C 
ATOM     15  C   LIG    1       -1.262   3.022  -0.695  0.00  0.00    +0.050 C 
ATOM     16  C   LIG    1       -0.819   1.627  -1.200  0.00  0.00    -0.020 C 
ATOM     17  C   LIG    1       -0.013   1.086   0.008  0.00  0.00    +0.240 C 
ATOM     18  O   LIG    1       -0.742   1.578   1.153  0.00  0.00    -0.380 OA
BRANCH  16  19
ATOM     19  C   LIG    1        0.070   1.751  -2.439  0.00  0.00    +0.190 C 
BRANCH  19  20
ATOM     20  O   LIG    1        0.475   0.449  -2.866  0.00  0.00    -0.570 OA
ATOM     21  H   LIG    1        1.042   0.451  -3.649  0.00  0.00    +0.390 HD
ENDBRANCH  19  20
ENDBRANCH  16  19
ENDBRANCH  13  14
ENDBRANCH  10  13
ENDBRANCH   1  10
BRANCH   1  22
ATOM     22  C   LIG    1       -4.650   2.357   3.244  0.00  0.00    +0.220 C 
BRANCH  22  23
ATOM     23  O   LIG    1       -4.182   1.167   3.880  0.00  0.00    -0.570 OA
ATOM     24  H   LIG    1       -4.745   0.394   3.731  0.00  0.00    +0.410 HD
ENDBRANCH  22  23
ENDBRANCH   1  22
TORSDOF 8
