REMARK  Name = ZINCrD0000072VvD.0
REMARK                            x       y       z     vdW  Elec       q    Type
REMARK                         _______ _______ _______ _____ _____    ______ ____
ROOT
ATOM      1  C   LIG    1       -1.588  -1.250  -1.440  0.00  0.00    +0.130 C 
ENDROOT
BRANCH   1   2
ATOM      2  C   LIG    1       -2.788  -2.161  -1.429  0.00  0.00    +0.470 C 
ATOM      3  O   LIG    1       -3.234  -2.561  -0.380  0.00  0.00    -0.480 OA
BRANCH   2   4
ATOM      4  O   LIG    1       -3.363  -2.528  -2.586  0.00  0.00    -0.290 OA
BRANCH   4   8
ATOM      5  C   LIG    1       -6.441  -5.270  -2.365  0.00  0.00    -0.120 A 
ATOM      6  C   LIG    1       -6.668  -3.933  -2.027  0.00  0.00    +0.110 A 
ATOM      7  C   LIG    1       -5.638  -3.022  -2.102  0.00  0.00    +0.010 A 
ATOM      8  C   LIG    1       -4.375  -3.430  -2.513  0.00  0.00    +0.120 A 
ATOM      9  C   LIG    1       -4.146  -4.757  -2.855  0.00  0.00    +0.010 A 
ATOM     10  C   LIG    1       -5.169  -5.676  -2.777  0.00  0.00    +0.100 A 
BRANCH   5  11
ATOM     11  C   LIG    1       -7.541  -6.250  -2.286  0.00  0.00    +0.510 C 
ATOM     12  O   LIG    1       -8.646  -5.895  -1.928  0.00  0.00    -0.500 OA
BRANCH  11  14
ATOM     13  C   LIG    1       -8.448  -8.447  -2.511  0.00  0.00    +0.290 C 
ATOM     14  O   LIG    1       -7.319  -7.539  -2.612  0.00  0.00    -0.350 OA
ENDBRANCH  11  14
ENDBRANCH   5  11
ENDBRANCH   4   8
ENDBRANCH   2   4
ENDBRANCH   1   2
BRANCH   1  15
ATOM     15  C   LIG    1       -1.133  -0.990  -0.002  0.00  0.00    +0.220 C 
BRANCH  15  16
ATOM     16  C   LIG    1        0.068  -0.079  -0.013  0.00  0.00    +0.180 A 
ATOM     17  N   LIG    1        0.051   1.230   0.032  0.00  0.00    -0.470 NA
ATOM     18  C   LIG    1        1.349   1.611  -0.000  0.00  0.00    +0.220 A 
ATOM     19  N   LIG    1        2.069   0.522  -0.061  0.00  0.00    -0.370 NA
ATOM     20  O   LIG    1        1.349  -0.454  -0.069  0.00  0.00    +0.090 OA
BRANCH  18  21
ATOM     21  C   LIG    1        1.859   3.005   0.028  0.00  0.00    -0.040 A 
ATOM     22  C   LIG    1        0.968   4.074   0.088  0.00  0.00    +0.070 A 
ATOM     23  C   LIG    1        1.448   5.368   0.119  0.00  0.00    +0.010 A 
ATOM     24  C   LIG    1        2.810   5.604   0.080  0.00  0.00    -0.060 A 
ATOM     25  C   LIG    1        3.699   4.546   0.016  0.00  0.00    +0.010 A 
ATOM     26  C   LIG    1        3.329   7.019   0.109  0.00  0.00    +0.100 C 
ATOM     27  C   LIG    1        3.230   3.248  -0.011  0.00  0.00    +0.050 A 
ENDBRANCH  18  21
ENDBRANCH  15  16
ENDBRANCH   1  15
TORSDOF 8
