REMARK  Name = ZINCnE000001DFA4.0
REMARK                            x       y       z     vdW  Elec       q    Type
REMARK                         _______ _______ _______ _____ _____    ______ ____
ROOT
ATOM      1  C   LIG    1       -4.119   1.895   0.034  0.00  0.00    +0.550 C 
ATOM      2  N   LIG    1       -5.283   1.216   0.036  0.00  0.00    -0.550 N 
ATOM      3  C   LIG    1       -5.398  -0.178   0.024  0.00  0.00    +0.140 A 
ATOM      4  C   LIG    1       -4.395  -1.149   0.018  0.00  0.00    -0.020 A 
ATOM      5  C   LIG    1       -4.724  -2.488   0.011  0.00  0.00    +0.050 A 
ATOM      6  C   LIG    1       -6.050  -2.879   0.015  0.00  0.00    -0.010 A 
ATOM      7  C   LIG    1       -7.049  -1.923   0.027  0.00  0.00    +0.040 A 
ATOM      8  C   LIG    1       -6.724  -0.581   0.033  0.00  0.00    -0.140 A 
ATOM      9  C   LIG    1       -7.601   0.651   0.045  0.00  0.00    +0.100 C 
ATOM     10  C   LIG    1       -6.614   1.829   0.046  0.00  0.00    +0.230 C 
ATOM     11  C   LIG    1       -6.798   2.677   1.307  0.00  0.00    +0.050 C 
ATOM     12  O   LIG    1       -4.125   3.108   0.040  0.00  0.00    -0.500 OA
ENDROOT
BRANCH   1  13
ATOM     13  C   LIG    1       -2.811   1.147   0.023  0.00  0.00    +0.100 C 
BRANCH  13  14
ATOM     14  S   LIG    1       -1.437   2.332   0.022  0.00  0.00    +0.030 S 
BRANCH  14  19
ATOM     15  N   LIG    1        3.583  -0.221  -0.034  0.00  0.00    -0.630 NA
ATOM     16  C   LIG    1        2.325   0.151  -0.019  0.00  0.00    +0.340 A 
ATOM     17  N   LIG    1        1.219  -0.648  -0.013  0.00  0.00    -0.510 NA
ATOM     18  N   LIG    1        0.002  -0.004   0.002  0.00  0.00    -0.250 NA
ATOM     19  C   LIG    1       -0.015   1.291   0.009  0.00  0.00    -0.080 A 
ATOM     20  S   LIG    1        1.681   1.804  -0.004  0.00  0.00    -0.100 S 
BRANCH  15  22
ATOM     21  C   LIG    1        4.734  -1.965  -1.304  0.00  0.00    +0.000 C 
ATOM     22  C   LIG    1        3.926  -1.645  -0.045  0.00  0.00    +0.150 C 
ATOM     23  C   LIG    1        4.759  -1.978   1.194  0.00  0.00    +0.000 C 
ENDBRANCH  15  22
ENDBRANCH  14  19
ENDBRANCH  13  14
ENDBRANCH   1  13
TORSDOF 4
