REMARK  Name = ZINCpk000005YwOI.0
REMARK                            x       y       z     vdW  Elec       q    Type
REMARK                         _______ _______ _______ _____ _____    ______ ____
ROOT
ATOM      1  C   LIG    1       -4.732   7.649   0.089  0.00  0.00    +0.250 C 
ATOM      2  C   LIG    1       -4.958   8.150  -1.352  0.00  0.00    +0.010 C 
ATOM      3  C   LIG    1       -6.402   8.710  -1.338  0.00  0.00    +0.020 C 
ATOM      4  C   LIG    1       -7.148   7.708  -0.423  0.00  0.00    +0.020 C 
ATOM      5  C   LIG    1       -6.125   7.369   0.680  0.00  0.00    -0.020 C 
ENDROOT
BRANCH   1   8
ATOM      6  O   LIG    1       -2.037   7.571   0.063  0.00  0.00    -0.530 OA
ATOM      7  C   LIG    1       -2.590   6.489   0.062  0.00  0.00    +0.590 C 
ATOM      8  N   LIG    1       -3.936   6.420   0.074  0.00  0.00    -0.730 N 
ATOM      9  H   LIG    1       -4.378   5.556   0.074  0.00  0.00    +0.400 HD
BRANCH   7  10
ATOM     10  C   LIG    1       -1.788   5.251   0.047  0.00  0.00    -0.170 A 
ATOM     11  C   LIG    1       -2.276   3.959   0.045  0.00  0.00    +0.160 A 
ATOM     12  N   LIG    1       -1.233   3.100   0.030  0.00  0.00    -0.340 N 
ATOM     13  C   LIG    1       -1.190   1.727   0.017  0.00  0.00    +0.200 A 
ATOM     14  C   LIG    1       -0.013   1.076   0.008  0.00  0.00    +0.020 A 
ATOM     15  C   LIG    1        1.201   1.790   0.000  0.00  0.00    +0.010 A 
ATOM     16  C   LIG    1        1.183   3.148   0.008  0.00  0.00    +0.080 A 
ATOM     17  C   LIG    1       -0.059   3.824   0.023  0.00  0.00    +0.030 A 
ATOM     18  C   LIG    1       -0.379   5.166   0.033  0.00  0.00    +0.030 A 
ENDBRANCH   7  10
ENDBRANCH   1   8
BRANCH   5  19
ATOM     19  C   LIG    1       -6.242   5.893   1.067  0.00  0.00    +0.270 C 
BRANCH  19  20
ATOM     20  N   LIG    1       -7.525   5.664   1.737  0.00  0.00    -0.720 N 
ATOM     21  H   LIG    1       -8.142   6.401   1.868  0.00  0.00    +0.400 HD
ATOM     22  C   LIG    1       -7.849   4.429   2.169  0.00  0.00    +0.530 C 
ATOM     23  O   LIG    1       -7.078   3.508   2.005  0.00  0.00    -0.530 OA
BRANCH  22  24
ATOM     24  C   LIG    1       -9.168   4.194   2.857  0.00  0.00    +0.010 C 
ATOM     25  C   LIG    1       -9.164   3.321   4.114  0.00  0.00    +0.060 C 
ATOM     26  C   LIG    1       -9.749   2.779   2.807  0.00  0.00    +0.100 C 
BRANCH  24  27
ATOM     27  O   LIG    1      -10.088   5.287   2.817  0.00  0.00    -0.520 OA
ATOM     28  H   LIG    1       -9.668   6.157   2.853  0.00  0.00    +0.380 HD
ENDBRANCH  24  27
ENDBRANCH  22  24
ENDBRANCH  19  20
ENDBRANCH   5  19
TORSDOF 6
