REMARK  Name = ZINCpk00000y6tJL.0
REMARK                            x       y       z     vdW  Elec       q    Type
REMARK                         _______ _______ _______ _____ _____    ______ ____
ROOT
ATOM      1  C   LIG    1       -0.778   1.606  -1.224  0.00  0.00    -0.030 C 
ATOM      2  C   LIG    1       -0.013   1.086   0.008  0.00  0.00    +0.220 C 
ATOM      3  O   LIG    1       -0.705   1.559   1.176  0.00  0.00    -0.360 OA
ATOM      4  C   LIG    1       -1.394   2.771   0.793  0.00  0.00    +0.140 C 
ATOM      5  C   LIG    1       -1.928   2.453  -0.626  0.00  0.00    +0.060 C 
ENDROOT
BRANCH   1   8
ATOM      6  C   LIG    1        0.952  -0.317  -2.381  0.00  0.00    +0.290 C 
ATOM      7  N   LIG    1       -0.495  -0.450  -2.570  0.00  0.00    -0.620 N 
ATOM      8  C   LIG    1       -1.331   0.456  -2.026  0.00  0.00    +0.520 C 
ATOM      9  O   LIG    1       -2.529   0.346  -2.182  0.00  0.00    -0.500 OA
BRANCH   7  10
ATOM     10  C   LIG    1       -1.033  -1.568  -3.349  0.00  0.00    +0.420 C 
BRANCH  10  11
ATOM     11  C   LIG    1       -1.135  -1.166  -4.798  0.00  0.00    +0.180 A 
ATOM     12  N   LIG    1       -2.137  -0.530  -5.342  0.00  0.00    -0.460 NA
ATOM     13  C   LIG    1       -1.884  -0.340  -6.646  0.00  0.00    +0.140 A 
ATOM     14  C   LIG    1       -0.684  -0.886  -6.922  0.00  0.00    +0.130 A 
ATOM     15  N   LIG    1       -0.209  -1.410  -5.750  0.00  0.00    -0.560 N 
ATOM     16  H   LIG    1        0.636  -1.871  -5.626  0.00  0.00    +0.420 HD
ENDBRANCH  10  11
ENDBRANCH   7  10
ENDBRANCH   1   8
BRANCH   4  17
ATOM     17  C   LIG    1       -2.550   3.063   1.751  0.00  0.00    +0.300 C 
BRANCH  17  18
ATOM     18  N   LIG    1       -2.015   3.476   3.051  0.00  0.00    -0.720 N 
ATOM     19  H   LIG    1       -1.056   3.526   3.187  0.00  0.00    +0.400 HD
ATOM     20  C   LIG    1       -2.855   3.786   4.058  0.00  0.00    +0.590 C 
ATOM     21  O   LIG    1       -4.059   3.724   3.888  0.00  0.00    -0.520 OA
BRANCH  20  22
ATOM     22  C   LIG    1       -2.321   4.198   5.356  0.00  0.00    -0.320 A 
ATOM     23  C   LIG    1       -3.068   4.542   6.450  0.00  0.00    +0.170 A 
ATOM     24  C   LIG    1       -2.304   4.886   7.543  0.00  0.00    -0.020 A 
ATOM     25  C   LIG    1       -0.982   4.835   7.349  0.00  0.00    -0.020 A 
ATOM     26  F   LIG    1       -4.419   4.541   6.458  0.00  0.00    -0.100 F 
ATOM     27  S   LIG    1       -0.615   4.339   5.759  0.00  0.00    +0.250 S 
ENDBRANCH  20  22
ENDBRANCH  17  18
ENDBRANCH   4  17
TORSDOF 6
