REMARK  Name = ZINCvU00000005TF.0
REMARK                            x       y       z     vdW  Elec       q    Type
REMARK                         _______ _______ _______ _____ _____    ______ ____
ROOT
ATOM      1  C   LIG    1       -2.507   5.102  -4.429  0.00  0.00    +0.290 A 
ATOM      2  N   LIG    1       -2.238   6.353  -4.196  0.00  0.00    -0.480 NA
ATOM      3  C   LIG    1       -2.151   7.028  -5.371  0.00  0.00    +0.050 A 
ATOM      4  C   LIG    1       -1.888   8.360  -5.700  0.00  0.00    +0.070 A 
ATOM      5  C   LIG    1       -1.873   8.748  -7.010  0.00  0.00    +0.000 A 
ATOM      6  C   LIG    1       -2.118   7.831  -8.022  0.00  0.00    +0.030 A 
ATOM      7  C   LIG    1       -2.379   6.511  -7.721  0.00  0.00    +0.010 A 
ATOM      8  C   LIG    1       -2.398   6.099  -6.396  0.00  0.00    +0.050 A 
ATOM      9  N   LIG    1       -2.620   4.889  -5.768  0.00  0.00    -0.480 N 
ENDROOT
BRANCH   1  12
ATOM     10  N   LIG    1       -1.980   3.706  -1.100  0.00  0.00    -0.610 N 
ATOM     11  C   LIG    1       -1.445   4.002  -2.434  0.00  0.00    +0.290 C 
ATOM     12  C   LIG    1       -2.675   4.043  -3.370  0.00  0.00    +0.090 C 
ATOM     13  C   LIG    1       -3.806   4.421  -2.385  0.00  0.00    +0.090 C 
ATOM     14  C   LIG    1       -3.303   3.941  -1.041  0.00  0.00    +0.520 C 
ATOM     15  O   LIG    1       -3.992   3.790  -0.055  0.00  0.00    -0.520 OA
BRANCH  10  16
ATOM     16  C   LIG    1       -1.176   3.222   0.025  0.00  0.00    +0.330 C 
BRANCH  16  18
ATOM     17  C   LIG    1       -0.013   1.076   0.008  0.00  0.00    +0.030 C 
ATOM     18  C   LIG    1       -1.156   1.715   0.017  0.00  0.00    -0.070 C 
ENDBRANCH  16  18
ENDBRANCH  10  16
ENDBRANCH   1  12
BRANCH   9  19
ATOM     19  C   LIG    1       -2.921   3.614  -6.423  0.00  0.00    +0.310 C 
BRANCH  19  20
ATOM     20  C   LIG    1       -4.436   3.466  -6.579  0.00  0.00    +0.020 C 
BRANCH  20  21
ATOM     21  C   LIG    1       -4.751   2.134  -7.262  0.00  0.00    +0.040 C 
BRANCH  21  22
ATOM     22  C   LIG    1       -6.266   1.986  -7.418  0.00  0.00    +0.180 C 
BRANCH  22  23
ATOM     23  O   LIG    1       -6.560   0.742  -8.056  0.00  0.00    -0.310 OA
BRANCH  23  24
ATOM     24  C   LIG    1       -7.871   0.454  -8.271  0.00  0.00    +0.120 A 
ATOM     25  C   LIG    1       -8.853   1.350  -7.876  0.00  0.00    -0.070 A 
ATOM     26  C   LIG    1      -10.185   1.054  -8.096  0.00  0.00    +0.030 A 
ATOM     27  C   LIG    1      -10.539  -0.133  -8.709  0.00  0.00    -0.120 A 
ATOM     28  C   LIG    1       -9.561  -1.028  -9.104  0.00  0.00    +0.050 A 
ATOM     29  C   LIG    1      -11.992  -0.453  -8.948  0.00  0.00    +0.100 C 
ATOM     30  C   LIG    1       -8.228  -0.735  -8.892  0.00  0.00    -0.110 A 
ATOM     31  C   LIG    1       -7.163  -1.708  -9.328  0.00  0.00    +0.100 C 
ENDBRANCH  23  24
ENDBRANCH  22  23
ENDBRANCH  21  22
ENDBRANCH  20  21
ENDBRANCH  19  20
ENDBRANCH   9  19
TORSDOF 9
