REMARK  Name = ZINCrD000000fG00.0
REMARK                            x       y       z     vdW  Elec       q    Type
REMARK                         _______ _______ _______ _____ _____    ______ ____
ROOT
ATOM      1  C   LIG    1        1.242   2.093   0.001  0.00  0.00    +0.260 C 
ENDROOT
BRANCH   1   4
ATOM      2  C   LIG    1       -1.293  -0.775   0.010  0.00  0.00    +0.080 C 
ATOM      3  C   LIG    1        0.002  -0.004   0.002  0.00  0.00    +0.520 C 
ATOM      4  N   LIG    1       -0.016   1.344   0.009  0.00  0.00    -0.720 N 
ATOM      5  H   LIG    1       -0.863   1.817   0.016  0.00  0.00    +0.410 HD
ATOM      6  O   LIG    1        1.060  -0.596  -0.011  0.00  0.00    -0.510 OA
ENDBRANCH   1   4
BRANCH   1   7
ATOM      7  C   LIG    1        2.026   1.747  -1.238  0.00  0.00    +0.490 C 
ATOM      8  N   LIG    1        2.995   2.574  -1.677  0.00  0.00    -0.630 N 
ATOM      9  H   LIG    1        3.189   3.393  -1.194  0.00  0.00    +0.420 HD
ATOM     10  O   LIG    1        1.784   0.723  -1.842  0.00  0.00    -0.470 OA
BRANCH   8  11
ATOM     11  C   LIG    1        3.722   2.253  -2.827  0.00  0.00    +0.000 A 
ATOM     12  C   LIG    1        4.709   2.985  -3.369  0.00  0.00    +0.040 A 
ATOM     13  N   LIG    1        5.237   2.462  -4.458  0.00  0.00    -0.450 NA
ATOM     14  C   LIG    1        4.756   1.337  -4.864  0.00  0.00    +0.160 A 
ATOM     15  S   LIG    1        3.511   0.811  -3.818  0.00  0.00    +0.240 S 
BRANCH  12  16
ATOM     16  C   LIG    1        5.173   4.293  -2.783  0.00  0.00    +0.020 C 
ATOM     17  C   LIG    1        6.161   5.124  -3.604  0.00  0.00    +0.050 C 
ATOM     18  C   LIG    1        6.637   4.392  -2.347  0.00  0.00    +0.040 C 
ENDBRANCH  12  16
ENDBRANCH   8  11
ENDBRANCH   1   7
BRANCH   1  19
ATOM     19  C   LIG    1        2.062   1.728   1.241  0.00  0.00    +0.120 C 
BRANCH  19  20
ATOM     20  C   LIG    1        1.333   2.186   2.478  0.00  0.00    -0.160 A 
ATOM     21  C   LIG    1        1.520   3.342   3.132  0.00  0.00    +0.230 A 
ATOM     22  N   LIG    1        0.677   3.411   4.209  0.00  0.00    -0.590 N 
ATOM     23  H   LIG    1        0.628   4.152   4.833  0.00  0.00    +0.420 HD
ATOM     24  C   LIG    1       -0.092   2.271   4.275  0.00  0.00    +0.120 A 
ATOM     25  C   LIG    1       -1.084   1.834   5.147  0.00  0.00    -0.040 A 
ATOM     26  C   LIG    1       -1.685   0.609   4.942  0.00  0.00    +0.120 A 
ATOM     27  C   LIG    1       -1.308  -0.194   3.872  0.00  0.00    -0.040 A 
ATOM     28  C   LIG    1       -0.336   0.217   3.004  0.00  0.00    +0.090 A 
ATOM     29  F   LIG    1       -2.647   0.186   5.790  0.00  0.00    -0.140 F 
ATOM     30  C   LIG    1        0.281   1.456   3.190  0.00  0.00    -0.100 A 
ENDBRANCH  19  20
ENDBRANCH   1  19
TORSDOF 6
