REMARK  Name = ZINCvU0000000F8s.0
REMARK                            x       y       z     vdW  Elec       q    Type
REMARK                         _______ _______ _______ _____ _____    ______ ____
ROOT
ATOM      1  O   LIG    1        3.064   2.092  -1.397  0.00  0.00    -0.490 OA
ATOM      2  C   LIG    1        2.114   1.489  -0.936  0.00  0.00    +0.570 C 
ATOM      3  C   LIG    1        2.220   0.044  -0.701  0.00  0.00    -0.170 A 
ATOM      4  C   LIG    1        3.390  -0.656  -0.994  0.00  0.00    +0.110 A 
ATOM      5  C   LIG    1        3.451  -2.013  -0.759  0.00  0.00    -0.020 A 
ATOM      6  C   LIG    1        2.361  -2.690  -0.233  0.00  0.00    +0.070 A 
ATOM      7  C   LIG    1        1.194  -2.017   0.065  0.00  0.00    -0.020 A 
ATOM      8  C   LIG    1        1.113  -0.649  -0.166  0.00  0.00    +0.050 A 
ATOM      9  C   LIG    1       -0.112   0.120   0.136  0.00  0.00    -0.310 C 
ATOM     10  C   LIG    1       -0.106   1.562  -0.140  0.00  0.00    +0.580 C 
ATOM     11  O   LIG    1       -1.101   2.224   0.092  0.00  0.00    -0.520 OA
ATOM     12  C   LIG    1       -1.226  -0.497   0.660  0.00  0.00    +0.440 C 
ATOM     13  N   LIG    1        0.984   2.157  -0.650  0.00  0.00    -0.510 N 
ENDROOT
BRANCH  13  14
ATOM     14  C   LIG    1        0.941   3.536  -0.896  0.00  0.00    +0.130 A 
ATOM     15  C   LIG    1        1.694   4.405  -0.118  0.00  0.00    +0.040 A 
ATOM     16  C   LIG    1        1.650   5.764  -0.363  0.00  0.00    +0.040 A 
ATOM     17  C   LIG    1        0.857   6.259  -1.382  0.00  0.00    +0.040 A 
ATOM     18  C   LIG    1        0.105   5.396  -2.159  0.00  0.00    -0.030 A 
ATOM     19 CL   LIG    1       -0.889   6.022  -3.438  0.00  0.00    -0.060 Cl
ATOM     20  C   LIG    1        0.149   4.035  -1.922  0.00  0.00    +0.040 A 
ENDBRANCH  13  14
BRANCH  12  21
ATOM     21  N   LIG    1       -2.280   0.249   1.086  0.00  0.00    -0.610 N 
ATOM     22  H   LIG    1       -2.215   1.217   1.100  0.00  0.00    +0.430 HD
BRANCH  21  23
ATOM     23  C   LIG    1       -3.456  -0.378   1.505  0.00  0.00    +0.140 A 
ATOM     24  C   LIG    1       -3.545  -1.761   1.484  0.00  0.00    -0.040 A 
ATOM     25  C   LIG    1       -4.709  -2.378   1.899  0.00  0.00    +0.050 A 
ATOM     26  C   LIG    1       -5.775  -1.615   2.329  0.00  0.00    -0.010 A 
ATOM     27  C   LIG    1       -5.693  -0.228   2.349  0.00  0.00    -0.040 A 
ATOM     28  C   LIG    1       -6.903   0.539   2.815  0.00  0.00    +0.080 C 
ATOM     29  C   LIG    1       -6.514   1.968   3.204  0.00  0.00    +0.020 C 
ATOM     30  C   LIG    1       -5.726   2.580   2.041  0.00  0.00    +0.020 C 
ATOM     31  C   LIG    1       -4.366   1.889   1.963  0.00  0.00    +0.070 C 
ATOM     32  C   LIG    1       -4.533   0.392   1.947  0.00  0.00    -0.100 A 
ENDBRANCH  21  23
ENDBRANCH  12  21
TORSDOF 3
