REMARK  Name = ZINCqH0000005s0F.0
REMARK                            x       y       z     vdW  Elec       q    Type
REMARK                         _______ _______ _______ _____ _____    ______ ____
ROOT
ATOM      1  N   LIG    1        0.024   6.248  -1.341  0.00  0.00    -0.960 NA
ENDROOT
BRANCH   1   2
ATOM      2  S   LIG    1        1.512   6.548  -2.005  0.00  0.00    +2.690 S 
ATOM      3  O   LIG    1        1.322   6.585  -3.413  0.00  0.00    -0.940 OA
ATOM      4  O   LIG    1        2.422   5.663  -1.366  0.00  0.00    -0.940 OA
BRANCH   2   5
ATOM      5  C   LIG    1        1.979   8.177  -1.524  0.00  0.00    -0.660 A 
ATOM      6  C   LIG    1        1.732   9.244  -2.366  0.00  0.00    +0.150 A 
ATOM      7  C   LIG    1        2.094  10.524  -1.986  0.00  0.00    -0.040 A 
ATOM      8  C   LIG    1        2.713  10.735  -0.767  0.00  0.00    +0.110 A 
ATOM      9  C   LIG    1        2.966   9.665   0.073  0.00  0.00    -0.040 A 
ATOM     10 CL   LIG    1        3.742   9.928   1.603  0.00  0.00    -0.040 Cl
ATOM     11 CL   LIG    1        1.776  11.866  -3.041  0.00  0.00    -0.040 Cl
ATOM     12  C   LIG    1        2.599   8.386  -0.306  0.00  0.00    +0.150 A 
ENDBRANCH   2   5
ENDBRANCH   1   2
BRANCH   1  13
ATOM     13  C   LIG    1       -1.188   6.703  -2.026  0.00  0.00    +0.220 C 
ATOM     14  C   LIG    1       -2.514   6.581  -1.271  0.00  0.00    +0.030 C 
ATOM     15  C   LIG    1       -2.208   5.639  -2.439  0.00  0.00    +0.020 C 
ENDBRANCH   1  13
BRANCH   1  16
ATOM     16  C   LIG    1       -0.078   5.528  -0.070  0.00  0.00    +0.350 C 
BRANCH  16  20
ATOM     17  C   LIG    1       -0.678   1.364  -0.832  0.00  0.00    -0.130 A 
ATOM     18  C   LIG    1       -1.771   2.194  -0.577  0.00  0.00    +0.040 A 
ATOM     19  C   LIG    1       -1.570   3.536  -0.327  0.00  0.00    +0.020 A 
ATOM     20  C   LIG    1       -0.290   4.061  -0.339  0.00  0.00    -0.090 A 
ATOM     21  C   LIG    1        0.797   3.244  -0.597  0.00  0.00    +0.040 A 
ATOM     22  C   LIG    1        0.610   1.900  -0.843  0.00  0.00    +0.080 A 
BRANCH  17  26
ATOM     23  C   LIG    1       -2.337  -2.018  -1.346  0.00  0.00    +0.290 C 
ATOM     24  N   LIG    1       -2.131  -0.591  -1.085  0.00  0.00    -0.730 N 
ATOM     25  H   LIG    1       -2.892  -0.016  -0.904  0.00  0.00    +0.400 HD
ATOM     26  C   LIG    1       -0.886  -0.076  -1.096  0.00  0.00    +0.560 C 
ATOM     27  O   LIG    1        0.067  -0.796  -1.323  0.00  0.00    -0.530 OA
ENDBRANCH  17  26
ENDBRANCH  16  20
ENDBRANCH   1  16
TORSDOF 6
