REMARK  Name = ZINCrH000004pQv4.0
REMARK                            x       y       z     vdW  Elec       q    Type
REMARK                         _______ _______ _______ _____ _____    ______ ____
ROOT
ATOM      1  C   LIG    1        4.364   0.532  -2.088  0.00  0.00    -0.150 A 
ATOM      2  C   LIG    1        4.584   1.906  -1.987  0.00  0.00    +0.110 A 
ATOM      3  C   LIG    1        5.872   2.401  -2.035  0.00  0.00    +0.000 A 
ATOM      4  C   LIG    1        6.942   1.538  -2.194  0.00  0.00    +0.160 A 
ATOM      5  C   LIG    1        6.729   0.175  -2.300  0.00  0.00    -0.680 A 
ATOM      6  C   LIG    1        5.448  -0.333  -2.249  0.00  0.00    +0.190 A 
ENDROOT
BRANCH   1  13
ATOM      7  C   LIG    1        2.247   2.567   1.975  0.00  0.00    +0.030 C 
ATOM      8  C   LIG    1        1.990   1.364   1.065  0.00  0.00    -0.030 C 
ATOM      9  C   LIG    1        0.495   1.034   1.063  0.00  0.00    +0.030 C 
ATOM     10  C   LIG    1        0.242  -0.189   0.179  0.00  0.00    -0.030 C 
ATOM     11  C   LIG    1        0.669   0.127  -1.258  0.00  0.00    +0.290 C 
ATOM     12  N   LIG    1        2.065   0.585  -1.246  0.00  0.00    -0.610 N 
ATOM     13  C   LIG    1        2.987  -0.005  -2.033  0.00  0.00    +0.560 C 
ATOM     14  O   LIG    1        2.688  -0.979  -2.696  0.00  0.00    -0.530 OA
ATOM     15  C   LIG    1       -1.248  -0.537   0.204  0.00  0.00    +0.030 C 
ATOM     16  C   LIG    1        2.437   1.698  -0.362  0.00  0.00    +0.270 C 
ENDBRANCH   1  13
BRANCH   5  17
ATOM     17  S   LIG    1        8.099  -0.915  -2.502  0.00  0.00    +2.690 S 
ATOM     18  O   LIG    1        7.671  -2.188  -2.036  0.00  0.00    -0.940 OA
ATOM     19  O   LIG    1        9.232  -0.236  -1.979  0.00  0.00    -0.940 OA
BRANCH  17  20
ATOM     20  N   LIG    1        8.361  -1.077  -4.130  0.00  0.00    -1.050 N 
ATOM     21  H   LIG    1        8.303  -1.951  -4.546  0.00  0.00    +0.430 HD
BRANCH  20  22
ATOM     22  C   LIG    1        8.665   0.047  -4.904  0.00  0.00    +0.120 A 
ATOM     23  C   LIG    1        9.442   1.068  -4.374  0.00  0.00    +0.020 A 
ATOM     24  C   LIG    1        9.741   2.177  -5.142  0.00  0.00    +0.040 A 
ATOM     25  C   LIG    1        9.268   2.272  -6.437  0.00  0.00    +0.040 A 
ATOM     26  C   LIG    1        8.492   1.258  -6.970  0.00  0.00    +0.010 A 
ATOM     27  C   LIG    1        8.194   0.143  -6.210  0.00  0.00    +0.080 A 
ATOM     28  F   LIG    1        7.441  -0.850  -6.732  0.00  0.00    -0.130 F 
ENDBRANCH  20  22
ENDBRANCH  17  20
ENDBRANCH   5  17
TORSDOF 4
