REMARK  Name = ZINCqH00000501gn.0
REMARK                            x       y       z     vdW  Elec       q    Type
REMARK                         _______ _______ _______ _____ _____    ______ ____
ROOT
ATOM      1  C   LIG    1       -0.725   1.573   1.282  0.00  0.00    +0.160 C 
ATOM      2  C   LIG    1       -0.181   1.080  -0.061  0.00  0.00    +0.080 C 
ENDROOT
BRANCH   1   3
ATOM      3  C   LIG    1       -0.639   3.076   1.337  0.00  0.00    +0.450 C 
ATOM      4  O   LIG    1       -1.633   3.748   1.153  0.00  0.00    -0.410 OA
BRANCH   3   7
ATOM      5  C   LIG    1        0.529   3.583   4.163  0.00  0.00    +0.150 C 
ATOM      6  C   LIG    1        1.156   3.950   2.843  0.00  0.00    +0.150 A 
ATOM      7  C   LIG    1        0.602   3.706   1.605  0.00  0.00    -0.270 A 
ATOM      8  C   LIG    1        1.564   4.226   0.614  0.00  0.00    -0.060 A 
ATOM      9  C   LIG    1        1.587   4.276  -0.777  0.00  0.00    +0.040 A 
ATOM     10  C   LIG    1        2.664   4.846  -1.421  0.00  0.00    +0.000 A 
ATOM     11  C   LIG    1        3.721   5.368  -0.689  0.00  0.00    +0.030 A 
ATOM     12  C   LIG    1        3.706   5.333   0.689  0.00  0.00    +0.000 A 
ATOM     13  C   LIG    1        2.630   4.757   1.357  0.00  0.00    +0.090 A 
ATOM     14  N   LIG    1        2.345   4.566   2.693  0.00  0.00    -0.570 N 
ATOM     15  H   LIG    1        2.920   4.839   3.425  0.00  0.00    +0.420 HD
ENDBRANCH   3   7
ENDBRANCH   1   3
BRANCH   1  16
ATOM     16  O   LIG    1       -2.110   1.161   1.423  0.00  0.00    -0.320 OA
BRANCH  16  17
ATOM     17  C   LIG    1       -2.338  -0.034   2.002  0.00  0.00    +0.560 C 
ATOM     18  O   LIG    1       -1.403  -0.715   2.379  0.00  0.00    -0.490 OA
BRANCH  17  19
ATOM     19  C   LIG    1       -3.718  -0.517   2.178  0.00  0.00    +0.010 A 
ATOM     20  N   LIG    1       -4.822   0.105   1.822  0.00  0.00    -0.170 NA
ATOM     21  N   LIG    1       -5.871  -0.577   2.111  0.00  0.00    -0.410 N 
ATOM     22  H   LIG    1       -6.779  -0.289   1.928  0.00  0.00    +0.450 HD
ATOM     23  C   LIG    1       -5.542  -1.764   2.711  0.00  0.00    +0.060 A 
ATOM     24  C   LIG    1       -6.267  -2.842   3.209  0.00  0.00    +0.010 A 
ATOM     25  C   LIG    1       -5.602  -3.912   3.766  0.00  0.00    +0.060 A 
ATOM     26  C   LIG    1       -4.215  -3.927   3.836  0.00  0.00    +0.000 A 
ATOM     27  C   LIG    1       -3.484  -2.878   3.353  0.00  0.00    +0.090 A 
ATOM     28  C   LIG    1       -4.136  -1.790   2.781  0.00  0.00    -0.100 A 
ENDBRANCH  17  19
ENDBRANCH  16  17
ENDBRANCH   1  16
TORSDOF 5
