REMARK  Name = ZINCrH000004lzTD.0
REMARK                            x       y       z     vdW  Elec       q    Type
REMARK                         _______ _______ _______ _____ _____    ______ ____
ROOT
ATOM      1  C   LIG    1        5.969   0.923  -0.070  0.00  0.00    +0.610 C 
ATOM      2  N   LIG    1        6.567   2.131  -0.066  0.00  0.00    -0.650 N 
ATOM      3  H   LIG    1        6.033   2.937  -0.134  0.00  0.00    +0.430 HD
ATOM      4  O   LIG    1        6.643  -0.090  -0.066  0.00  0.00    -0.490 OA
ENDROOT
BRANCH   1   6
ATOM      5  C   LIG    1        3.793  -0.328  -0.085  0.00  0.00    -0.070 A 
ATOM      6  C   LIG    1        4.503   0.830  -0.080  0.00  0.00    -0.010 A 
ATOM      7  O   LIG    1        3.658   1.882  -0.085  0.00  0.00    -0.180 OA
ATOM      8  C   LIG    1        2.376   1.468  -0.092  0.00  0.00    +0.080 A 
ATOM      9  C   LIG    1        1.159   2.139  -0.099  0.00  0.00    +0.030 A 
ATOM     10  C   LIG    1       -0.019   1.423  -0.107  0.00  0.00    +0.060 A 
ATOM     11  C   LIG    1       -0.006   0.035  -0.108  0.00  0.00    -0.010 A 
ATOM     12  C   LIG    1        1.178  -0.646  -0.101  0.00  0.00    +0.080 A 
ATOM     13  C   LIG    1        2.383   0.060  -0.093  0.00  0.00    -0.130 A 
BRANCH   5  14
ATOM     14  C   LIG    1        4.346  -1.730  -0.081  0.00  0.00    +0.260 C 
BRANCH  14  16
ATOM     15  C   LIG    1        5.053  -3.498  -1.537  0.00  0.00    +0.210 C 
ATOM     16  O   LIG    1        4.529  -2.173  -1.427  0.00  0.00    -0.380 OA
ENDBRANCH  14  16
ENDBRANCH   5  14
ENDBRANCH   1   6
BRANCH   2  17
ATOM     17  C   LIG    1        7.952   2.220   0.035  0.00  0.00    +0.220 A 
ATOM     18  C   LIG    1        8.757   1.266  -0.566  0.00  0.00    +0.030 A 
ATOM     19  C   LIG    1       10.137   1.356  -0.470  0.00  0.00    +0.100 A 
ATOM     20  C   LIG    1       10.726   2.405   0.243  0.00  0.00    +0.000 A 
ATOM     21  O   LIG    1       12.083   2.260   0.188  0.00  0.00    -0.300 OA
ATOM     22  C   LIG    1       12.327   1.353  -0.903  0.00  0.00    +0.440 C 
ATOM     23  C   LIG    1        9.937   3.358   0.851  0.00  0.00    +0.120 A 
ATOM     24  O   LIG    1       11.126   0.561  -0.968  0.00  0.00    -0.300 OA
ATOM     25  C   LIG    1        8.541   3.277   0.755  0.00  0.00    -0.200 A 
BRANCH  25  26
ATOM     26  C   LIG    1        7.699   4.287   1.399  0.00  0.00    +0.410 C 
ATOM     27  O   LIG    1        6.492   4.161   1.399  0.00  0.00    -0.460 OA
ATOM     28  C   LIG    1        8.331   5.484   2.061  0.00  0.00    +0.090 C 
ENDBRANCH  25  26
ENDBRANCH   2  17
TORSDOF 5
