REMARK  Name = ZINCpe000000Xhoe.0
REMARK                            x       y       z     vdW  Elec       q    Type
REMARK                         _______ _______ _______ _____ _____    ______ ____
ROOT
ATOM      1  N   LIG    1        1.586  -3.469  -2.398  0.00  0.00    -0.720 N 
ATOM      2  H   LIG    1        1.530  -4.257  -1.836  0.00  0.00    +0.410 HD
ATOM      3  C   LIG    1        1.494  -2.242  -1.848  0.00  0.00    +0.500 C 
ATOM      4  O   LIG    1        1.564  -1.256  -2.551  0.00  0.00    -0.520 OA
ENDROOT
BRANCH   1   6
ATOM      5  C   LIG    1        3.259  -3.510  -4.181  0.00  0.00    +0.060 C 
ATOM      6  C   LIG    1        1.770  -3.611  -3.844  0.00  0.00    +0.340 C 
BRANCH   6   7
ATOM      7  C   LIG    1        1.246  -4.953  -4.288  0.00  0.00    +0.180 A 
ATOM      8  N   LIG    1        1.455  -6.099  -3.700  0.00  0.00    -0.270 NA
ATOM      9  N   LIG    1        0.856  -7.034  -4.348  0.00  0.00    -0.280 NA
ATOM     10  C   LIG    1        0.237  -6.525  -5.380  0.00  0.00    +0.160 A 
ATOM     11  C   LIG    1       -0.635  -6.891  -6.562  0.00  0.00    +0.180 C 
ATOM     12  C   LIG    1       -1.252  -5.543  -7.010  0.00  0.00    +0.070 C 
ATOM     13  C   LIG    1       -0.201  -4.533  -6.501  0.00  0.00    +0.300 C 
ATOM     14  N   LIG    1        0.463  -5.192  -5.369  0.00  0.00    -0.490 N 
ENDBRANCH   6   7
ENDBRANCH   1   6
BRANCH   3  15
ATOM     15  C   LIG    1        1.304  -2.095  -0.360  0.00  0.00    +0.340 C 
BRANCH  15  16
ATOM     16  N   LIG    1        1.234  -0.673  -0.015  0.00  0.00    -0.530 N 
ATOM     17  C   LIG    1        2.356   0.014   0.292  0.00  0.00    +0.490 C 
ATOM     18  C   LIG    1        2.260   1.467   0.681  0.00  0.00    +0.310 C 
ATOM     19  O   LIG    1        1.158   2.075   0.002  0.00  0.00    -0.300 OA
ATOM     20  C   LIG    1       -0.017   1.390   0.010  0.00  0.00    +0.080 A 
ATOM     21  C   LIG    1       -1.226   2.063   0.031  0.00  0.00    +0.030 A 
ATOM     22  C   LIG    1       -2.411   1.349   0.036  0.00  0.00    +0.030 A 
ATOM     23  C   LIG    1       -2.392  -0.033   0.029  0.00  0.00    +0.020 A 
ATOM     24  C   LIG    1       -1.188  -0.712   0.012  0.00  0.00    +0.000 A 
ATOM     25  O   LIG    1        3.437  -0.536   0.254  0.00  0.00    -0.500 OA
ATOM     26  C   LIG    1        0.002  -0.004   0.002  0.00  0.00    +0.100 A 
ENDBRANCH  15  16
ENDBRANCH   3  15
TORSDOF 4
