REMARK  Name = ZINCkj000005jfaq.0
REMARK                            x       y       z     vdW  Elec       q    Type
REMARK                         _______ _______ _______ _____ _____    ______ ____
ROOT
ATOM      1  C   LIG    1        0.761   2.453  -2.360  0.00  0.00    +0.050 C 
ATOM      2  C   LIG    1       -0.384   1.468  -2.111  0.00  0.00    -0.050 C 
ATOM      3  C   LIG    1       -1.248   1.362  -3.369  0.00  0.00    +0.040 C 
ATOM      4  C   LIG    1       -2.374   0.353  -3.133  0.00  0.00    +0.020 C 
ATOM      5  C   LIG    1       -3.257   0.840  -1.980  0.00  0.00    +0.290 C 
ATOM      6  N   LIG    1       -2.409   1.083  -0.805  0.00  0.00    -0.620 N 
ATOM      7  C   LIG    1       -2.693   0.506   0.379  0.00  0.00    +0.600 C 
ATOM      8  O   LIG    1       -1.836   0.425   1.238  0.00  0.00    -0.590 OA
ATOM      9  C   LIG    1       -1.244   1.968  -0.946  0.00  0.00    +0.240 C 
ENDROOT
BRANCH   7  10
ATOM     10  C   LIG    1       -4.045  -0.027   0.634  0.00  0.00    -0.290 A 
ATOM     11  C   LIG    1       -4.323  -0.728   1.817  0.00  0.00    +0.190 A 
ATOM     12  C   LIG    1       -5.591  -1.204   2.012  0.00  0.00    -0.100 A 
ATOM     13  C   LIG    1       -6.562  -0.981   1.038  0.00  0.00    +0.440 A 
ATOM     14  N   LIG    1       -6.274  -0.315  -0.072  0.00  0.00    -0.540 NA
ATOM     15  C   LIG    1       -5.069   0.165  -0.296  0.00  0.00    +0.370 A 
BRANCH  13  16
ATOM     16  N   LIG    1       -7.846  -1.462   1.232  0.00  0.00    -0.590 N 
ATOM     17  C   LIG    1       -8.846  -1.329   0.169  0.00  0.00    +0.310 C 
ATOM     18  C   LIG    1       -8.205  -2.103   2.499  0.00  0.00    +0.310 C 
ENDBRANCH  13  16
ENDBRANCH   7  10
BRANCH   9  19
ATOM     19  C   LIG    1       -0.423   1.944   0.345  0.00  0.00    +0.280 C 
BRANCH  19  20
ATOM     20  N   LIG    1        0.204   0.625   0.502  0.00  0.00    -0.620 N 
ATOM     21  H   LIG    1       -0.464  -0.095   0.271  0.00  0.00    +0.430 HD
ATOM     22  H   LIG    1        0.508   0.508   1.457  0.00  0.00    +0.430 HD
ATOM     23  H   LIG    1        1.000   0.555  -0.114  0.00  0.00    +0.410 HD
ENDBRANCH  19  20
ENDBRANCH   9  19
TORSDOF 4
