REMARK  Name = ZINCkj000005faeJ.1
REMARK                            x       y       z     vdW  Elec       q    Type
REMARK                         _______ _______ _______ _____ _____    ______ ____
ROOT
ATOM      1  C   LIG    1        1.286   1.562  -0.002  0.00  0.00    +0.220 C 
ENDROOT
BRANCH   1   2
ATOM      2  O   LIG    1       -0.011   0.963   0.007  0.00  0.00    -0.540 OA
ATOM      3  H   LIG    1        0.002  -0.004   0.002  0.00  0.00    +0.390 HD
ENDBRANCH   1   2
BRANCH   1   4
ATOM      4  C   LIG    1        2.064   1.114   1.238  0.00  0.00    +0.160 C 
BRANCH   4   5
ATOM      5  O   LIG    1        1.422   1.619   2.410  0.00  0.00    -0.370 OA
BRANCH   5   6
ATOM      6  C   LIG    1        2.072   1.256   3.630  0.00  0.00    +0.200 C 
BRANCH   6   7
ATOM      7  C   LIG    1        1.303   1.848   4.813  0.00  0.00    +0.190 C 
BRANCH   7   8
ATOM      8  O   LIG    1        0.006   1.253   4.884  0.00  0.00    -0.380 OA
BRANCH   8  10
ATOM      9  C   LIG    1       -2.275   1.671   5.565  0.00  0.00    +0.040 C 
ATOM     10  C   LIG    1       -0.799   1.739   5.961  0.00  0.00    +0.140 C 
ATOM     11  C   LIG    1       -0.564   0.877   7.202  0.00  0.00    +0.010 C 
ENDBRANCH   8  10
ENDBRANCH   7   8
ENDBRANCH   6   7
ENDBRANCH   5   6
ENDBRANCH   4   5
ENDBRANCH   1   4
BRANCH   1  12
ATOM     12  C   LIG    1        2.040   1.127  -1.261  0.00  0.00    +0.240 C 
BRANCH  12  13
ATOM     13  N   LIG    1        1.357   1.660  -2.448  0.00  0.00    -0.380 N 
ATOM     14  C   LIG    1        1.431   3.127  -2.438  0.00  0.00    +0.330 C 
ATOM     15  H   LIG    1        0.391   1.371  -2.438  0.00  0.00    +0.430 HD
BRANCH  13  16
ATOM     16  C   LIG    1        2.010   1.145  -3.659  0.00  0.00    +0.320 C 
BRANCH  16  17
ATOM     17  C   LIG    1        1.237   1.591  -4.874  0.00  0.00    -0.110 A 
ATOM     18  C   LIG    1        0.212   0.812  -5.388  0.00  0.00    +0.000 A 
ATOM     19  C   LIG    1       -0.478   1.255  -6.501  0.00  0.00    +0.290 A 
ATOM     20  N   LIG    1       -0.164   2.399  -7.077  0.00  0.00    -0.460 NA
ATOM     21  C   LIG    1        0.808   3.163  -6.618  0.00  0.00    +0.280 A 
ATOM     22  C   LIG    1        1.538   2.787  -5.507  0.00  0.00    +0.000 A 
ENDBRANCH  16  17
ENDBRANCH  13  16
ENDBRANCH  12  13
ENDBRANCH   1  12
TORSDOF 11
