REMARK  Name = ZINCkj000005faeJ.0
REMARK                            x       y       z     vdW  Elec       q    Type
REMARK                         _______ _______ _______ _____ _____    ______ ____
ROOT
ATOM      1  C   LIG    1       -4.620   5.258  -2.588  0.00  0.00    +0.210 C 
ENDROOT
BRANCH   1   2
ATOM      2  O   LIG    1       -5.178   4.098  -3.209  0.00  0.00    -0.540 OA
ATOM      3  H   LIG    1       -5.897   3.690  -2.707  0.00  0.00    +0.390 HD
ENDBRANCH   1   2
BRANCH   1   4
ATOM      4  C   LIG    1       -5.709   6.319  -2.416  0.00  0.00    +0.160 C 
BRANCH   4   5
ATOM      5  O   LIG    1       -6.155   6.756  -3.701  0.00  0.00    -0.370 OA
BRANCH   5   6
ATOM      6  C   LIG    1       -7.178   7.752  -3.654  0.00  0.00    +0.200 C 
BRANCH   6   7
ATOM      7  C   LIG    1       -7.576   8.143  -5.078  0.00  0.00    +0.190 C 
BRANCH   7   8
ATOM      8  O   LIG    1       -8.172   7.021  -5.731  0.00  0.00    -0.380 OA
BRANCH   8  10
ATOM      9  C   LIG    1       -7.431   6.961  -8.031  0.00  0.00    +0.010 C 
ATOM     10  C   LIG    1       -8.582   7.280  -7.075  0.00  0.00    +0.140 C 
ATOM     11  C   LIG    1       -9.789   6.404  -7.419  0.00  0.00    +0.040 C 
ENDBRANCH   8  10
ENDBRANCH   7   8
ENDBRANCH   6   7
ENDBRANCH   5   6
ENDBRANCH   4   5
ENDBRANCH   1   4
BRANCH   1  12
ATOM     12  C   LIG    1       -4.055   4.880  -1.217  0.00  0.00    +0.240 C 
BRANCH  12  13
ATOM     13  N   LIG    1       -2.932   3.950  -1.389  0.00  0.00    -0.380 N 
ATOM     14  C   LIG    1       -2.489   3.468  -0.074  0.00  0.00    +0.330 C 
ATOM     15  H   LIG    1       -3.228   3.166  -1.953  0.00  0.00    +0.430 HD
BRANCH  13  16
ATOM     16  C   LIG    1       -1.821   4.641  -2.057  0.00  0.00    +0.320 C 
BRANCH  16  17
ATOM     17  C   LIG    1       -0.717   3.657  -2.345  0.00  0.00    -0.110 A 
ATOM     18  C   LIG    1        0.289   3.428  -1.418  0.00  0.00    +0.000 A 
ATOM     19  C   LIG    1        1.288   2.522  -1.719  0.00  0.00    +0.280 A 
ATOM     20  N   LIG    1        1.286   1.871  -2.866  0.00  0.00    -0.460 NA
ATOM     21  C   LIG    1        0.343   2.061  -3.768  0.00  0.00    +0.290 A 
ATOM     22  C   LIG    1       -0.685   2.955  -3.540  0.00  0.00    +0.000 A 
ENDBRANCH  16  17
ENDBRANCH  13  16
ENDBRANCH  12  13
ENDBRANCH   1  12
TORSDOF 11
