REMARK  Name = ZINCqH0000007RIC.0
REMARK                            x       y       z     vdW  Elec       q    Type
REMARK                         _______ _______ _______ _____ _____    ______ ____
ROOT
ATOM      1  N   LIG    1        4.761   0.157   0.541  0.00  0.00    -0.710 N 
ATOM      2  H   LIG    1        4.660   1.121   0.526  0.00  0.00    +0.400 HD
ATOM      3  C   LIG    1        5.858  -0.398   1.094  0.00  0.00    +0.590 C 
ATOM      4  O   LIG    1        5.985  -1.607   1.112  0.00  0.00    -0.510 OA
ENDROOT
BRANCH   3   5
ATOM      5  C   LIG    1        6.903   0.461   1.675  0.00  0.00    -0.170 A 
ATOM      6  C   LIG    1        7.989   0.978   1.040  0.00  0.00    +0.070 A 
ATOM      7  O   LIG    1        8.702   1.707   1.907  0.00  0.00    -0.160 OA
ATOM      8  C   LIG    1        8.138   1.707   3.123  0.00  0.00    +0.300 A 
ATOM      9  C   LIG    1        8.335   0.764  -0.411  0.00  0.00    +0.210 C 
ATOM     10  C   LIG    1        6.988   0.946   3.071  0.00  0.00    -0.110 A 
BRANCH   8  11
ATOM     11  N   LIG    1        8.626   2.366   4.244  0.00  0.00    -0.380 N 
ATOM     12  C   LIG    1        8.046   2.370   5.482  0.00  0.00    +0.160 A 
ATOM     13  C   LIG    1        8.814   3.113   6.304  0.00  0.00    -0.020 A 
ATOM     14  C   LIG    1        9.902   3.595   5.547  0.00  0.00    -0.020 A 
ATOM     15  C   LIG    1        9.763   3.124   4.292  0.00  0.00    +0.170 A 
ENDBRANCH   8  11
BRANCH  10  16
ATOM     16  C   LIG    1        6.072   0.681   4.140  0.00  0.00    +0.280 C 
ATOM     17  N   LIG    1        5.347   0.470   4.988  0.00  0.00    -0.390 NA
ENDBRANCH  10  16
ENDBRANCH   3   5
BRANCH   1  18
ATOM     18  C   LIG    1        3.721  -0.698  -0.038  0.00  0.00    +0.290 C 
ATOM     19  C   LIG    1        4.092  -1.047  -1.480  0.00  0.00    +0.040 C 
BRANCH  18  25
ATOM     20  C   LIG    1        1.213  -0.680  -0.013  0.00  0.00    +0.140 A 
ATOM     21  C   LIG    1        0.002  -0.004   0.002  0.00  0.00    -0.070 A 
ATOM     22  C   LIG    1       -0.017   1.377   0.010  0.00  0.00    +0.050 A 
ATOM     23  C   LIG    1        1.170   2.086   0.002  0.00  0.00    -0.020 A 
ATOM     24  C   LIG    1        2.379   1.415  -0.013  0.00  0.00    +0.050 A 
ATOM     25  C   LIG    1        2.403   0.034  -0.021  0.00  0.00    -0.130 A 
BRANCH  20  27
ATOM     26  C   LIG    1       -0.029  -2.707  -0.013  0.00  0.00    +0.250 C 
ATOM     27  O   LIG    1        1.234  -2.039  -0.021  0.00  0.00    -0.310 OA
ENDBRANCH  20  27
ENDBRANCH  18  25
ENDBRANCH   1  18
TORSDOF 6
