REMARK  Name = ZINCc70000002zb6.0
REMARK                            x       y       z     vdW  Elec       q    Type
REMARK                         _______ _______ _______ _____ _____    ______ ____
ROOT
ATOM      1  C   LIG    1       -0.019   1.528   0.010  0.00  0.00    -0.120 C 
ATOM      2  C   LIG    1        1.422   2.047  -0.001  0.00  0.00    +0.030 C 
ATOM      3  C   LIG    1        2.174   1.469   1.202  0.00  0.00    +0.220 C 
ATOM      4  O   LIG    1        2.128   0.042   1.149  0.00  0.00    -0.380 OA
ATOM      5  C   LIG    1        0.808  -0.502   1.204  0.00  0.00    +0.220 C 
ATOM      6  C   LIG    1        0.002  -0.004   0.002  0.00  0.00    +0.060 C 
ENDROOT
BRANCH   1   7
ATOM      7  C   LIG    1       -0.744   2.029  -1.212  0.00  0.00    +0.480 C 
ATOM      8  O   LIG    1       -1.199   1.243  -2.009  0.00  0.00    -0.490 OA
BRANCH   7  10
ATOM      9  C   LIG    1       -1.596   3.758  -2.612  0.00  0.00    +0.280 C 
ATOM     10  O   LIG    1       -0.886   3.348  -1.414  0.00  0.00    -0.350 OA
ENDBRANCH   7  10
ENDBRANCH   1   7
BRANCH   1  11
ATOM     11  C   LIG    1       -0.721   2.015   1.251  0.00  0.00    +0.470 C 
ATOM     12  O   LIG    1       -0.134   2.714   2.042  0.00  0.00    -0.420 OA
ENDBRANCH   1  11
TORSDOF 3
