REMARK  Name = ZINCrH00000No53h.0
REMARK                            x       y       z     vdW  Elec       q    Type
REMARK                         _______ _______ _______ _____ _____    ______ ____
ROOT
ATOM      1  N   LIG    1       -0.484   5.846   1.133  0.00  0.00    -0.520 NA
ENDROOT
BRANCH   1   2
ATOM      2  C   LIG    1       -0.669   5.510  -0.285  0.00  0.00    +0.220 C 
BRANCH   2   9
ATOM      3  C   LIG    1        1.694   3.868  -0.018  0.00  0.00    +0.100 C 
ATOM      4  C   LIG    1        0.361   3.228  -0.309  0.00  0.00    -0.060 A 
ATOM      5  C   LIG    1        0.268   1.856  -0.443  0.00  0.00    +0.060 A 
ATOM      6  C   LIG    1       -0.954   1.269  -0.716  0.00  0.00    -0.180 A 
ATOM      7  C   LIG    1       -2.084   2.055  -0.844  0.00  0.00    +0.060 A 
ATOM      8  C   LIG    1       -1.992   3.427  -0.704  0.00  0.00    +0.020 A 
ATOM      9  C   LIG    1       -0.769   4.014  -0.437  0.00  0.00    -0.050 A 
BRANCH   6  10
ATOM     10  C   LIG    1       -1.055  -0.227  -0.867  0.00  0.00    +0.510 C 
ATOM     11  F   LIG    1       -0.634  -0.844   0.316  0.00  0.00    -0.180 F 
ATOM     12  F   LIG    1       -0.241  -0.644  -1.926  0.00  0.00    -0.180 F 
ATOM     13  F   LIG    1       -2.382  -0.580  -1.131  0.00  0.00    -0.180 F 
ENDBRANCH   6  10
ENDBRANCH   2   9
ENDBRANCH   1   2
BRANCH   1  14
ATOM     14  C   LIG    1       -1.659   5.458   1.924  0.00  0.00    +0.240 C 
BRANCH  14  15
ATOM     15  C   LIG    1       -2.914   6.089   1.316  0.00  0.00    +0.120 C 
ATOM     16  C   LIG    1       -4.154   5.567   2.047  0.00  0.00    -0.010 C 
ATOM     17  C   LIG    1       -5.400   6.248   1.474  0.00  0.00    +0.010 C 
ATOM     18  C   LIG    1       -5.244   7.766   1.605  0.00  0.00    -0.010 C 
ATOM     19  C   LIG    1       -3.963   8.203   0.890  0.00  0.00    +0.190 C 
ATOM     20  O   LIG    1       -2.846   7.510   1.451  0.00  0.00    -0.350 OA
ENDBRANCH  14  15
ENDBRANCH   1  14
BRANCH   1  21
ATOM     21  C   LIG    1       -0.185   7.275   1.300  0.00  0.00    +0.300 C 
BRANCH  21  22
ATOM     22  C   LIG    1        0.126   7.557   2.748  0.00  0.00    -0.010 A 
ATOM     23  C   LIG    1        1.353   7.610   3.317  0.00  0.00    +0.150 A 
ATOM     24  N   LIG    1        1.150   7.890   4.625  0.00  0.00    -0.300 N 
ATOM     25  N   LIG    1       -0.118   7.997   4.823  0.00  0.00    -0.090 NA
ATOM     26  C   LIG    1        2.193   8.046   5.641  0.00  0.00    +0.370 C 
ATOM     27  N   LIG    1       -0.756   7.809   3.722  0.00  0.00    -0.240 NA
ENDBRANCH  21  22
ENDBRANCH   1  21
TORSDOF 7
