REMARK  Name = ZINCrD000000fOUK.0
REMARK                            x       y       z     vdW  Elec       q    Type
REMARK                         _______ _______ _______ _____ _____    ______ ____
ROOT
ATOM      1  N   LIG    1       -5.772   7.200   0.907  0.00  0.00    -0.680 N 
ATOM      2  H   LIG    1       -6.250   7.057   0.075  0.00  0.00    +0.410 HD
ATOM      3  C   LIG    1       -4.726   6.413   1.227  0.00  0.00    +0.730 C 
ATOM      4  N   LIG    1       -4.408   5.363   0.445  0.00  0.00    -0.630 N 
ATOM      5  C   LIG    1       -5.117   4.961  -0.785  0.00  0.00    +0.250 C 
ATOM      6  C   LIG    1       -4.073   4.160  -1.606  0.00  0.00    +0.090 C 
ATOM      7  C   LIG    1       -3.299   3.433  -0.491  0.00  0.00    -0.070 C 
ATOM      8  C   LIG    1       -3.954   2.132  -0.124  0.00  0.00    +0.540 C 
ATOM      9  N   LIG    1       -3.034   1.168  -0.329  0.00  0.00    -0.660 N 
ATOM     10  H   LIG    1       -3.193   0.225  -0.168  0.00  0.00    +0.420 HD
ATOM     11  C   LIG    1       -1.826   1.685  -0.804  0.00  0.00    +0.150 A 
ATOM     12  C   LIG    1       -0.632   1.050  -1.133  0.00  0.00    -0.010 A 
ATOM     13  C   LIG    1        0.444   1.786  -1.585  0.00  0.00    +0.050 A 
ATOM     14  C   LIG    1        0.347   3.160  -1.710  0.00  0.00    -0.010 A 
ATOM     15  C   LIG    1       -0.834   3.800  -1.379  0.00  0.00    +0.070 A 
ATOM     16  O   LIG    1       -5.087   1.979   0.279  0.00  0.00    -0.480 OA
ATOM     17  C   LIG    1       -1.910   3.070  -0.927  0.00  0.00    -0.130 A 
ATOM     18  C   LIG    1       -3.296   4.424   0.676  0.00  0.00    +0.330 C 
ATOM     19  O   LIG    1       -4.069   6.650   2.222  0.00  0.00    -0.570 OA
ENDROOT
BRANCH   1  22
ATOM     20  C   LIG    1       -7.071  10.427   2.133  0.00  0.00    -0.160 A 
ATOM     21  C   LIG    1       -6.677   9.408   1.262  0.00  0.00    +0.040 A 
ATOM     22  C   LIG    1       -6.168   8.225   1.774  0.00  0.00    +0.150 A 
ATOM     23  C   LIG    1       -6.057   8.053   3.149  0.00  0.00    +0.060 A 
ATOM     24  C   LIG    1       -6.442   9.063   4.012  0.00  0.00    +0.020 A 
ATOM     25  C   LIG    1       -6.949  10.245   3.515  0.00  0.00    -0.040 A 
ATOM     26  C   LIG    1       -7.373  11.340   4.460  0.00  0.00    +0.110 C 
BRANCH  20  28
ATOM     27  C   LIG    1       -7.612  11.937   0.112  0.00  0.00    +0.080 C 
ATOM     28  C   LIG    1       -7.612  11.688   1.598  0.00  0.00    +0.390 C 
ATOM     29  O   LIG    1       -8.057  12.525   2.354  0.00  0.00    -0.450 OA
ENDBRANCH  20  28
ENDBRANCH   1  22
TORSDOF 2
