REMARK  Name = ZINCqH0000000tsL.0
REMARK                            x       y       z     vdW  Elec       q    Type
REMARK                         _______ _______ _______ _____ _____    ______ ____
ROOT
ATOM      1  C   LIG    1        7.453   1.915   6.500  0.00  0.00    +0.090 A 
ATOM      2  C   LIG    1        6.312   1.149   6.298  0.00  0.00    +0.100 A 
ATOM      3  C   LIG    1        5.494   1.403   5.215  0.00  0.00    -0.040 A 
ATOM      4  C   LIG    1        5.813   2.423   4.328  0.00  0.00    +0.260 A 
ATOM      5  C   LIG    1        6.957   3.184   4.527  0.00  0.00    -0.240 A 
ATOM      6  C   LIG    1        7.771   2.935   5.614  0.00  0.00    +0.090 A 
ENDROOT
BRANCH   1   9
ATOM      7  C   LIG    1        9.226   0.135   9.306  0.00  0.00    +0.110 C 
ATOM      8  C   LIG    1        8.430   0.397   8.053  0.00  0.00    +0.510 C 
ATOM      9  N   LIG    1        8.283   1.658   7.600  0.00  0.00    -0.670 N 
ATOM     10  H   LIG    1        8.752   2.388   8.035  0.00  0.00    +0.410 HD
ATOM     11  O   LIG    1        7.922  -0.526   7.453  0.00  0.00    -0.530 OA
ENDBRANCH   1   9
BRANCH   5  12
ATOM     12  C   LIG    1        7.306   4.287   3.561  0.00  0.00    +0.510 C 
ATOM     13  F   LIG    1        6.273   5.230   3.536  0.00  0.00    -0.180 F 
ATOM     14  F   LIG    1        7.478   3.749   2.281  0.00  0.00    -0.180 F 
ATOM     15  F   LIG    1        8.493   4.906   3.969  0.00  0.00    -0.180 F 
ENDBRANCH   5  12
BRANCH   4  16
ATOM     16  N   LIG    1        4.984   2.679   3.230  0.00  0.00    -0.730 N 
ATOM     17  H   LIG    1        5.206   3.392   2.611  0.00  0.00    +0.410 HD
BRANCH  16  18
ATOM     18  C   LIG    1        3.780   1.872   3.017  0.00  0.00    +0.300 C 
BRANCH  18  19
ATOM     19  C   LIG    1        3.070   2.349   1.776  0.00  0.00    +0.510 C 
ATOM     20  N   LIG    1        1.929   1.749   1.381  0.00  0.00    -0.720 N 
ATOM     21  H   LIG    1        1.566   1.011   1.895  0.00  0.00    +0.400 HD
ATOM     22  O   LIG    1        3.524   3.272   1.134  0.00  0.00    -0.530 OA
BRANCH  20  23
ATOM     23  C   LIG    1        1.238   2.212   0.175  0.00  0.00    +0.240 C 
ATOM     24  C   LIG    1        1.848   1.535  -1.054  0.00  0.00    +0.010 C 
ATOM     25  C   LIG    1        1.694   0.018  -0.929  0.00  0.00    +0.000 C 
ATOM     26  C   LIG    1        0.209  -0.339  -0.835  0.00  0.00    +0.000 C 
ATOM     27  C   LIG    1       -0.401   0.339   0.394  0.00  0.00    +0.010 C 
ATOM     28  C   LIG    1       -0.247   1.856   0.269  0.00  0.00    -0.010 C 
ATOM     29  C   LIG    1       -0.856   2.534   1.498  0.00  0.00    +0.020 C 
ENDBRANCH  20  23
ENDBRANCH  18  19
ENDBRANCH  16  18
ENDBRANCH   4  16
TORSDOF 6
