REMARK  Name = ZINCrH00000No53V.0
REMARK                            x       y       z     vdW  Elec       q    Type
REMARK                         _______ _______ _______ _____ _____    ______ ____
ROOT
ATOM      1  O   LIG    1       -6.109   1.598   0.040  0.00  0.00    -0.340 OA
ENDROOT
BRANCH   1   2
ATOM      2  C   LIG    1       -4.934   0.934   0.030  0.00  0.00    +0.500 C 
ATOM      3  O   LIG    1       -4.923  -0.282   0.024  0.00  0.00    -0.500 OA
BRANCH   2   4
ATOM      4  C   LIG    1       -3.675   1.677   0.029  0.00  0.00    -0.030 C 
ATOM      5  C   LIG    1       -2.500   1.013   0.019  0.00  0.00    +0.150 C 
BRANCH   5   6
ATOM      6  C   LIG    1       -1.232   1.760   0.018  0.00  0.00    -0.080 A 
ATOM      7  C   LIG    1       -1.241   3.159   0.030  0.00  0.00    +0.100 A 
ATOM      8  C   LIG    1       -0.049   3.852   0.023  0.00  0.00    +0.050 A 
ATOM      9  C   LIG    1        1.154   3.167   0.008  0.00  0.00    +0.120 A 
ATOM     10  C   LIG    1        1.171   1.783   0.001  0.00  0.00    -0.040 A 
ATOM     11  C   LIG    1       -0.013   1.076   0.008  0.00  0.00    +0.130 A 
BRANCH  10  12
ATOM     12  N   LIG    1        2.462   1.061  -0.016  0.00  0.00    +0.020 N 
ATOM     13  O   LIG    1        3.509   1.684  -0.023  0.00  0.00    -0.150 OA
ATOM     14  O   LIG    1        2.479  -0.157  -0.023  0.00  0.00    -0.150 OA
ENDBRANCH  10  12
ENDBRANCH   5   6
ENDBRANCH   2   4
ENDBRANCH   1   2
BRANCH   1  15
ATOM     15  C   LIG    1       -7.300   0.809   0.041  0.00  0.00    +0.300 C 
BRANCH  15  21
ATOM     16  C   LIG    1      -13.850  -0.378   0.065  0.00  0.00    +0.120 C 
ATOM     17  C   LIG    1      -12.446   0.171   0.062  0.00  0.00    -0.030 A 
ATOM     18  C   LIG    1      -11.368  -0.702   0.052  0.00  0.00    +0.000 A 
ATOM     19  C   LIG    1      -10.079  -0.216   0.049  0.00  0.00    +0.080 A 
ATOM     20  C   LIG    1       -9.862   1.165   0.055  0.00  0.00    -0.150 A 
ATOM     21  C   LIG    1       -8.503   1.716   0.051  0.00  0.00    +0.020 A 
ATOM     22  C   LIG    1       -8.359   3.066   0.064  0.00  0.00    -0.050 A 
ATOM     23  C   LIG    1       -9.503   3.893   0.069  0.00  0.00    +0.510 A 
ATOM     24  O   LIG    1      -10.743   3.382   0.071  0.00  0.00    -0.270 OA
ATOM     25  O   LIG    1       -9.360   5.103   0.075  0.00  0.00    -0.460 OA
ATOM     26  C   LIG    1      -10.956   2.048   0.065  0.00  0.00    +0.160 A 
ATOM     27  C   LIG    1      -12.247   1.536   0.068  0.00  0.00    +0.020 A 
ENDBRANCH  15  21
ENDBRANCH   1  15
TORSDOF 6
