REMARK  Name = ZINCtV00000L6kxM.0
REMARK                            x       y       z     vdW  Elec       q    Type
REMARK                         _______ _______ _______ _____ _____    ______ ____
ROOT
ATOM      1  C   LIG    1       -2.974   2.831   2.853  0.00  0.00    +0.320 A 
ATOM      2  C   LIG    1       -3.707   2.909   4.029  0.00  0.00    -0.100 A 
ATOM      3  C   LIG    1       -4.057   1.525   4.388  0.00  0.00    -0.050 A 
ATOM      4  C   LIG    1       -3.515   0.724   3.402  0.00  0.00    +0.080 A 
ATOM      5  N   LIG    1       -2.872   1.527   2.490  0.00  0.00    -0.430 N 
ENDROOT
BRANCH   4   6
ATOM      6  C   LIG    1       -3.611  -0.747   3.339  0.00  0.00    -0.020 A 
ATOM      7  C   LIG    1       -3.932  -1.378   2.135  0.00  0.00    +0.010 A 
ATOM      8  C   LIG    1       -4.015  -2.754   2.083  0.00  0.00    +0.000 A 
ATOM      9  C   LIG    1       -3.791  -3.508   3.221  0.00  0.00    +0.010 A 
ATOM     10  C   LIG    1       -3.477  -2.889   4.418  0.00  0.00    +0.020 A 
ATOM     11  C   LIG    1       -3.385  -1.514   4.485  0.00  0.00    +0.040 A 
ENDBRANCH   4   6
BRANCH   3  12
ATOM     12  C   LIG    1       -4.833   1.082   5.568  0.00  0.00    -0.020 A 
ATOM     13  C   LIG    1       -6.078   0.476   5.400  0.00  0.00    +0.020 A 
ATOM     14  C   LIG    1       -6.794   0.060   6.503  0.00  0.00    +0.000 A 
ATOM     15  C   LIG    1       -6.284   0.253   7.775  0.00  0.00    +0.000 A 
ATOM     16  C   LIG    1       -5.052   0.858   7.949  0.00  0.00    +0.000 A 
ATOM     17  C   LIG    1       -4.324   1.273   6.853  0.00  0.00    +0.020 A 
ENDBRANCH   3  12
BRANCH   5  18
ATOM     18  C   LIG    1       -2.172   1.043   1.297  0.00  0.00    +0.240 C 
ATOM     19  C   LIG    1       -0.733   1.564   1.304  0.00  0.00    +0.020 C 
ATOM     20  C   LIG    1       -0.002   1.058   0.059  0.00  0.00    +0.020 C 
ATOM     21  C   LIG    1       -0.721   1.562  -1.194  0.00  0.00    +0.000 C 
ATOM     22  C   LIG    1       -2.159   1.041  -1.201  0.00  0.00    +0.020 C 
ATOM     23  C   LIG    1       -2.891   1.546   0.044  0.00  0.00    +0.010 C 
ENDBRANCH   5  18
BRANCH   1  26
ATOM     24  C   LIG    1       -1.598   6.231   2.070  0.00  0.00    +0.120 C 
ATOM     25  C   LIG    1       -2.055   5.013   2.830  0.00  0.00    +0.510 C 
ATOM     26  N   LIG    1       -2.438   3.906   2.163  0.00  0.00    -0.660 N 
ATOM     27  H   LIG    1       -2.337   3.862   1.199  0.00  0.00    +0.410 HD
ATOM     28  O   LIG    1       -2.080   5.028   4.043  0.00  0.00    -0.490 OA
ENDBRANCH   1  26
BRANCH   2  29
ATOM     29  C   LIG    1       -4.049   4.098   4.751  0.00  0.00    +0.300 C 
ATOM     30  N   LIG    1       -4.321   5.040   5.324  0.00  0.00    -0.430 NA
ENDBRANCH   2  29
TORSDOF 5
