REMARK  Name = ZINCpe00000gM3pv.0
REMARK                            x       y       z     vdW  Elec       q    Type
REMARK                         _______ _______ _______ _____ _____    ______ ____
ROOT
ATOM      1  C   LIG    1       -0.741   1.585   1.262  0.00  0.00    +0.250 C 
ATOM      2  C   LIG    1       -0.013   1.086   0.008  0.00  0.00    +0.020 C 
ATOM      3  C   LIG    1       -0.763   1.598  -1.224  0.00  0.00    +0.090 C 
ATOM      4  C   LIG    1       -1.029   3.069  -1.085  0.00  0.00    +0.520 C 
ATOM      5  N   LIG    1       -0.968   3.722   0.076  0.00  0.00    -0.710 N 
ATOM      6  H   LIG    1       -1.187   4.667   0.078  0.00  0.00    +0.410 HD
ATOM      7  O   LIG    1       -1.315   3.697  -2.083  0.00  0.00    -0.550 OA
ATOM      8  C   LIG    1       -0.592   3.105   1.342  0.00  0.00    +0.310 C 
ENDROOT
BRANCH   8   9
ATOM      9  C   LIG    1       -1.481   3.636   2.437  0.00  0.00    -0.270 A 
ATOM     10  C   LIG    1       -1.091   3.958   3.692  0.00  0.00    +0.260 A 
ATOM     11  N   LIG    1       -2.179   4.393   4.362  0.00  0.00    -0.370 N 
ATOM     12  N   LIG    1       -3.273   4.336   3.490  0.00  0.00    -0.290 NA
ATOM     13  C   LIG    1       -2.209   4.844   5.756  0.00  0.00    +0.360 C 
ATOM     14  C   LIG    1       -2.853   3.888   2.335  0.00  0.00    +0.250 A 
ENDBRANCH   8   9
BRANCH   1  15
ATOM     15  N   LIG    1       -0.148   0.970   2.452  0.00  0.00    -0.690 N 
ATOM     16  H   LIG    1        0.541   1.438   2.949  0.00  0.00    +0.420 HD
BRANCH  15  23
ATOM     17  C   LIG    1       -2.865  -3.043   2.116  0.00  0.00    +0.210 A 
ATOM     18  N   LIG    1       -2.868  -4.093   2.899  0.00  0.00    -0.260 NA
ATOM     19  N   LIG    1       -2.008  -3.943   3.845  0.00  0.00    -0.250 NA
ATOM     20  C   LIG    1       -1.407  -2.771   3.707  0.00  0.00    +0.110 A 
ATOM     21  C   LIG    1       -0.406  -2.098   4.433  0.00  0.00    +0.190 A 
ATOM     22  C   LIG    1        0.006  -0.873   4.012  0.00  0.00    -0.020 A 
ATOM     23  C   LIG    1       -0.574  -0.287   2.870  0.00  0.00    +0.420 A 
ATOM     24  N   LIG    1       -1.506  -0.914   2.192  0.00  0.00    -0.330 NA
ATOM     25  N   LIG    1       -1.948  -2.176   2.595  0.00  0.00    -0.270 N 
BRANCH  17  27
ATOM     26  C   LIG    1       -3.010  -3.387  -0.336  0.00  0.00    +0.030 C 
ATOM     27  C   LIG    1       -3.730  -2.839   0.898  0.00  0.00    +0.160 C 
ENDBRANCH  17  27
ENDBRANCH  15  23
ENDBRANCH   1  15
TORSDOF 4
