REMARK  Name = ZINCb70000006kW1.0
REMARK                            x       y       z     vdW  Elec       q    Type
REMARK                         _______ _______ _______ _____ _____    ______ ____
ROOT
ATOM      1  C   LIG    1       -0.634   2.025   1.327  0.00  0.00    +0.150 C 
ATOM      2  C   LIG    1        0.198   3.285   1.657  0.00  0.00    +0.050 C 
ATOM      3  C   LIG    1        1.218   3.374   0.500  0.00  0.00    +0.240 C 
ATOM      4  O   LIG    1        1.329   2.024   0.000  0.00  0.00    -0.330 OA
ATOM      5  C   LIG    1       -0.018   1.503   0.010  0.00  0.00    +0.270 C 
ENDROOT
BRANCH   5   6
ATOM      6  C   LIG    1        0.002  -0.004   0.002  0.00  0.00    +0.040 A 
ATOM      7  N   LIG    1        0.499  -0.770   0.940  0.00  0.00    -0.260 NA
ATOM      8  N   LIG    1        0.318  -2.105   0.555  0.00  0.00    -0.460 N 
ATOM      9  H   LIG    1        0.590  -2.886   1.062  0.00  0.00    +0.450 HD
ATOM     10  C   LIG    1       -0.294  -2.112  -0.647  0.00  0.00    +0.270 A 
ATOM     11  C   LIG    1       -0.501  -0.826  -1.012  0.00  0.00    -0.100 A 
ENDBRANCH   5   6
BRANCH   1  12
ATOM     12  N   LIG    1       -2.046   2.378   1.131  0.00  0.00    -0.630 N 
ATOM     13  H   LIG    1       -2.119   3.098   0.428  0.00  0.00    +0.430 HD
ATOM     14  H   LIG    1       -2.432   2.716   2.000  0.00  0.00    +0.440 HD
ATOM     15  H   LIG    1       -2.558   1.562   0.831  0.00  0.00    +0.440 HD
ENDBRANCH   1  12
TORSDOF 2
