REMARK  Name = ZINCrH000004nhQQ.0
REMARK                            x       y       z     vdW  Elec       q    Type
REMARK                         _______ _______ _______ _____ _____    ______ ____
ROOT
ATOM      1  O   LIG    1        7.186  -2.173   2.712  0.00  0.00    -0.300 OA
ENDROOT
BRANCH   1   7
ATOM      2  C   LIG    1        9.164  -3.493   2.873  0.00  0.00    +0.120 A 
ATOM      3  C   LIG    1        9.825  -4.593   3.391  0.00  0.00    -0.040 A 
ATOM      4  C   LIG    1        9.173  -5.458   4.254  0.00  0.00    +0.060 A 
ATOM      5  C   LIG    1        7.860  -5.232   4.606  0.00  0.00    +0.020 A 
ATOM      6  C   LIG    1        7.180  -4.123   4.094  0.00  0.00    -0.110 A 
ATOM      7  C   LIG    1        7.838  -3.251   3.218  0.00  0.00    +0.110 A 
BRANCH   6   8
ATOM      8  C   LIG    1        5.776  -3.875   4.472  0.00  0.00    +0.560 C 
ATOM      9  N   LIG    1        4.871  -4.870   4.392  0.00  0.00    -0.620 N 
ATOM     10  C   LIG    1        5.299  -6.222   4.024  0.00  0.00    +0.280 C 
ATOM     11  C   LIG    1        3.459  -4.601   4.674  0.00  0.00    +0.290 C 
ATOM     12  O   LIG    1        5.435  -2.772   4.855  0.00  0.00    -0.510 OA
ENDBRANCH   6   8
BRANCH   2  14
ATOM     13  C   LIG    1       11.171  -2.956   1.715  0.00  0.00    +0.250 C 
ATOM     14  O   LIG    1        9.811  -2.647   2.026  0.00  0.00    -0.300 OA
ENDBRANCH   2  14
ENDBRANCH   1   7
BRANCH   1  15
ATOM     15  C   LIG    1        6.489  -2.357   1.478  0.00  0.00    +0.350 C 
BRANCH  15  16
ATOM     16  C   LIG    1        5.832  -1.062   1.075  0.00  0.00    +0.200 A 
ATOM     17  N   LIG    1        6.377  -0.134   0.338  0.00  0.00    -0.450 NA
ATOM     18  C   LIG    1        5.499   0.868   0.183  0.00  0.00    +0.180 A 
ATOM     19  C   LIG    1        4.373   0.535   0.865  0.00  0.00    -0.000 A 
ATOM     20  O   LIG    1        4.594  -0.678   1.416  0.00  0.00    -0.180 OA
BRANCH  19  21
ATOM     21  C   LIG    1        3.139   1.342   0.977  0.00  0.00    -0.060 A 
ATOM     22  C   LIG    1        3.212   2.684   1.351  0.00  0.00    +0.080 A 
ATOM     23  C   LIG    1        2.057   3.432   1.454  0.00  0.00    +0.010 A 
ATOM     24  C   LIG    1        0.828   2.855   1.187  0.00  0.00    +0.060 A 
ATOM     25  C   LIG    1        0.747   1.525   0.815  0.00  0.00    -0.010 A 
ATOM     26  C   LIG    1        1.895   0.764   0.709  0.00  0.00    +0.120 A 
ATOM     27  F   LIG    1        1.816  -0.535   0.345  0.00  0.00    -0.130 F 
ENDBRANCH  19  21
ENDBRANCH  15  16
ENDBRANCH   1  15
TORSDOF 6
