REMARK  Name = ZINCpe00000bBFhZ.0
REMARK                            x       y       z     vdW  Elec       q    Type
REMARK                         _______ _______ _______ _____ _____    ______ ____
ROOT
ATOM      1  C   LIG    1        7.139  -4.136  -0.685  0.00  0.00    +0.140 C 
ATOM      2  C   LIG    1        7.241  -2.715  -0.070  0.00  0.00    +0.040 C 
ATOM      3  C   LIG    1        5.770  -2.252  -0.022  0.00  0.00    +0.270 C 
ATOM      4  N   LIG    1        4.932  -3.460  -0.041  0.00  0.00    -0.600 N 
ATOM      5  C   LIG    1        3.584  -3.481  -0.030  0.00  0.00    +0.620 C 
ATOM      6  O   LIG    1        2.993  -4.543  -0.048  0.00  0.00    -0.510 OA
ATOM      7  C   LIG    1        5.809  -4.644  -0.068  0.00  0.00    +0.290 C 
ENDROOT
BRANCH   5   8
ATOM      8  C   LIG    1        2.825  -2.213   0.003  0.00  0.00    +0.080 A 
ATOM      9  N   LIG    1        3.351  -0.998   0.024  0.00  0.00    -0.280 NA
ATOM     10  N   LIG    1        2.313  -0.059   0.053  0.00  0.00    -0.310 N 
ATOM     11  C   LIG    1        2.308   1.307   0.082  0.00  0.00    +0.340 A 
ATOM     12  C   LIG    1        1.123   1.962   0.106  0.00  0.00    -0.050 A 
ATOM     13  C   LIG    1       -0.072   1.227   0.101  0.00  0.00    +0.360 A 
ATOM     14  N   LIG    1       -0.043  -0.084   0.072  0.00  0.00    -0.460 NA
ATOM     15  C   LIG    1        1.124  -0.745   0.048  0.00  0.00    +0.250 A 
ATOM     16  C   LIG    1        1.431  -2.096   0.017  0.00  0.00    -0.030 A 
ENDBRANCH   5   8
BRANCH   1  18
ATOM     17  C   LIG    1        8.098  -6.359  -0.724  0.00  0.00    +0.200 C 
ATOM     18  N   LIG    1        8.268  -4.974  -0.263  0.00  0.00    -0.520 NA
BRANCH  18  19
ATOM     19  C   LIG    1        9.543  -4.416  -0.733  0.00  0.00    +0.290 C 
BRANCH  19  20
ATOM     20  C   LIG    1       10.685  -5.154  -0.083  0.00  0.00    +0.330 A 
ATOM     21  N   LIG    1       11.166  -4.712   1.062  0.00  0.00    -0.500 NA
ATOM     22  C   LIG    1       12.164  -5.338   1.665  0.00  0.00    +0.320 A 
ATOM     23  C   LIG    1       12.711  -6.464   1.071  0.00  0.00    -0.080 A 
ATOM     24  C   LIG    1       12.182  -6.896  -0.136  0.00  0.00    +0.320 A 
ATOM     25  N   LIG    1       11.180  -6.222  -0.677  0.00  0.00    -0.520 NA
ENDBRANCH  19  20
ENDBRANCH  18  19
ENDBRANCH   1  18
TORSDOF 4
