REMARK  Name = ZINCpk000000pLXw.0
REMARK                            x       y       z     vdW  Elec       q    Type
REMARK                         _______ _______ _______ _____ _____    ______ ____
ROOT
ATOM      1  C   LIG    1       -0.222   1.232   2.431  0.00  0.00    +0.500 C 
ATOM      2  N   LIG    1       -0.698   1.558   1.213  0.00  0.00    -0.730 N 
ATOM      3  H   LIG    1       -1.495   2.106   1.135  0.00  0.00    +0.400 HD
ATOM      4  O   LIG    1        0.774   0.548   2.529  0.00  0.00    -0.500 OA
ENDROOT
BRANCH   1   5
ATOM      5  C   LIG    1       -0.927   1.718   3.671  0.00  0.00    +0.270 C 
BRANCH   5   6
ATOM      6  N   LIG    1       -0.543   0.882   4.811  0.00  0.00    -0.730 N 
ATOM      7  H   LIG    1       -1.219   0.387   5.299  0.00  0.00    +0.400 HD
ATOM      8  C   LIG    1        0.750   0.803   5.182  0.00  0.00    +0.710 C 
ATOM      9  O   LIG    1        1.598   1.424   4.571  0.00  0.00    -0.560 OA
ATOM     10  N   LIG    1        1.104   0.034   6.231  0.00  0.00    -0.870 N 
ATOM     11  H   LIG    1        2.035  -0.024   6.498  0.00  0.00    +0.410 HD
ATOM     12  H   LIG    1        0.428  -0.462   6.719  0.00  0.00    +0.390 HD
ENDBRANCH   5   6
BRANCH   5  13
ATOM     13  C   LIG    1       -0.532   3.170   3.947  0.00  0.00    +0.000 C 
ATOM     14  C   LIG    1       -0.933   4.043   2.756  0.00  0.00    +0.020 C 
BRANCH  13  16
ATOM     15  C   LIG    1       -0.758   5.071   5.553  0.00  0.00    +0.010 C 
ATOM     16  C   LIG    1       -1.248   3.664   5.206  0.00  0.00    +0.010 C 
ENDBRANCH  13  16
ENDBRANCH   5  13
ENDBRANCH   1   5
BRANCH   2  17
ATOM     17  C   LIG    1       -0.013   1.086   0.008  0.00  0.00    +0.330 C 
BRANCH  17  18
ATOM     18  C   LIG    1       -0.742   1.585  -1.213  0.00  0.00    -0.140 A 
ATOM     19  C   LIG    1       -1.600   0.744  -1.896  0.00  0.00    +0.030 A 
ATOM     20  C   LIG    1       -2.275   1.202  -3.016  0.00  0.00    +0.060 A 
ATOM     21  C   LIG    1       -2.080   2.507  -3.459  0.00  0.00    +0.150 A 
ATOM     22  C   LIG    1       -1.215   3.347  -2.776  0.00  0.00    -0.120 A 
ATOM     23  C   LIG    1       -0.546   2.886  -1.653  0.00  0.00    +0.150 A 
BRANCH  21  24
ATOM     24  O   LIG    1       -2.738   2.957  -4.561  0.00  0.00    -0.300 OA
ATOM     25  C   LIG    1       -2.490   4.307  -4.958  0.00  0.00    +0.240 C 
ENDBRANCH  21  24
BRANCH  20  26
ATOM     26  O   LIG    1       -3.124   0.376  -3.685  0.00  0.00    -0.310 OA
ATOM     27  C   LIG    1       -3.276  -0.950  -3.174  0.00  0.00    +0.240 C 
ENDBRANCH  20  26
BRANCH  23  28
ATOM     28  O   LIG    1        0.303   3.709  -0.982  0.00  0.00    -0.300 OA
ATOM     29  C   LIG    1        0.457   5.036  -1.490  0.00  0.00    +0.240 C 
ENDBRANCH  23  28
ENDBRANCH  17  18
ENDBRANCH   2  17
TORSDOF 9
