REMARK  Name = ZINCrD0000073nEU.0
REMARK                            x       y       z     vdW  Elec       q    Type
REMARK                         _______ _______ _______ _____ _____    ______ ____
ROOT
ATOM      1  N   LIG    1        2.356   3.900   0.000  0.00  0.00    -0.660 N 
ATOM      2  H   LIG    1        3.162   3.496  -0.358  0.00  0.00    +0.420 HD
ATOM      3  C   LIG    1        2.393   5.151   0.499  0.00  0.00    +0.520 C 
ATOM      4  O   LIG    1        1.411   5.619   1.037  0.00  0.00    -0.500 OA
ENDROOT
BRANCH   1  10
ATOM      5  C   LIG    1        1.170   1.789  -0.013  0.00  0.00    +0.100 A 
ATOM      6  C   LIG    1       -0.022   1.084  -0.016  0.00  0.00    -0.050 A 
ATOM      7  C   LIG    1       -1.227   1.763  -0.013  0.00  0.00    +0.030 A 
ATOM      8  C   LIG    1       -1.246   3.145   0.004  0.00  0.00    -0.080 A 
ATOM      9  C   LIG    1       -0.060   3.856   0.006  0.00  0.00    +0.060 A 
ATOM     10  C   LIG    1        1.152   3.182  -0.002  0.00  0.00    +0.120 A 
BRANCH   8  11
ATOM     11  C   LIG    1       -2.562   3.879   0.013  0.00  0.00    -0.020 C 
ATOM     12  C   LIG    1       -2.652   4.747   1.270  0.00  0.00    +0.040 C 
ATOM     13  C   LIG    1       -3.710   2.868   0.008  0.00  0.00    +0.030 C 
ATOM     14  C   LIG    1       -2.659   4.768  -1.229  0.00  0.00    +0.040 C 
ENDBRANCH   8  11
BRANCH   5  16
ATOM     15  C   LIG    1        2.297  -0.305  -0.032  0.00  0.00    +0.250 C 
ATOM     16  O   LIG    1        2.356   1.122  -0.021  0.00  0.00    -0.320 OA
ENDBRANCH   5  16
ENDBRANCH   1  10
BRANCH   3  17
ATOM     17  C   LIG    1        3.653   5.969   0.389  0.00  0.00    +0.270 C 
BRANCH  17  18
ATOM     18  O   LIG    1        3.441   7.271   0.997  0.00  0.00    -0.340 OA
BRANCH  18  19
ATOM     19  C   LIG    1        4.479   8.131   0.982  0.00  0.00    +0.540 C 
ATOM     20  O   LIG    1        5.534   7.801   0.475  0.00  0.00    -0.490 OA
BRANCH  19  21
ATOM     21  C   LIG    1        4.337   9.463   1.578  0.00  0.00    -0.050 A 
ATOM     22  C   LIG    1        5.306  10.420   1.634  0.00  0.00    +0.130 A 
ATOM     23  C   LIG    1        4.742  11.542   2.286  0.00  0.00    -0.270 A 
ATOM     24  C   LIG    1        3.437  11.208   2.611  0.00  0.00    +0.300 A 
ATOM     25  N   LIG    1        3.201   9.959   2.183  0.00  0.00    -0.510 N 
ATOM     26  H   LIG    1        2.364   9.480   2.283  0.00  0.00    +0.430 HD
BRANCH  23  27
ATOM     27  C   LIG    1        5.413  12.815   2.570  0.00  0.00    +0.420 C 
ATOM     28  O   LIG    1        6.566  12.981   2.231  0.00  0.00    -0.460 OA
ATOM     29  C   LIG    1        4.671  13.916   3.282  0.00  0.00    +0.060 C 
ENDBRANCH  23  27
ENDBRANCH  19  21
ENDBRANCH  18  19
ENDBRANCH  17  18
ENDBRANCH   3  17
TORSDOF 8
