REMARK  Name = ZINCkj000005kD7p.1
REMARK                            x       y       z     vdW  Elec       q    Type
REMARK                         _______ _______ _______ _____ _____    ______ ____
ROOT
ATOM      1  C   LIG    1        3.109  -1.818  -0.138  0.00  0.00    +0.530 C 
ATOM      2  O   LIG    1        3.878  -0.877  -0.140  0.00  0.00    -0.530 OA
ENDROOT
BRANCH   1   9
ATOM      3  C   LIG    1        1.729   3.243  -0.001  0.00  0.00    +0.300 C 
ATOM      4  C   LIG    1        1.269   1.808  -0.007  0.00  0.00    +0.480 C 
ATOM      5  N   LIG    1        2.055   0.762  -0.013  0.00  0.00    -0.560 N 
ATOM      6  C   LIG    1        1.325  -0.363  -0.017  0.00  0.00    +0.630 C 
ATOM      7  N   LIG    1        0.002  -0.005  -0.015  0.00  0.00    -0.370 N 
ATOM      8  C   LIG    1       -1.156  -0.903  -0.018  0.00  0.00    +0.460 C 
ATOM      9  N   LIG    1        1.801  -1.607  -0.024  0.00  0.00    -0.590 NA
ATOM     10  H   LIG    1        3.024   0.796  -0.013  0.00  0.00    +0.480 HD
ATOM     11  N   LIG    1       -0.018   1.400  -0.008  0.00  0.00    -0.410 NA
ATOM     12  H   LIG    1       -0.805   1.968  -0.008  0.00  0.00    +0.490 HD
ENDBRANCH   1   9
BRANCH   1  13
ATOM     13  C   LIG    1        3.637  -3.224  -0.264  0.00  0.00    +0.250 C 
ATOM     14  O   LIG    1        5.064  -3.195  -0.247  0.00  0.00    -0.350 OA
ATOM     15  C   LIG    1        5.656  -4.465  -0.540  0.00  0.00    +0.230 C 
ATOM     16  C   LIG    1        5.433  -4.769  -2.023  0.00  0.00    +0.060 C 
ATOM     17  C   LIG    1        3.982  -4.555  -2.374  0.00  0.00    -0.060 A 
ATOM     18  C   LIG    1        3.493  -5.101  -3.549  0.00  0.00    +0.010 A 
ATOM     19  C   LIG    1        2.171  -4.917  -3.906  0.00  0.00    +0.030 A 
ATOM     20  C   LIG    1        1.334  -4.185  -3.086  0.00  0.00    +0.000 A 
ATOM     21  C   LIG    1        1.820  -3.641  -1.913  0.00  0.00    +0.030 A 
ATOM     22  C   LIG    1        3.145  -3.827  -1.554  0.00  0.00    -0.130 A 
ENDBRANCH   1  13
TORSDOF 2
