REMARK  Name = ZINCrD0000074klX.0
REMARK                            x       y       z     vdW  Elec       q    Type
REMARK                         _______ _______ _______ _____ _____    ______ ____
ROOT
ATOM      1  O   LIG    1        2.490  -0.289  -0.026  0.00  0.00    -0.330 OA
ENDROOT
BRANCH   1   2
ATOM      2  C   LIG    1        2.480   1.059  -0.025  0.00  0.00    +0.520 C 
ATOM      3  O   LIG    1        3.527   1.674  -0.041  0.00  0.00    -0.510 OA
BRANCH   2   9
ATOM      4  C   LIG    1       -2.572   6.578   0.053  0.00  0.00    +0.150 C 
ATOM      5  C   LIG    1       -1.750   5.315   0.039  0.00  0.00    +0.070 A 
ATOM      6  C   LIG    1       -0.409   5.270   0.019  0.00  0.00    -0.160 A 
ATOM      7  C   LIG    1       -0.030   3.854   0.013  0.00  0.00    -0.120 A 
ATOM      8  C   LIG    1        1.187   3.179  -0.006  0.00  0.00    +0.150 A 
ATOM      9  C   LIG    1        1.197   1.787  -0.006  0.00  0.00    -0.160 A 
ATOM     10  C   LIG    1       -0.012   1.076   0.013  0.00  0.00    +0.100 A 
ATOM     11  C   LIG    1       -1.206   1.735   0.025  0.00  0.00    -0.010 A 
ATOM     12  C   LIG    1       -1.238   3.128   0.032  0.00  0.00    +0.130 A 
ATOM     13  C   LIG    1        0.528   6.450   0.004  0.00  0.00    +0.130 C 
ATOM     14  N   LIG    1       -2.261   4.046   0.047  0.00  0.00    -0.590 N 
ATOM     15  H   LIG    1       -3.205   3.826   0.062  0.00  0.00    +0.420 HD
ENDBRANCH   2   9
ENDBRANCH   1   2
BRANCH   1  16
ATOM     16  C   LIG    1        3.788  -0.938  -0.046  0.00  0.00    +0.270 C 
BRANCH  16  17
ATOM     17  C   LIG    1        3.602  -2.434  -0.043  0.00  0.00    +0.520 C 
ATOM     18  N   LIG    1        4.676  -3.247  -0.060  0.00  0.00    -0.670 N 
ATOM     19  H   LIG    1        5.567  -2.872  -0.141  0.00  0.00    +0.420 HD
ATOM     20  O   LIG    1        2.484  -2.906  -0.026  0.00  0.00    -0.490 OA
BRANCH  18  21
ATOM     21  C   LIG    1        4.507  -4.634   0.040  0.00  0.00    +0.150 A 
ATOM     22  C   LIG    1        3.404  -5.242  -0.544  0.00  0.00    +0.050 A 
ATOM     23  C   LIG    1        3.236  -6.611  -0.447  0.00  0.00    +0.060 A 
ATOM     24  C   LIG    1        4.166  -7.379   0.234  0.00  0.00    +0.020 A 
ATOM     25  O   LIG    1        4.231  -8.723   0.469  0.00  0.00    -0.310 OA
ATOM     26  C   LIG    1        5.167  -8.879   1.552  0.00  0.00    +0.430 C 
ATOM     27  O   LIG    1        6.031  -7.733   1.425  0.00  0.00    -0.310 OA
ATOM     28  C   LIG    1        5.274  -6.771   0.822  0.00  0.00    +0.050 A 
ATOM     29  C   LIG    1        5.444  -5.401   0.719  0.00  0.00    +0.020 A 
ENDBRANCH  18  21
ENDBRANCH  16  17
ENDBRANCH   1  16
TORSDOF 5
