REMARK  Name = ZINCrg000000p2ij.0
REMARK                            x       y       z     vdW  Elec       q    Type
REMARK                         _______ _______ _______ _____ _____    ______ ____
ROOT
ATOM      1  C   LIG    1        1.642   2.668   2.637  0.00  0.00    +0.290 C 
ATOM      2  N   LIG    1        0.692   2.398   1.555  0.00  0.00    -0.610 N 
ATOM      3  C   LIG    1       -0.578   2.840   1.648  0.00  0.00    +0.540 C 
ATOM      4  O   LIG    1       -1.389   2.534   0.800  0.00  0.00    -0.480 OA
ENDROOT
BRANCH   3   5
ATOM      5  C   LIG    1       -0.989   3.713   2.805  0.00  0.00    -0.080 C 
ATOM      6  C   LIG    1       -2.410   4.286   2.590  0.00  0.00    +0.120 C 
ATOM      7  C   LIG    1       -2.186   5.632   1.938  0.00  0.00    -0.010 C 
ATOM      8  C   LIG    1       -0.950   6.024   2.082  0.00  0.00    -0.030 C 
ATOM      9  C   LIG    1       -0.142   5.006   2.853  0.00  0.00    +0.110 C 
BRANCH   5  10
ATOM     10  C   LIG    1       -0.901   2.959   4.106  0.00  0.00    +0.490 C 
ATOM     11  O   LIG    1       -0.262   3.413   5.026  0.00  0.00    -0.490 OA
BRANCH  10  12
ATOM     12  O   LIG    1       -1.532   1.783   4.245  0.00  0.00    -0.340 OA
BRANCH  12  13
ATOM     13  C   LIG    1       -1.403   1.112   5.526  0.00  0.00    +0.120 C 
ATOM     14  C   LIG    1        0.073   0.821   5.803  0.00  0.00    +0.040 C 
ATOM     15  C   LIG    1       -2.185  -0.203   5.494  0.00  0.00    +0.080 C 
ATOM     16  C   LIG    1       -1.962   2.010   6.631  0.00  0.00    +0.040 C 
ENDBRANCH  12  13
ENDBRANCH  10  12
ENDBRANCH   5  10
ENDBRANCH   3   5
BRANCH   2  17
ATOM     17  C   LIG    1        1.123   1.649   0.373  0.00  0.00    +0.440 C 
BRANCH  17  18
ATOM     18  C   LIG    1        0.894   0.176   0.600  0.00  0.00    +0.180 A 
ATOM     19  N   LIG    1       -0.196  -0.493   0.307  0.00  0.00    -0.240 NA
ATOM     20  N   LIG    1       -0.054  -1.731   0.633  0.00  0.00    -0.200 NA
ATOM     21  C   LIG    1        1.140  -1.909   1.151  0.00  0.00    +0.100 A 
ATOM     22  C   LIG    1        1.860  -3.070   1.692  0.00  0.00    +0.600 A 
ATOM     23  N   LIG    1        3.121  -2.890   2.144  0.00  0.00    -0.640 N 
ATOM     24  H   LIG    1        3.617  -3.643   2.503  0.00  0.00    +0.430 HD
ATOM     25  C   LIG    1        3.704  -1.638   2.105  0.00  0.00    +0.290 A 
ATOM     26  C   LIG    1        3.062  -0.581   1.622  0.00  0.00    +0.140 A 
ATOM     27  O   LIG    1        1.338  -4.169   1.721  0.00  0.00    -0.470 OA
ATOM     28  N   LIG    1        1.772  -0.690   1.135  0.00  0.00    -0.380 N 
ENDBRANCH  17  18
ENDBRANCH   2  17
TORSDOF 6
