REMARK  Name = ZINCtV000002CYi3.0
REMARK                            x       y       z     vdW  Elec       q    Type
REMARK                         _______ _______ _______ _____ _____    ______ ____
ROOT
ATOM      1  C   LIG    1        6.457  -3.794  -0.738  0.00  0.00    +0.540 C 
ATOM      2  N   LIG    1        6.260  -4.728  -1.690  0.00  0.00    -0.610 N 
ATOM      3  H   LIG    1        5.429  -4.743  -2.190  0.00  0.00    +0.430 HD
ATOM      4  O   LIG    1        7.496  -3.775  -0.113  0.00  0.00    -0.480 OA
ENDROOT
BRANCH   2   5
ATOM      5  C   LIG    1        7.248  -5.669  -1.954  0.00  0.00    +0.270 A 
ATOM      6  N   LIG    1        7.168  -6.610  -2.843  0.00  0.00    -0.500 NA
ATOM      7  C   LIG    1        8.211  -7.419  -2.959  0.00  0.00    +0.120 A 
ATOM      8  C   LIG    1        9.236  -7.160  -2.128  0.00  0.00    -0.100 A 
ATOM      9  S   LIG    1        8.806  -5.766  -1.140  0.00  0.00    +0.220 S 
BRANCH   7  10
ATOM     10  C   LIG    1        8.245  -8.534  -3.937  0.00  0.00    -0.000 A 
ATOM     11  C   LIG    1        9.369  -9.353  -4.024  0.00  0.00    +0.060 A 
ATOM     12  C   LIG    1        9.395 -10.393  -4.931  0.00  0.00    +0.030 A 
ATOM     13  C   LIG    1        8.312 -10.616  -5.764  0.00  0.00    +0.070 A 
ATOM     14  C   LIG    1        7.192  -9.800  -5.686  0.00  0.00    +0.070 A 
ATOM     15  F   LIG    1        6.138 -10.021  -6.501  0.00  0.00    -0.130 F 
ATOM     16  F   LIG    1        8.344 -11.632  -6.654  0.00  0.00    -0.130 F 
ATOM     17  C   LIG    1        7.156  -8.760  -4.777  0.00  0.00    +0.060 A 
ENDBRANCH   7  10
ENDBRANCH   2   5
BRANCH   1  19
ATOM     18  C   LIG    1        4.377  -3.358   0.539  0.00  0.00    +0.090 C 
ATOM     19  C   LIG    1        5.386  -2.773  -0.451  0.00  0.00    +0.020 C 
BRANCH  19  20
ATOM     20  S   LIG    1        6.141  -1.291   0.262  0.00  0.00    +0.080 S 
BRANCH  20  21
ATOM     21  C   LIG    1        4.729  -0.241   0.352  0.00  0.00    +0.140 C 
ATOM     22  N   LIG    1        3.573  -0.682  -0.058  0.00  0.00    -0.480 NA
ATOM     23  C   LIG    1        2.413   0.030  -0.026  0.00  0.00    +0.100 A 
ATOM     24  C   LIG    1        1.202  -0.679  -0.016  0.00  0.00    +0.050 A 
ATOM     25  C   LIG    1        0.002  -0.004   0.002  0.00  0.00    +0.020 A 
ATOM     26  C   LIG    1       -0.017   1.379   0.010  0.00  0.00    +0.020 A 
ATOM     27  C   LIG    1        1.171   2.087   0.002  0.00  0.00    +0.040 A 
ATOM     28  C   LIG    1        2.382   1.423  -0.013  0.00  0.00    -0.120 A 
ATOM     29  C   LIG    1        3.653   2.234  -0.013  0.00  0.00    +0.170 C 
ATOM     30  S   LIG    1        4.897   1.390   0.996  0.00  0.00    -0.080 S 
ENDBRANCH  20  21
ENDBRANCH  19  20
ENDBRANCH   1  19
TORSDOF 5
