REMARK  Name = ZINC4a0000002sEs.0
REMARK                            x       y       z     vdW  Elec       q    Type
REMARK                         _______ _______ _______ _____ _____    ______ ____
ROOT
ATOM      1  C   LIG    1        0.002  -0.004   0.002  0.00  0.00    +0.130 C 
ATOM      2  C   LIG    1       -0.018   1.503   0.010  0.00  0.00    +0.210 C 
ATOM      3  N   LIG    1       -1.135   2.127   0.019  0.00  0.00    -0.340 NA
ENDROOT
BRANCH   3   4
ATOM      4  O   LIG    1       -1.154   3.543   0.027  0.00  0.00    -0.420 OA
ATOM      5  H   LIG    1       -2.043   3.925   0.033  0.00  0.00    +0.410 HD
ENDBRANCH   3   4
TORSDOF 1
