REMARK  Name = ZINCnE00000keR5v.0
REMARK                            x       y       z     vdW  Elec       q    Type
REMARK                         _______ _______ _______ _____ _____    ______ ____
ROOT
ATOM      1  N   LIG    1       -1.058  -1.956  -0.975  0.00  0.00    -0.720 N 
ATOM      2  H   LIG    1       -0.169  -2.243  -1.237  0.00  0.00    +0.410 HD
ATOM      3  C   LIG    1       -2.142  -2.545  -1.517  0.00  0.00    +0.560 C 
ATOM      4  O   LIG    1       -3.257  -2.186  -1.188  0.00  0.00    -0.540 OA
ENDROOT
BRANCH   3   5
ATOM      5  C   LIG    1       -1.978  -3.619  -2.502  0.00  0.00    -0.120 C 
ATOM      6  C   LIG    1       -3.062  -4.208  -3.043  0.00  0.00    +0.140 C 
BRANCH   6   7
ATOM      7  C   LIG    1       -2.897  -5.287  -4.032  0.00  0.00    -0.100 A 
ATOM      8  C   LIG    1       -1.615  -5.696  -4.414  0.00  0.00    +0.010 A 
ATOM      9  C   LIG    1       -1.462  -6.707  -5.336  0.00  0.00    +0.040 A 
ATOM     10  C   LIG    1       -2.587  -7.318  -5.897  0.00  0.00    -0.110 A 
ATOM     11  C   LIG    1       -3.868  -6.906  -5.519  0.00  0.00    +0.040 A 
ATOM     12  C   LIG    1       -4.023  -5.899  -4.595  0.00  0.00    +0.010 A 
BRANCH  10  13
ATOM     13  C   LIG    1       -2.422  -8.398  -6.889  0.00  0.00    +0.520 C 
ATOM     14  O   LIG    1       -1.301  -8.759  -7.220  0.00  0.00    -0.680 OA
ATOM     15  O   LIG    1       -3.406  -8.933  -7.380  0.00  0.00    -0.680 OA
ENDBRANCH  10  13
ENDBRANCH   6   7
ENDBRANCH   3   5
BRANCH   1  16
ATOM     16  C   LIG    1       -1.222  -0.883   0.009  0.00  0.00    +0.340 C 
BRANCH  16  17
ATOM     17  C   LIG    1        0.002  -0.004   0.002  0.00  0.00    +0.030 A 
ATOM     18  N   LIG    1        1.219  -0.432  -0.012  0.00  0.00    -0.460 NA
ATOM     19  C   LIG    1        2.175   0.474  -0.016  0.00  0.00    +0.210 A 
ATOM     20  C   LIG    1        1.740   1.738  -0.005  0.00  0.00    -0.220 A 
ATOM     21  C   LIG    1        2.604   2.973  -0.007  0.00  0.00    +0.150 C 
ATOM     22  S   LIG    1       -0.021   1.706   0.011  0.00  0.00    +0.140 S 
ENDBRANCH  16  17
BRANCH  16  24
ATOM     23  C   LIG    1       -2.713  -2.283   1.443  0.00  0.00    +0.020 C 
ATOM     24  C   LIG    1       -1.405  -1.492   1.401  0.00  0.00    +0.020 C 
ENDBRANCH  16  24
ENDBRANCH   1  16
TORSDOF 6
