REMARK  Name = ZINCrD00000hQ656.0
REMARK                            x       y       z     vdW  Elec       q    Type
REMARK                         _______ _______ _______ _____ _____    ______ ____
ROOT
ATOM      1  C   LIG    1       -0.641   0.719   2.425  0.00  0.00    +0.550 C 
ATOM      2  N   LIG    1       -1.258   1.017   3.586  0.00  0.00    -0.620 N 
ATOM      3  C   LIG    1       -2.119   2.181   3.851  0.00  0.00    +0.270 C 
ATOM      4  C   LIG    1       -3.157   1.721   4.892  0.00  0.00    -0.080 C 
ATOM      5  C   LIG    1       -3.215   2.758   6.033  0.00  0.00    +0.280 C 
ATOM      6  N   LIG    1       -3.244   1.951   7.274  0.00  0.00    -0.620 N 
ATOM      7  C   LIG    1       -2.297   0.843   7.012  0.00  0.00    +0.280 C 
ATOM      8  C   LIG    1       -3.968   2.173   8.389  0.00  0.00    +0.530 C 
ATOM      9  O   LIG    1       -3.882   1.414   9.330  0.00  0.00    -0.530 OA
ATOM     10  C   LIG    1       -4.537   1.455   4.286  0.00  0.00    +0.060 C 
ATOM     11  C   LIG    1       -2.548   0.451   5.541  0.00  0.00    -0.080 C 
ATOM     12  C   LIG    1       -3.453  -0.777   5.420  0.00  0.00    +0.050 C 
ATOM     13  C   LIG    1       -1.197   0.245   4.838  0.00  0.00    +0.270 C 
ATOM     14  O   LIG    1        0.049  -0.275   2.342  0.00  0.00    -0.530 OA
ENDROOT
BRANCH   1  18
ATOM     15  C   LIG    1       -0.889   0.580  -2.295  0.00  0.00    +0.030 C 
ATOM     16  C   LIG    1       -0.827   1.631  -1.185  0.00  0.00    +0.170 C 
ATOM     17  C   LIG    1       -0.013   1.086   0.008  0.00  0.00    +0.050 C 
ATOM     18  C   LIG    1       -0.809   1.621   1.229  0.00  0.00    -0.040 C 
ATOM     19  C   LIG    1       -2.261   1.562   0.675  0.00  0.00    +0.220 C 
ATOM     20  O   LIG    1       -2.149   1.916  -0.712  0.00  0.00    -0.370 OA
ENDBRANCH   1  18
BRANCH   8  21
ATOM     21  C   LIG    1       -4.886   3.366   8.465  0.00  0.00    +0.040 C 
BRANCH  21  22
ATOM     22  C   LIG    1       -5.584   3.386   9.826  0.00  0.00    +0.030 C 
BRANCH  22  23
ATOM     23  C   LIG    1       -6.516   4.598   9.904  0.00  0.00    +0.010 C 
BRANCH  23  24
ATOM     24  C   LIG    1       -7.214   4.617  11.265  0.00  0.00    -0.070 C 
ATOM     25  C   LIG    1       -8.030   3.335  11.439  0.00  0.00    +0.010 C 
ATOM     26  C   LIG    1       -8.145   5.829  11.343  0.00  0.00    +0.010 C 
ATOM     27  C   LIG    1       -6.165   4.708  12.376  0.00  0.00    +0.010 C 
ENDBRANCH  23  24
ENDBRANCH  22  23
ENDBRANCH  21  22
ENDBRANCH   8  21
TORSDOF 5
