REMARK  Name = ZINCrD00000F5LBj.0
REMARK                            x       y       z     vdW  Elec       q    Type
REMARK                         _______ _______ _______ _____ _____    ______ ____
ROOT
ATOM      1  N   LIG    1        2.160  -2.085   1.415  0.00  0.00    -0.510 NA
ENDROOT
BRANCH   1   2
ATOM      2  C   LIG    1        2.549  -3.489   1.600  0.00  0.00    +0.270 C 
BRANCH   2   6
ATOM      3  N   LIG    1        2.335  -4.340   5.157  0.00  0.00    -0.370 N 
ATOM      4  C   LIG    1        3.636  -3.991   5.084  0.00  0.00    +0.220 A 
ATOM      5  C   LIG    1        3.899  -3.643   3.803  0.00  0.00    -0.240 A 
ATOM      6  C   LIG    1        2.715  -3.776   3.070  0.00  0.00    +0.090 A 
ATOM      7  C   LIG    1        5.230  -3.191   3.262  0.00  0.00    +0.100 C 
ATOM      8  N   LIG    1        1.777  -4.197   3.880  0.00  0.00    -0.270 NA
BRANCH   3  10
ATOM      9  C   LIG    1        0.401  -3.907   6.591  0.00  0.00    +0.040 C 
ATOM     10  C   LIG    1        1.629  -4.790   6.360  0.00  0.00    +0.300 C 
ENDBRANCH   3  10
ENDBRANCH   2   6
ENDBRANCH   1   2
BRANCH   1  11
ATOM     11  C   LIG    1        3.242  -1.181   1.827  0.00  0.00    +0.210 C 
BRANCH  11  12
ATOM     12  C   LIG    1        2.672   0.217   2.075  0.00  0.00    +0.110 C 
ATOM     13  C   LIG    1        2.553   1.069   0.799  0.00  0.00    -0.000 C 
ATOM     14  C   LIG    1        3.034   2.260   1.644  0.00  0.00    +0.000 C 
ATOM     15  C   LIG    1        3.720   1.233   2.560  0.00  0.00    -0.010 C 
BRANCH  12  16
ATOM     16  O   LIG    1        1.482   0.200   2.866  0.00  0.00    -0.330 OA
ATOM     17  C   LIG    1        0.928   1.494   3.112  0.00  0.00    +0.190 C 
ENDBRANCH  12  16
ENDBRANCH  11  12
ENDBRANCH   1  11
BRANCH   1  18
ATOM     18  C   LIG    1        1.760  -1.827   0.025  0.00  0.00    +0.250 C 
BRANCH  18  19
ATOM     19  C   LIG    1        0.489  -2.579  -0.279  0.00  0.00    -0.170 A 
ATOM     20  C   LIG    1       -0.759  -2.222   0.103  0.00  0.00    +0.100 A 
ATOM     21  N   LIG    1       -1.640  -3.145  -0.358  0.00  0.00    -0.420 N 
ATOM     22  C   LIG    1       -0.944  -4.111  -1.048  0.00  0.00    +0.040 A 
ATOM     23  C   LIG    1       -3.091  -3.119  -0.156  0.00  0.00    +0.320 C 
ATOM     24  C   LIG    1       -1.113  -0.999   0.910  0.00  0.00    +0.140 C 
ATOM     25  C   LIG    1        0.391  -3.770  -1.007  0.00  0.00    +0.050 A 
BRANCH  22  26
ATOM     26  C   LIG    1       -1.505  -5.258  -1.696  0.00  0.00    +0.280 C 
ATOM     27  N   LIG    1       -1.950  -6.168  -2.211  0.00  0.00    -0.410 NA
ENDBRANCH  22  26
ENDBRANCH  18  19
ENDBRANCH   1  18
TORSDOF 9
