REMARK  Name = ZINCrH000004sfd0.0
REMARK                            x       y       z     vdW  Elec       q    Type
REMARK                         _______ _______ _______ _____ _____    ______ ____
ROOT
ATOM      1  C   LIG    1        4.364   5.005  -3.593  0.00  0.00    +0.200 C 
ATOM      2  C   LIG    1        3.860   6.234  -2.829  0.00  0.00    +0.080 C 
ATOM      3  C   LIG    1        3.539   5.835  -1.387  0.00  0.00    +0.290 C 
ATOM      4  N   LIG    1        2.503   4.795  -1.382  0.00  0.00    -0.370 N 
ATOM      5  C   LIG    1        3.007   3.589  -2.049  0.00  0.00    +0.260 C 
ATOM      6  H   LIG    1        1.687   5.132  -1.871  0.00  0.00    +0.430 HD
ATOM      7  C   LIG    1        3.306   3.900  -3.517  0.00  0.00    +0.050 C 
ENDROOT
BRANCH   1   8
ATOM      8  O   LIG    1        4.596   5.354  -4.959  0.00  0.00    -0.270 OA
BRANCH   8  13
ATOM      9  C   LIG    1        8.578   2.572  -7.619  0.00  0.00    +0.120 C 
ATOM     10  C   LIG    1        7.495   3.329  -6.895  0.00  0.00    -0.230 A 
ATOM     11  C   LIG    1        6.767   4.316  -7.542  0.00  0.00    +0.370 A 
ATOM     12  N   LIG    1        5.822   4.961  -6.876  0.00  0.00    -0.520 NA
ATOM     13  C   LIG    1        5.570   4.673  -5.610  0.00  0.00    +0.490 A 
ATOM     14  N   LIG    1        6.250   3.741  -4.962  0.00  0.00    -0.570 NA
ATOM     15  C   LIG    1        7.204   3.054  -5.568  0.00  0.00    +0.360 A 
ENDBRANCH   8  13
ENDBRANCH   1   8
BRANCH   4  16
ATOM     16  C   LIG    1        2.143   4.472   0.005  0.00  0.00    +0.350 C 
BRANCH  16  17
ATOM     17  C   LIG    1        0.993   3.498   0.011  0.00  0.00    -0.160 A 
ATOM     18  C   LIG    1       -0.284   3.901   0.025  0.00  0.00    -0.150 A 
ATOM     19  S   LIG    1       -1.369   2.521   0.021  0.00  0.00    +0.190 S 
ATOM     20  C   LIG    1       -0.017   1.395   0.010  0.00  0.00    -0.170 A 
ATOM     21  C   LIG    1        0.002  -0.004   0.002  0.00  0.00    +0.060 A 
ATOM     22  C   LIG    1        1.199  -0.679  -0.013  0.00  0.00    +0.020 A 
ATOM     23  C   LIG    1        2.398   0.024  -0.020  0.00  0.00    +0.020 A 
ATOM     24  C   LIG    1        2.405   1.384  -0.013  0.00  0.00    +0.010 A 
ATOM     25  C   LIG    1        1.189   2.108   0.002  0.00  0.00    -0.060 A 
BRANCH  18  26
ATOM     26  C   LIG    1       -0.717   5.301   0.036  0.00  0.00    +0.540 C 
ATOM     27  O   LIG    1       -1.910   5.573   0.049  0.00  0.00    -0.640 OA
ATOM     28  O   LIG    1        0.116   6.199   0.033  0.00  0.00    -0.670 OA
ENDBRANCH  18  26
ENDBRANCH  16  17
ENDBRANCH   4  16
TORSDOF 5
