REMARK  Name = ZINCpk00000ebBA0.2
REMARK                            x       y       z     vdW  Elec       q    Type
REMARK                         _______ _______ _______ _____ _____    ______ ____
ROOT
ATOM      1  C   LIG    1        1.872   4.890  -1.895  0.00  0.00    +0.290 C 
ENDROOT
BRANCH   1   2
ATOM      2  C   LIG    1        2.246   3.627  -1.116  0.00  0.00    +0.120 C 
ATOM      3  C   LIG    1        1.197   3.328  -0.013  0.00  0.00    +0.060 C 
ATOM      4  C   LIG    1        1.355   1.807   0.208  0.00  0.00    +0.160 C 
ATOM      5  C   LIG    1        2.003   1.275  -1.083  0.00  0.00    +0.150 C 
ATOM      6  N   LIG    1        2.170   2.430  -1.992  0.00  0.00    -0.490 NA
BRANCH   4   7
ATOM      7  O   LIG    1        0.077   1.199   0.408  0.00  0.00    -0.560 OA
ATOM      8  H   LIG    1        0.112   0.241   0.531  0.00  0.00    +0.380 HD
ENDBRANCH   4   7
BRANCH   6   9
ATOM      9  C   LIG    1        3.389   2.291  -2.801  0.00  0.00    +0.260 C 
BRANCH   9  10
ATOM     10  C   LIG    1        4.599   2.402  -1.910  0.00  0.00    -0.120 A 
ATOM     11  C   LIG    1        5.176   3.637  -1.679  0.00  0.00    +0.010 A 
ATOM     12  C   LIG    1        6.283   3.740  -0.857  0.00  0.00    +0.000 A 
ATOM     13  C   LIG    1        6.819   2.606  -0.275  0.00  0.00    +0.000 A 
ATOM     14  C   LIG    1        6.245   1.371  -0.510  0.00  0.00    +0.000 A 
ATOM     15  C   LIG    1        5.134   1.269  -1.327  0.00  0.00    +0.010 A 
ENDBRANCH   9  10
ENDBRANCH   6   9
ENDBRANCH   1   2
BRANCH   1  18
ATOM     16  O   LIG    1        1.215   7.412  -2.590  0.00  0.00    -0.520 OA
ATOM     17  C   LIG    1        1.700   7.285  -1.482  0.00  0.00    +0.560 C 
ATOM     18  N   LIG    1        2.063   6.064  -1.040  0.00  0.00    -0.730 N 
ATOM     19  H   LIG    1        2.450   5.964  -0.157  0.00  0.00    +0.400 HD
BRANCH  17  20
ATOM     20  C   LIG    1        1.892   8.466  -0.623  0.00  0.00    -0.180 A 
ATOM     21  C   LIG    1        2.444   8.323   0.654  0.00  0.00    +0.080 A 
ATOM     22  C   LIG    1        2.626   9.430   1.452  0.00  0.00    -0.020 A 
ATOM     23  C   LIG    1        2.252  10.690   0.997  0.00  0.00    +0.150 A 
ATOM     24  C   LIG    1        1.698  10.843  -0.266  0.00  0.00    -0.040 A 
ATOM     25  C   LIG    1        1.515   9.739  -1.080  0.00  0.00    +0.190 A 
BRANCH  23  26
ATOM     26  O   LIG    1        2.429  11.775   1.792  0.00  0.00    -0.490 OA
ATOM     27  H   LIG    1        1.674  11.973   2.363  0.00  0.00    +0.400 HD
ENDBRANCH  23  26
BRANCH  25  28
ATOM     28  O   LIG    1        0.974   9.886  -2.315  0.00  0.00    -0.470 OA
ATOM     29  H   LIG    1        0.010   9.811  -2.334  0.00  0.00    +0.400 HD
ENDBRANCH  25  28
ENDBRANCH  17  20
ENDBRANCH   1  18
TORSDOF 8
