REMARK  Name = ZINCrg00000SjSm0.0
REMARK                            x       y       z     vdW  Elec       q    Type
REMARK                         _______ _______ _______ _____ _____    ______ ____
ROOT
ATOM      1  C   LIG    1       -5.323  -1.030   0.079  0.00  0.00    +0.060 C 
ATOM      2  C   LIG    1       -4.613   0.285   0.406  0.00  0.00    -0.010 C 
ATOM      3  C   LIG    1       -3.129   0.179   0.022  0.00  0.00    +0.300 C 
ATOM      4  N   LIG    1       -2.569   1.534   0.024  0.00  0.00    -0.430 N 
ATOM      5  C   LIG    1       -3.310   2.677   0.033  0.00  0.00    +0.480 A 
ATOM      6  N   LIG    1       -4.688   2.712   0.042  0.00  0.00    -0.440 N 
ATOM      7  N   LIG    1       -2.497   3.713   0.044  0.00  0.00    -0.510 NA
ATOM      8  C   LIG    1       -1.228   3.300   0.030  0.00  0.00    +0.340 A 
ATOM      9  N   LIG    1       -0.009   3.959   0.021  0.00  0.00    -0.510 N 
ATOM     10  C   LIG    1        0.030   5.423   0.028  0.00  0.00    +0.350 C 
ATOM     11  C   LIG    1        1.139   3.255   0.008  0.00  0.00    +0.710 A 
ATOM     12  O   LIG    1        2.199   3.850   0.001  0.00  0.00    -0.530 OA
ATOM     13  N   LIG    1        1.141   1.911   0.001  0.00  0.00    -0.550 N 
ATOM     14  C   LIG    1       -0.015   1.214   0.009  0.00  0.00    +0.600 A 
ATOM     15  O   LIG    1        0.002  -0.004   0.002  0.00  0.00    -0.520 OA
ATOM     16  C   LIG    1       -1.238   1.908   0.018  0.00  0.00    -0.160 A 
ATOM     17  C   LIG    1       -5.247   1.426  -0.398  0.00  0.00    +0.210 C 
ENDROOT
BRANCH   6  18
ATOM     18  C   LIG    1       -5.192   3.815  -0.786  0.00  0.00    +0.210 C 
ATOM     19  C   LIG    1       -6.720   3.762  -0.832  0.00  0.00    +0.030 C 
ATOM     20  C   LIG    1       -7.245   4.911  -1.694  0.00  0.00    +0.020 C 
ATOM     21  C   LIG    1       -6.688   4.780  -3.113  0.00  0.00    +0.010 C 
ATOM     22  C   LIG    1       -5.160   4.833  -3.068  0.00  0.00    +0.020 C 
ATOM     23  C   LIG    1       -4.635   3.684  -2.205  0.00  0.00    -0.020 C 
ENDBRANCH   6  18
BRANCH  13  24
ATOM     24  C   LIG    1        2.417   1.192  -0.013  0.00  0.00    +0.330 C 
BRANCH  24  25
ATOM     25  C   LIG    1        2.848   0.947  -1.460  0.00  0.00    +0.020 C 
BRANCH  25  26
ATOM     26  C   LIG    1        4.181   0.196  -1.475  0.00  0.00    +0.180 C 
BRANCH  26  27
ATOM     27  O   LIG    1        4.584  -0.032  -2.827  0.00  0.00    -0.570 OA
ATOM     28  H   LIG    1        5.423  -0.505  -2.913  0.00  0.00    +0.380 HD
ENDBRANCH  26  27
ENDBRANCH  25  26
ENDBRANCH  24  25
ENDBRANCH  13  24
TORSDOF 5
