REMARK  Name = ZINCnE000005s6WP.1
REMARK                            x       y       z     vdW  Elec       q    Type
REMARK                         _______ _______ _______ _____ _____    ______ ____
ROOT
ATOM      1  N   LIG    1       -2.754   1.072   1.356  0.00  0.00    -0.620 N 
ATOM      2  C   LIG    1       -2.199  -0.109   1.693  0.00  0.00    +0.650 C 
ATOM      3  N   LIG    1       -2.491  -0.677   2.880  0.00  0.00    -0.660 NA
ATOM      4  O   LIG    1       -1.435  -0.663   0.926  0.00  0.00    -0.650 OA
ENDROOT
BRANCH   3   5
ATOM      5  C   LIG    1       -1.920  -1.893   3.226  0.00  0.00    +0.290 A 
ATOM      6  C   LIG    1       -2.111  -2.587   4.386  0.00  0.00    -0.220 A 
ATOM      7  C   LIG    1       -1.313  -3.737   4.229  0.00  0.00    +0.010 A 
ATOM      8  N   LIG    1       -0.741  -3.635   3.062  0.00  0.00    -0.430 NA
ATOM      9  C   LIG    1       -1.148  -4.863   5.218  0.00  0.00    +0.130 C 
ATOM     10  O   LIG    1       -1.064  -2.620   2.491  0.00  0.00    +0.030 OA
ENDBRANCH   3   5
BRANCH   1  11
ATOM     11  C   LIG    1       -3.591   1.790   2.321  0.00  0.00    +0.300 C 
BRANCH  11  12
ATOM     12  C   LIG    1       -5.047   1.350   2.158  0.00  0.00    +0.130 C 
BRANCH  12  14
ATOM     13  C   LIG    1       -6.498  -0.544   2.388  0.00  0.00    +0.170 C 
ATOM     14  O   LIG    1       -5.169  -0.031   2.505  0.00  0.00    -0.340 OA
ENDBRANCH  12  14
ENDBRANCH  11  12
ENDBRANCH   1  11
BRANCH   1  15
ATOM     15  C   LIG    1       -2.520   1.638   0.025  0.00  0.00    +0.350 C 
BRANCH  15  16
ATOM     16  C   LIG    1       -1.230   2.417   0.030  0.00  0.00    -0.080 A 
ATOM     17  C   LIG    1       -0.534   2.593   1.211  0.00  0.00    +0.100 A 
ATOM     18  C   LIG    1        0.647   3.312   1.218  0.00  0.00    -0.010 A 
ATOM     19  C   LIG    1        1.136   3.850   0.040  0.00  0.00    +0.100 A 
ATOM     20  C   LIG    1        0.442   3.669  -1.144  0.00  0.00    -0.010 A 
ATOM     21  F   LIG    1        2.291   4.552   0.046  0.00  0.00    -0.140 F 
ATOM     22  C   LIG    1       -0.739   2.950  -1.149  0.00  0.00    -0.010 A 
ATOM     23 CL   LIG    1       -1.611   2.723  -2.633  0.00  0.00    -0.060 Cl
ENDBRANCH  15  16
ENDBRANCH   1  15
TORSDOF 6
