REMARK  Name = ZINCqH0000037ZtA.0
REMARK                            x       y       z     vdW  Elec       q    Type
REMARK                         _______ _______ _______ _____ _____    ______ ____
ROOT
ATOM      1  N   LIG    1       -5.914   0.036   3.788  0.00  0.00    -0.640 N 
ATOM      2  H   LIG    1       -6.120  -0.060   2.845  0.00  0.00    +0.410 HD
ATOM      3  C   LIG    1       -4.633   0.164   4.189  0.00  0.00    +0.600 C 
ATOM      4  O   LIG    1       -4.375   0.284   5.372  0.00  0.00    -0.510 OA
ENDROOT
BRANCH   3   5
ATOM      5  C   LIG    1       -3.552   0.160   3.199  0.00  0.00    -0.270 A 
ATOM      6  C   LIG    1       -2.224   0.282   3.479  0.00  0.00    +0.110 A 
ATOM      7  C   LIG    1       -1.410   0.247   2.366  0.00  0.00    -0.120 A 
ATOM      8  C   LIG    1       -2.079   0.100   1.198  0.00  0.00    -0.230 A 
ATOM      9  C   LIG    1       -1.402   0.037  -0.158  0.00  0.00    +0.310 C 
ATOM     10  N   LIG    1       -0.030   0.547  -0.020  0.00  0.00    -0.530 NA
ATOM     11  C   LIG    1        0.673  -0.126   1.082  0.00  0.00    +0.220 C 
ATOM     12  C   LIG    1       -0.026   2.004   0.166  0.00  0.00    +0.190 C 
ATOM     13  C   LIG    1        0.109   0.363   2.419  0.00  0.00    +0.080 C 
ATOM     14  S   LIG    1       -3.761  -0.003   1.463  0.00  0.00    +0.210 S 
ENDBRANCH   3   5
BRANCH   1  18
ATOM     15  N   LIG    1       -8.939  -0.029   5.662  0.00  0.00    -0.320 N 
ATOM     16  N   LIG    1       -7.987   0.128   6.677  0.00  0.00    -0.270 NA
ATOM     17  C   LIG    1       -6.800   0.169   6.127  0.00  0.00    +0.270 A 
ATOM     18  C   LIG    1       -6.952   0.040   4.738  0.00  0.00    +0.010 A 
ATOM     19  C   LIG    1       -8.278  -0.076   4.473  0.00  0.00    +0.050 A 
ATOM     20  C   LIG    1       -8.905  -0.230   3.111  0.00  0.00    +0.150 C 
BRANCH  15  25
ATOM     21  C   LIG    1      -14.558  -0.387   6.378  0.00  0.00    +0.090 C 
ATOM     22  C   LIG    1      -13.066  -0.292   6.188  0.00  0.00    -0.080 A 
ATOM     23  C   LIG    1      -12.431  -1.124   5.284  0.00  0.00    +0.030 A 
ATOM     24  C   LIG    1      -11.064  -1.039   5.107  0.00  0.00    +0.010 A 
ATOM     25  C   LIG    1      -10.327  -0.117   5.838  0.00  0.00    +0.150 A 
ATOM     26  C   LIG    1      -10.966   0.713   6.749  0.00  0.00    +0.030 A 
ATOM     27  C   LIG    1      -12.335   0.627   6.918  0.00  0.00    +0.030 A 
ENDBRANCH  15  25
ENDBRANCH   1  18
TORSDOF 3
