REMARK  Name = ZINCqH0000050lKQ.0
REMARK                            x       y       z     vdW  Elec       q    Type
REMARK                         _______ _______ _______ _____ _____    ______ ____
ROOT
ATOM      1  C   LIG    1        1.456   4.421   0.012  0.00  0.00    +0.390 C 
ENDROOT
BRANCH   1   2
ATOM      2  C   LIG    1        1.447   5.036   1.387  0.00  0.00    -0.110 A 
ATOM      3  C   LIG    1        0.376   5.812   1.790  0.00  0.00    +0.080 A 
ATOM      4  C   LIG    1        0.363   6.372   3.053  0.00  0.00    -0.010 A 
ATOM      5  C   LIG    1        1.429   6.164   3.912  0.00  0.00    +0.110 A 
ATOM      6  C   LIG    1        2.504   5.392   3.506  0.00  0.00    -0.010 A 
ATOM      7  F   LIG    1        1.420   6.716   5.146  0.00  0.00    -0.140 F 
ATOM      8  C   LIG    1        2.512   4.829   2.244  0.00  0.00    +0.050 A 
ENDBRANCH   1   2
BRANCH   1   9
ATOM      9  C   LIG    1        0.610   3.174   0.013  0.00  0.00    +0.190 A 
ATOM     10  N   LIG    1       -0.695   3.141   0.025  0.00  0.00    -0.470 NA
ATOM     11  C   LIG    1       -1.105   1.864   0.017  0.00  0.00    +0.140 A 
ATOM     12  C   LIG    1       -0.013   1.076   0.008  0.00  0.00    +0.130 A 
ATOM     13  N   LIG    1        1.075   1.907   0.002  0.00  0.00    -0.450 N 
ATOM     14  C   LIG    1        2.482   1.497  -0.013  0.00  0.00    +0.320 C 
ENDBRANCH   1   9
BRANCH   1  16
ATOM     15  C   LIG    1        1.264   5.296  -2.254  0.00  0.00    +0.520 C 
ATOM     16  N   LIG    1        0.914   5.379  -0.955  0.00  0.00    -0.710 N 
ATOM     17  H   LIG    1        0.304   6.072  -0.660  0.00  0.00    +0.410 HD
ATOM     18  O   LIG    1        2.027   4.428  -2.623  0.00  0.00    -0.540 OA
BRANCH  15  19
ATOM     19  C   LIG    1        0.706   6.281  -3.249  0.00  0.00    +0.070 C 
BRANCH  19  20
ATOM     20  C   LIG    1        1.257   5.968  -4.641  0.00  0.00    +0.100 C 
BRANCH  20  25
ATOM     21  C   LIG    1       -0.881   9.745  -8.456  0.00  0.00    +0.090 C 
ATOM     22  C   LIG    1       -0.324   8.760  -7.461  0.00  0.00    -0.090 A 
ATOM     23  C   LIG    1        0.859   9.038  -6.802  0.00  0.00    +0.000 A 
ATOM     24  C   LIG    1        1.371   8.134  -5.889  0.00  0.00    +0.010 A 
ATOM     25  C   LIG    1        0.699   6.953  -5.636  0.00  0.00    -0.090 A 
ATOM     26  C   LIG    1       -0.481   6.673  -6.299  0.00  0.00    +0.010 A 
ATOM     27  C   LIG    1       -0.995   7.579  -7.207  0.00  0.00    +0.000 A 
ENDBRANCH  20  25
ENDBRANCH  19  20
ENDBRANCH  15  19
ENDBRANCH   1  16
TORSDOF 6
