REMARK  Name = ZINCpk00000y6w6t.0
REMARK                            x       y       z     vdW  Elec       q    Type
REMARK                         _______ _______ _______ _____ _____    ______ ____
ROOT
ATOM      1  N   LIG    1       -1.196   1.996   0.029  0.00  0.00    -0.740 N 
ATOM      2  H   LIG    1       -1.214   2.962   0.112  0.00  0.00    +0.400 HD
ATOM      3  C   LIG    1       -0.016   1.344   0.009  0.00  0.00    +0.710 C 
ATOM      4  N   LIG    1        1.138   2.039   0.002  0.00  0.00    -0.630 N 
ATOM      5  C   LIG    1        2.429   1.347  -0.118  0.00  0.00    +0.300 C 
ATOM      6  C   LIG    1        3.207   1.964  -1.290  0.00  0.00    +0.020 C 
ATOM      7  C   LIG    1        3.323   3.475  -1.078  0.00  0.00    +0.280 C 
ATOM      8  C   LIG    1        1.924   4.096  -1.049  0.00  0.00    +0.020 C 
ATOM      9  C   LIG    1        1.131   3.504   0.120  0.00  0.00    +0.270 C 
ATOM     10  O   LIG    1        0.006   0.128   0.003  0.00  0.00    -0.590 OA
ENDROOT
BRANCH   7  11
ATOM     11  N   LIG    1        4.096   4.064  -2.174  0.00  0.00    -0.630 N 
ATOM     12  C   LIG    1        5.354   4.811  -2.025  0.00  0.00    +0.250 C 
ATOM     13  C   LIG    1        5.730   5.193  -3.469  0.00  0.00    +0.250 C 
ATOM     14  N   LIG    1        4.639   4.630  -4.278  0.00  0.00    -0.740 N 
ATOM     15  H   LIG    1        4.564   4.694  -5.243  0.00  0.00    +0.430 HD
ATOM     16  C   LIG    1        3.765   4.013  -3.471  0.00  0.00    +0.700 C 
ATOM     17  O   LIG    1        2.764   3.458  -3.879  0.00  0.00    -0.580 OA
ENDBRANCH   7  11
BRANCH   1  18
ATOM     18  C   LIG    1       -2.449   1.245  -0.073  0.00  0.00    +0.330 C 
BRANCH  18  23
ATOM     19  C   LIG    1       -5.182   3.623  -1.153  0.00  0.00    +0.210 A 
ATOM     20  C   LIG    1       -5.752   3.958   0.068  0.00  0.00    -0.070 A 
ATOM     21  C   LIG    1       -5.250   3.415   1.235  0.00  0.00    +0.050 A 
ATOM     22  C   LIG    1       -4.186   2.533   1.187  0.00  0.00    -0.040 A 
ATOM     23  C   LIG    1       -3.613   2.201  -0.027  0.00  0.00    -0.060 A 
ATOM     24  C   LIG    1       -4.109   2.741  -1.197  0.00  0.00    -0.060 A 
BRANCH  19  26
ATOM     25  C   LIG    1       -5.084   3.816  -3.623  0.00  0.00    +0.280 C 
ATOM     26  N   LIG    1       -5.686   4.171  -2.335  0.00  0.00    -0.640 N 
ATOM     27  C   LIG    1       -6.817   5.100  -2.287  0.00  0.00    +0.280 C 
ENDBRANCH  19  26
ENDBRANCH  18  23
ENDBRANCH   1  18
TORSDOF 4
