REMARK  Name = ZINCqH0000003prU.0
REMARK                            x       y       z     vdW  Elec       q    Type
REMARK                         _______ _______ _______ _____ _____    ______ ____
ROOT
ATOM      1  N   LIG    1        3.009  -0.524   2.084  0.00  0.00    -0.640 N 
ATOM      2  H   LIG    1        2.680  -1.038   2.838  0.00  0.00    +0.420 HD
ATOM      3  C   LIG    1        2.163  -0.149   1.104  0.00  0.00    +0.510 C 
ATOM      4  O   LIG    1        2.574   0.494   0.162  0.00  0.00    -0.480 OA
ENDROOT
BRANCH   1   6
ATOM      5  C   LIG    1        5.290  -0.502   2.958  0.00  0.00    -0.190 A 
ATOM      6  C   LIG    1        4.348  -0.176   2.014  0.00  0.00    +0.050 A 
ATOM      7  S   LIG    1        5.052   0.723   0.748  0.00  0.00    +0.310 S 
ATOM      8  C   LIG    1        6.644   0.661   1.484  0.00  0.00    -0.250 A 
ATOM      9  C   LIG    1        7.882   1.287   0.896  0.00  0.00    +0.150 C 
ATOM     10  C   LIG    1        6.609  -0.011   2.625  0.00  0.00    -0.050 A 
ATOM     11  C   LIG    1        7.822  -0.237   3.492  0.00  0.00    +0.120 C 
BRANCH   5  12
ATOM     12  C   LIG    1        4.991  -1.268   4.170  0.00  0.00    +0.540 C 
ATOM     13  O   LIG    1        5.074  -2.481   4.158  0.00  0.00    -0.490 OA
BRANCH  12  14
ATOM     14  O   LIG    1        4.624  -0.628   5.299  0.00  0.00    -0.350 OA
BRANCH  14  16
ATOM     15  C   LIG    1        3.947  -0.555   7.637  0.00  0.00    +0.070 C 
ATOM     16  C   LIG    1        4.344  -1.451   6.462  0.00  0.00    +0.200 C 
ENDBRANCH  14  16
ENDBRANCH  12  14
ENDBRANCH   5  12
ENDBRANCH   1   6
BRANCH   3  17
ATOM     17  C   LIG    1        0.706  -0.527   1.180  0.00  0.00    +0.240 C 
BRANCH  17  18
ATOM     18  N   LIG    1        0.002  -0.004   0.002  0.00  0.00    -0.520 NA
ATOM     19  C   LIG    1       -0.018   1.465   0.010  0.00  0.00    +0.210 C 
BRANCH  18  20
ATOM     20  C   LIG    1       -1.360  -0.549  -0.083  0.00  0.00    +0.240 C 
BRANCH  20  21
ATOM     21  C   LIG    1       -1.962  -0.191  -1.417  0.00  0.00    -0.090 A 
ATOM     22  C   LIG    1       -2.677   0.984  -1.559  0.00  0.00    +0.050 A 
ATOM     23  C   LIG    1       -3.225   1.316  -2.784  0.00  0.00    -0.010 A 
ATOM     24  C   LIG    1       -3.067   0.465  -3.865  0.00  0.00    +0.100 A 
ATOM     25  C   LIG    1       -2.356  -0.714  -3.720  0.00  0.00    -0.010 A 
ATOM     26  F   LIG    1       -3.608   0.786  -5.061  0.00  0.00    -0.140 F 
ATOM     27  C   LIG    1       -1.804  -1.040  -2.496  0.00  0.00    +0.060 A 
ENDBRANCH  20  21
ENDBRANCH  18  20
ENDBRANCH  17  18
ENDBRANCH   3  17
TORSDOF 8
