REMARK  Name = ZINCqH0000000kaw.0
REMARK                            x       y       z     vdW  Elec       q    Type
REMARK                         _______ _______ _______ _____ _____    ______ ____
ROOT
ATOM      1  N   LIG    1        2.629  -7.795   0.343  0.00  0.00    -0.450 N 
ATOM      2  C   LIG    1        2.860  -6.502  -0.029  0.00  0.00    +0.140 A 
ATOM      3  N   LIG    1        4.084  -6.446  -0.506  0.00  0.00    -0.290 NA
ATOM      4  N   LIG    1        4.628  -7.609  -0.462  0.00  0.00    -0.270 NA
ATOM      5  C   LIG    1        3.785  -8.479   0.044  0.00  0.00    +0.230 A 
ENDROOT
BRANCH   5   6
ATOM      6  C   LIG    1        4.033  -9.921   0.260  0.00  0.00    -0.020 A 
ATOM      7  C   LIG    1        5.313 -10.369   0.592  0.00  0.00    +0.060 A 
ATOM      8  C   LIG    1        5.537 -11.715   0.796  0.00  0.00    +0.010 A 
ATOM      9  C   LIG    1        4.499 -12.620   0.662  0.00  0.00    +0.030 A 
ATOM     10  C   LIG    1        3.230 -12.183   0.328  0.00  0.00    +0.010 A 
ATOM     11  C   LIG    1        2.991 -10.839   0.126  0.00  0.00    +0.010 A 
ENDBRANCH   5   6
BRANCH   1  12
ATOM     12  C   LIG    1        1.405  -8.341   0.934  0.00  0.00    +0.350 C 
BRANCH  12  14
ATOM     13  C   LIG    1       -0.111  -9.862  -0.228  0.00  0.00    +0.070 C 
ATOM     14  C   LIG    1        0.421  -8.667  -0.160  0.00  0.00    -0.070 C 
ENDBRANCH  12  14
ENDBRANCH   1  12
BRANCH   2  15
ATOM     15  S   LIG    1        1.731  -5.156   0.110  0.00  0.00    +0.100 S 
BRANCH  15  16
ATOM     16  C   LIG    1        2.748  -3.820  -0.564  0.00  0.00    +0.130 C 
BRANCH  16  17
ATOM     17  C   LIG    1        1.965  -2.533  -0.544  0.00  0.00    +0.530 C 
ATOM     18  N   LIG    1        2.526  -1.396  -1.001  0.00  0.00    -0.620 N 
ATOM     19  H   LIG    1        3.433  -1.406  -1.344  0.00  0.00    +0.420 HD
ATOM     20  O   LIG    1        0.831  -2.520  -0.115  0.00  0.00    -0.480 OA
BRANCH  18  21
ATOM     21  C   LIG    1        1.804  -0.210  -0.983  0.00  0.00    +0.050 A 
ATOM     22  C   LIG    1        2.279   0.997  -1.423  0.00  0.00    -0.110 A 
ATOM     23  C   LIG    1        1.312   2.064  -1.286  0.00  0.00    +0.080 A 
ATOM     24  C   LIG    1        0.162   1.661  -0.762  0.00  0.00    -0.100 A 
ATOM     25  S   LIG    1        0.207  -0.057  -0.409  0.00  0.00    +0.320 S 
BRANCH  22  26
ATOM     26  C   LIG    1        3.593   1.183  -1.961  0.00  0.00    +0.270 C 
ATOM     27  N   LIG    1        4.635   1.331  -2.389  0.00  0.00    -0.420 NA
ENDBRANCH  22  26
ENDBRANCH  18  21
ENDBRANCH  16  17
ENDBRANCH  15  16
ENDBRANCH   2  15
TORSDOF 8
