REMARK  Name = ZINCvU0000000CD4.0
REMARK                            x       y       z     vdW  Elec       q    Type
REMARK                         _______ _______ _______ _____ _____    ______ ____
ROOT
ATOM      1  C   LIG    1       -0.018   1.342   0.008  0.00  0.00    +0.550 C 
ATOM      2  N   LIG    1        0.001  -0.005  -0.001  0.00  0.00    -0.660 N 
ATOM      3  H   LIG    1       -0.829  -0.503   0.074  0.00  0.00    +0.420 HD
ATOM      4  O   LIG    1        1.026   1.965   0.018  0.00  0.00    -0.490 OA
ENDROOT
BRANCH   1   9
ATOM      5  C   LIG    1       -3.709   2.031  -0.025  0.00  0.00    -0.690 A 
ATOM      6  C   LIG    1       -3.726   3.414  -0.014  0.00  0.00    +0.180 A 
ATOM      7  C   LIG    1       -2.540   4.127   0.003  0.00  0.00    +0.020 A 
ATOM      8  C   LIG    1       -1.331   3.460   0.011  0.00  0.00    +0.070 A 
ATOM      9  C   LIG    1       -1.307   2.063   0.001  0.00  0.00    -0.150 A 
ATOM     10 CL   LIG    1        0.156   4.356   0.032  0.00  0.00    -0.010 Cl
ATOM     11  C   LIG    1       -2.508   1.351  -0.022  0.00  0.00    +0.180 A 
BRANCH   5  12
ATOM     12  S   LIG    1       -5.226   1.134  -0.047  0.00  0.00    +2.690 S 
ATOM     13  O   LIG    1       -6.213   2.001   0.493  0.00  0.00    -0.950 OA
ATOM     14  O   LIG    1       -4.940  -0.150   0.490  0.00  0.00    -0.940 OA
BRANCH  12  16
ATOM     15  C   LIG    1       -5.164  -0.301  -2.339  0.00  0.00    +0.310 C 
ATOM     16  N   LIG    1       -5.631   0.896  -1.635  0.00  0.00    -1.000 NA
ATOM     17  C   LIG    1       -6.456   1.883  -2.336  0.00  0.00    +0.310 C 
ENDBRANCH  12  16
ENDBRANCH   5  12
ENDBRANCH   1   9
BRANCH   2  18
ATOM     18  C   LIG    1        1.213  -0.685  -0.120  0.00  0.00    +0.200 A 
ATOM     19  C   LIG    1        2.298  -0.074  -0.732  0.00  0.00    +0.010 A 
ATOM     20  C   LIG    1        3.498  -0.749  -0.849  0.00  0.00    +0.060 A 
ATOM     21  C   LIG    1        3.627  -2.036  -0.357  0.00  0.00    -0.010 A 
ATOM     22  C   LIG    1        2.559  -2.659   0.255  0.00  0.00    +0.060 A 
ATOM     23  C   LIG    1        1.343  -1.987   0.384  0.00  0.00    -0.080 A 
BRANCH  23  24
ATOM     24  C   LIG    1        0.197  -2.646   1.042  0.00  0.00    +0.170 A 
ATOM     25  N   LIG    1       -0.990  -2.146   1.131  0.00  0.00    -0.490 NA
ATOM     26  C   LIG    1       -1.933  -2.869   1.760  0.00  0.00    +0.080 A 
ATOM     27  C   LIG    1       -3.290  -2.550   1.983  0.00  0.00    +0.100 A 
ATOM     28  C   LIG    1       -4.103  -3.414   2.652  0.00  0.00    +0.040 A 
ATOM     29  C   LIG    1       -3.616  -4.623   3.127  0.00  0.00    +0.040 A 
ATOM     30  C   LIG    1       -2.297  -4.962   2.925  0.00  0.00    +0.050 A 
ATOM     31  C   LIG    1       -1.450  -4.092   2.243  0.00  0.00    -0.170 A 
ATOM     32  S   LIG    1        0.257  -4.220   1.824  0.00  0.00    +0.080 S 
ENDBRANCH  23  24
ENDBRANCH   2  18
TORSDOF 5
