REMARK  Name = ZINCtV00000tRTq4.1
REMARK                            x       y       z     vdW  Elec       q    Type
REMARK                         _______ _______ _______ _____ _____    ______ ____
ROOT
ATOM      1  C   LIG    1       -4.639  -1.583   1.079  0.00  0.00    +0.050 A 
ATOM      2  C   LIG    1       -5.579  -2.519   0.753  0.00  0.00    +0.040 A 
ATOM      3  C   LIG    1       -6.696  -2.275   1.563  0.00  0.00    -0.020 A 
ATOM      4  C   LIG    1       -6.395  -1.197   2.344  0.00  0.00    +0.040 A 
ATOM      5  O   LIG    1       -5.148  -0.788   2.042  0.00  0.00    -0.160 OA
ENDROOT
BRANCH   1  11
ATOM      6  C   LIG    1       -0.670  -2.473  -1.795  0.00  0.00    +0.160 C 
ATOM      7  C   LIG    1       -1.573  -1.841  -0.767  0.00  0.00    +0.040 A 
ATOM      8  C   LIG    1       -1.265  -0.763   0.010  0.00  0.00    +0.020 A 
ATOM      9  N   LIG    1       -2.364  -0.523   0.808  0.00  0.00    -0.550 N 
ATOM     10  H   LIG    1       -2.453   0.178   1.472  0.00  0.00    +0.430 HD
ATOM     11  C   LIG    1       -3.304  -1.461   0.480  0.00  0.00    +0.290 A 
ATOM     12  N   LIG    1       -2.808  -2.240  -0.462  0.00  0.00    -0.450 NA
BRANCH   8  13
ATOM     13  C   LIG    1        0.002  -0.004   0.002  0.00  0.00    -0.010 A 
ATOM     14  C   LIG    1        1.224  -0.679  -0.013  0.00  0.00    +0.050 A 
ATOM     15  C   LIG    1        2.404   0.035  -0.021  0.00  0.00    +0.040 A 
ATOM     16  C   LIG    1        2.379   1.418  -0.013  0.00  0.00    +0.040 A 
ATOM     17  C   LIG    1        1.171   2.095   0.002  0.00  0.00    -0.030 A 
ATOM     18 CL   LIG    1        1.151   3.831   0.012  0.00  0.00    -0.060 Cl
ATOM     19  C   LIG    1       -0.017   1.392   0.010  0.00  0.00    +0.030 A 
ENDBRANCH   8  13
ENDBRANCH   1  11
BRANCH   4  20
ATOM     20  C   LIG    1       -7.285  -0.584   3.348  0.00  0.00    -0.030 A 
ATOM     21  C   LIG    1       -8.597  -0.245   3.010  0.00  0.00    +0.100 A 
ATOM     22  C   LIG    1       -9.425   0.323   3.956  0.00  0.00    +0.010 A 
ATOM     23  C   LIG    1       -8.959   0.569   5.235  0.00  0.00    +0.080 A 
ATOM     24  C   LIG    1       -7.660   0.243   5.580  0.00  0.00    -0.050 A 
ATOM     25  C   LIG    1       -6.817  -0.333   4.645  0.00  0.00    +0.130 A 
BRANCH  25  26
ATOM     26  O   LIG    1       -5.541  -0.654   4.983  0.00  0.00    -0.300 OA
BRANCH  26  27
ATOM     27  C   LIG    1       -5.134  -0.369   6.323  0.00  0.00    +0.600 C 
ATOM     28  F   LIG    1       -5.253   1.004   6.565  0.00  0.00    -0.160 F 
ATOM     29  F   LIG    1       -3.802  -0.759   6.499  0.00  0.00    -0.130 F 
ATOM     30  F   LIG    1       -5.948  -1.072   7.218  0.00  0.00    -0.160 F 
ENDBRANCH  26  27
ENDBRANCH  25  26
ENDBRANCH   4  20
TORSDOF 5
