REMARK  Name = ZINCtV00000tRTq4.0
REMARK                            x       y       z     vdW  Elec       q    Type
REMARK                         _______ _______ _______ _____ _____    ______ ____
ROOT
ATOM      1  C   LIG    1        5.726  -1.306  -0.606  0.00  0.00    +0.050 A 
ATOM      2  C   LIG    1        5.346  -2.100   0.438  0.00  0.00    +0.030 A 
ATOM      3  C   LIG    1        4.052  -1.704   0.803  0.00  0.00    -0.020 A 
ATOM      4  C   LIG    1        3.692  -0.693  -0.038  0.00  0.00    +0.040 A 
ATOM      5  O   LIG    1        4.714  -0.459  -0.883  0.00  0.00    -0.160 OA
ENDROOT
BRANCH   1  10
ATOM      6  C   LIG    1        9.493  -0.352  -3.817  0.00  0.00    +0.150 C 
ATOM      7  C   LIG    1        8.659  -0.946  -2.712  0.00  0.00    +0.020 A 
ATOM      8  C   LIG    1        9.022  -1.960  -1.880  0.00  0.00    +0.040 A 
ATOM      9  N   LIG    1        8.002  -2.194  -1.035  0.00  0.00    -0.440 NA
ATOM     10  C   LIG    1        7.016  -1.365  -1.307  0.00  0.00    +0.280 A 
ATOM     11  N   LIG    1        7.392  -0.573  -2.357  0.00  0.00    -0.560 N 
ATOM     12  H   LIG    1        6.860   0.125  -2.771  0.00  0.00    +0.430 HD
BRANCH   8  13
ATOM     13  C   LIG    1       10.318  -2.682  -1.901  0.00  0.00    +0.010 A 
ATOM     14  C   LIG    1       10.892  -3.123  -0.711  0.00  0.00    +0.040 A 
ATOM     15  C   LIG    1       12.098  -3.794  -0.736  0.00  0.00    +0.040 A 
ATOM     16  C   LIG    1       12.737  -4.029  -1.939  0.00  0.00    +0.020 A 
ATOM     17  C   LIG    1       12.172  -3.593  -3.126  0.00  0.00    -0.030 A 
ATOM     18 CL   LIG    1       12.980  -3.892  -4.633  0.00  0.00    -0.070 Cl
ATOM     19  C   LIG    1       10.963  -2.925  -3.112  0.00  0.00    +0.040 A 
ENDBRANCH   8  13
ENDBRANCH   1  10
BRANCH   4  20
ATOM     20  C   LIG    1        2.404   0.028  -0.021  0.00  0.00    -0.030 A 
ATOM     21  C   LIG    1        1.203  -0.683  -0.013  0.00  0.00    +0.100 A 
ATOM     22  C   LIG    1        0.002  -0.004   0.002  0.00  0.00    +0.010 A 
ATOM     23  C   LIG    1       -0.017   1.380   0.010  0.00  0.00    +0.080 A 
ATOM     24  C   LIG    1        1.167   2.095   0.002  0.00  0.00    -0.050 A 
ATOM     25  C   LIG    1        2.381   1.429  -0.013  0.00  0.00    +0.130 A 
BRANCH  25  26
ATOM     26  O   LIG    1        3.543   2.131  -0.020  0.00  0.00    -0.300 OA
BRANCH  26  27
ATOM     27  C   LIG    1        3.441   3.556  -0.011  0.00  0.00    +0.600 C 
ATOM     28  F   LIG    1        2.739   3.980  -1.144  0.00  0.00    -0.160 F 
ATOM     29  F   LIG    1        4.723   4.116  -0.019  0.00  0.00    -0.130 F 
ATOM     30  F   LIG    1        2.761   3.967   1.140  0.00  0.00    -0.160 F 
ENDBRANCH  26  27
ENDBRANCH  25  26
ENDBRANCH   4  20
TORSDOF 5
