REMARK  Name = ZINCqH00000386bj.0
REMARK                            x       y       z     vdW  Elec       q    Type
REMARK                         _______ _______ _______ _____ _____    ______ ____
ROOT
ATOM      1  C   LIG    1       -1.966   5.579   0.310  0.00  0.00    +0.270 C 
ENDROOT
BRANCH   1   5
ATOM      2  N   LIG    1       -0.824   8.585   1.682  0.00  0.00    -0.460 N 
ATOM      3  C   LIG    1        0.456   7.862   1.891  0.00  0.00    +0.190 C 
ATOM      4  C   LIG    1        0.117   6.407   1.472  0.00  0.00    +0.040 C 
ATOM      5  C   LIG    1       -0.835   6.609   0.271  0.00  0.00    -0.020 C 
ATOM      6  C   LIG    1       -1.402   8.031   0.438  0.00  0.00    +0.190 C 
BRANCH   2  14
ATOM      7  C   LIG    1        0.724   9.875   3.690  0.00  0.00    +0.100 C 
ATOM      8  C   LIG    1        0.141  10.630   2.524  0.00  0.00    -0.100 A 
ATOM      9  C   LIG    1        0.352  11.990   2.407  0.00  0.00    +0.050 A 
ATOM     10  C   LIG    1       -0.183  12.685   1.338  0.00  0.00    +0.000 A 
ATOM     11  C   LIG    1       -0.931  12.021   0.382  0.00  0.00    -0.010 A 
ATOM     12  C   LIG    1       -1.141  10.659   0.490  0.00  0.00    -0.020 A 
ATOM     13 CL   LIG    1       -1.601  12.897  -0.959  0.00  0.00    -0.070 Cl
ATOM     14  C   LIG    1       -0.610   9.960   1.566  0.00  0.00    +0.120 A 
ENDBRANCH   2  14
ENDBRANCH   1   5
BRANCH   1  15
ATOM     15  N   LIG    1       -1.418   4.243   0.063  0.00  0.00    -0.740 N 
ATOM     16  H   LIG    1       -0.467   4.130  -0.092  0.00  0.00    +0.390 HD
ATOM     17  C   LIG    1       -2.235   3.171   0.051  0.00  0.00    +0.590 C 
ATOM     18  O   LIG    1       -3.439   3.322   0.155  0.00  0.00    -0.550 OA
BRANCH  17  19
ATOM     19  C   LIG    1       -1.676   1.827  -0.086  0.00  0.00    -0.290 A 
ATOM     20  C   LIG    1       -2.356   0.611  -0.013  0.00  0.00    +0.350 A 
ATOM     21  N   LIG    1       -1.504  -0.383  -0.186  0.00  0.00    -0.550 NA
ATOM     22  C   LIG    1       -0.262   0.044  -0.383  0.00  0.00    +0.280 A 
ATOM     23  N   LIG    1        0.926  -0.600  -0.603  0.00  0.00    -0.490 N 
ATOM     24  H   LIG    1        0.947  -1.569  -0.636  0.00  0.00    +0.430 HD
ATOM     25  C   LIG    1        2.062   0.094  -0.775  0.00  0.00    +0.340 A 
ATOM     26  C   LIG    1        2.084   1.455  -0.738  0.00  0.00    -0.050 A 
ATOM     27  C   LIG    1        0.908   2.166  -0.517  0.00  0.00    +0.160 A 
ATOM     28  C   LIG    1       -0.275   1.460  -0.339  0.00  0.00    -0.140 A 
ENDBRANCH  17  19
ENDBRANCH   1  15
TORSDOF 4
