REMARK  Name = ZINCqH0000005aEN.0
REMARK                            x       y       z     vdW  Elec       q    Type
REMARK                         _______ _______ _______ _____ _____    ______ ____
ROOT
ATOM      1  C   LIG    1        0.310  -0.160  -0.305  0.00  0.00    -0.140 A 
ATOM      2  C   LIG    1        1.520  -0.826  -0.509  0.00  0.00    +0.170 A 
ATOM      3  C   LIG    1        1.528  -2.188  -0.721  0.00  0.00    -0.680 A 
ATOM      4  C   LIG    1        0.338  -2.896  -0.743  0.00  0.00    +0.180 A 
ATOM      5  C   LIG    1       -0.865  -2.243  -0.547  0.00  0.00    +0.020 A 
ATOM      6  C   LIG    1       -0.887  -0.880  -0.328  0.00  0.00    +0.060 A 
ATOM      7 CL   LIG    1       -2.399  -0.062  -0.083  0.00  0.00    -0.020 Cl
ENDROOT
BRANCH   1  10
ATOM      8  C   LIG    1        2.109   1.005   1.528  0.00  0.00    +0.300 C 
ATOM      9  N   LIG    1        1.131   1.845   0.833  0.00  0.00    -0.610 N 
ATOM     10  C   LIG    1        0.295   1.299  -0.072  0.00  0.00    +0.560 C 
ATOM     11  O   LIG    1       -0.467   2.007  -0.701  0.00  0.00    -0.500 OA
BRANCH   9  12
ATOM     12  C   LIG    1        1.060   3.280   1.123  0.00  0.00    +0.310 C 
BRANCH  12  13
ATOM     13  C   LIG    1        0.074   3.521   2.267  0.00  0.00    +0.180 C 
BRANCH  13  14
ATOM     14  C   LIG    1        0.003   4.963   2.558  0.00  0.00    +0.210 C 
ATOM     15  N   LIG    1       -0.051   6.075   2.782  0.00  0.00    -0.420 NA
ENDBRANCH  13  14
ENDBRANCH  12  13
ENDBRANCH   9  12
ENDBRANCH   1  10
BRANCH   3  16
ATOM     16  S   LIG    1        3.055  -3.030  -0.972  0.00  0.00    +2.690 S 
ATOM     17  O   LIG    1        2.805  -4.404  -0.707  0.00  0.00    -0.940 OA
ATOM     18  O   LIG    1        4.046  -2.275  -0.289  0.00  0.00    -0.940 OA
BRANCH  16  19
ATOM     19  N   LIG    1        3.414  -2.924  -2.585  0.00  0.00    -1.060 N 
ATOM     20  H   LIG    1        3.453  -3.727  -3.127  0.00  0.00    +0.430 HD
BRANCH  19  21
ATOM     21  C   LIG    1        3.662  -1.676  -3.164  0.00  0.00    +0.120 A 
ATOM     22  C   LIG    1        2.709  -1.091  -3.989  0.00  0.00    +0.040 A 
ATOM     23  C   LIG    1        2.954   0.144  -4.557  0.00  0.00    +0.040 A 
ATOM     24  C   LIG    1        4.151   0.794  -4.312  0.00  0.00    -0.030 A 
ATOM     25  C   LIG    1        5.104   0.211  -3.496  0.00  0.00    +0.040 A 
ATOM     26 CL   LIG    1        4.458   2.343  -5.032  0.00  0.00    -0.060 Cl
ATOM     27  C   LIG    1        4.862  -1.022  -2.921  0.00  0.00    +0.060 A 
ENDBRANCH  19  21
ENDBRANCH  16  19
ENDBRANCH   3  16
TORSDOF 7
