REMARK  Name = ZINCpe00000VVGDL.0
REMARK                            x       y       z     vdW  Elec       q    Type
REMARK                         _______ _______ _______ _____ _____    ______ ____
ROOT
ATOM      1  N   LIG    1       -0.700   1.560   1.217  0.00  0.00    -0.520 NA
ATOM      2  C   LIG    1       -0.013   1.086   0.008  0.00  0.00    +0.200 C 
ENDROOT
BRANCH   1   3
ATOM      3  C   LIG    1       -0.016   1.091   2.429  0.00  0.00    +0.240 C 
BRANCH   3   8
ATOM      4  C   LIG    1        0.619  -2.597   1.859  0.00  0.00    +0.110 A 
ATOM      5  C   LIG    1       -0.331  -3.167   2.690  0.00  0.00    -0.070 A 
ATOM      6  C   LIG    1       -1.174  -2.361   3.433  0.00  0.00    +0.050 A 
ATOM      7  C   LIG    1       -1.071  -0.985   3.348  0.00  0.00    +0.000 A 
ATOM      8  C   LIG    1       -0.125  -0.409   2.520  0.00  0.00    -0.060 A 
ATOM      9  C   LIG    1        0.719  -1.211   1.769  0.00  0.00    +0.070 A 
BRANCH   4  11
ATOM     10  C   LIG    1        1.284  -4.802   1.265  0.00  0.00    +0.240 C 
ATOM     11  O   LIG    1        1.448  -3.389   1.127  0.00  0.00    -0.310 OA
ENDBRANCH   4  11
BRANCH   9  12
ATOM     12  O   LIG    1        1.646  -0.647   0.950  0.00  0.00    -0.320 OA
ATOM     13  C   LIG    1        2.933  -0.381   1.513  0.00  0.00    +0.210 C 
ENDBRANCH   9  12
ENDBRANCH   3   8
ENDBRANCH   1   3
BRANCH   1  14
ATOM     14  C   LIG    1       -0.822   3.023   1.213  0.00  0.00    +0.200 C 
BRANCH  14  15
ATOM     15  C   LIG    1       -1.735   3.449   0.092  0.00  0.00    +0.520 C 
ATOM     16  N   LIG    1       -1.996   4.756  -0.105  0.00  0.00    -0.730 N 
ATOM     17  H   LIG    1       -1.596   5.424   0.474  0.00  0.00    +0.400 HD
ATOM     18  O   LIG    1       -2.234   2.615  -0.633  0.00  0.00    -0.510 OA
BRANCH  16  19
ATOM     19  C   LIG    1       -2.882   5.170  -1.196  0.00  0.00    +0.190 C 
ATOM     20  C   LIG    1       -4.254   4.525  -0.991  0.00  0.00    +0.080 C 
ATOM     21  C   LIG    1       -5.136   5.482  -0.154  0.00  0.00    -0.290 C 
ATOM     22  S   LIG    1       -4.723   7.104  -0.913  0.00  0.00    +2.380 S 
ATOM     23  O   LIG    1       -5.404   7.238  -2.153  0.00  0.00    -0.920 OA
ATOM     24  O   LIG    1       -4.816   8.128   0.068  0.00  0.00    -0.930 OA
ATOM     25  C   LIG    1       -2.297   4.682  -2.523  0.00  0.00    +0.050 C 
ATOM     26  C   LIG    1       -2.961   6.704  -1.220  0.00  0.00    -0.300 C 
ENDBRANCH  16  19
ENDBRANCH  14  15
ENDBRANCH   1  14
TORSDOF 7
