REMARK  Name = ZINC9p0000002DlY.0
REMARK                            x       y       z     vdW  Elec       q    Type
REMARK                         _______ _______ _______ _____ _____    ______ ____
ROOT
ATOM      1  C   LIG    1       -2.271   3.670   2.990  0.00  0.00    +0.030 C 
ENDROOT
BRANCH   1   2
ATOM      2  C   LIG    1       -3.484   3.961   3.876  0.00  0.00    +0.250 C 
BRANCH   2   3
ATOM      3  N   LIG    1       -3.030   4.474   5.175  0.00  0.00    -0.640 N 
ATOM      4  H   LIG    1       -2.504   5.324   5.035  0.00  0.00    +0.440 HD
ATOM      5  H   LIG    1       -2.444   3.785   5.622  0.00  0.00    +0.440 HD
ATOM      6  H   LIG    1       -3.830   4.665   5.759  0.00  0.00    +0.440 HD
ENDBRANCH   2   3
ENDBRANCH   1   2
BRANCH   1   7
ATOM      7  C   LIG    1       -2.744   3.135   1.636  0.00  0.00    +0.040 C 
BRANCH   7   8
ATOM      8  C   LIG    1       -1.531   2.845   0.750  0.00  0.00    -0.020 C 
ATOM      9  C   LIG    1       -0.763   1.597   1.255  0.00  0.00    +0.010 C 
ATOM     10  C   LIG    1       -0.013   1.086   0.008  0.00  0.00    +0.010 C 
ATOM     11  C   LIG    1       -0.784   1.609  -1.216  0.00  0.00    +0.010 C 
ATOM     12  C   LIG    1       -1.978   2.421  -0.670  0.00  0.00    +0.020 C 
ENDBRANCH   7   8
ENDBRANCH   1   7
TORSDOF 4
