REMARK  Name = ZINCpk000000ohsK.0
REMARK                            x       y       z     vdW  Elec       q    Type
REMARK                         _______ _______ _______ _____ _____    ______ ____
ROOT
ATOM      1  C   LIG    1       -1.413  -2.063   0.004  0.00  0.00    +0.120 C 
ENDROOT
BRANCH   1   2
ATOM      2  N   LIG    1       -0.834  -2.537  -1.256  0.00  0.00    -0.470 NA
ATOM      3  C   LIG    1        0.241  -3.271  -1.243  0.00  0.00    +0.390 C 
ATOM      4  N   LIG    1        0.859  -3.614  -0.067  0.00  0.00    -1.050 N 
ATOM      5  H   LIG    1        0.588  -3.367   0.831  0.00  0.00    +0.450 HD
ATOM      6  S   LIG    1        2.175  -4.546  -0.504  0.00  0.00    +2.670 S 
ATOM      7  C   LIG    1        1.995  -4.533  -2.266  0.00  0.00    -0.630 A 
ATOM      8  C   LIG    1        2.708  -5.085  -3.295  0.00  0.00    +0.150 A 
ATOM      9  C   LIG    1        2.296  -4.884  -4.604  0.00  0.00    +0.040 A 
ATOM     10  C   LIG    1        1.166  -4.128  -4.855  0.00  0.00    +0.070 A 
ATOM     11  C   LIG    1        0.445  -3.572  -3.822  0.00  0.00    +0.100 A 
ATOM     12  O   LIG    1        3.347  -3.806  -0.190  0.00  0.00    -0.930 OA
ATOM     13  O   LIG    1        1.929  -5.873  -0.060  0.00  0.00    -0.930 OA
ATOM     14  C   LIG    1        0.848  -3.764  -2.490  0.00  0.00    -0.020 A 
ENDBRANCH   1   2
BRANCH   1  15
ATOM     15  C   LIG    1       -2.820  -2.586   0.139  0.00  0.00    +0.520 C 
ATOM     16  N   LIG    1       -3.552  -2.276   1.227  0.00  0.00    -0.720 N 
ATOM     17  H   LIG    1       -3.174  -1.717   1.923  0.00  0.00    +0.400 HD
ATOM     18  O   LIG    1       -3.293  -3.285  -0.732  0.00  0.00    -0.510 OA
BRANCH  16  19
ATOM     19  C   LIG    1       -4.920  -2.784   1.358  0.00  0.00    +0.250 C 
ATOM     20  C   LIG    1       -4.887  -4.189   1.961  0.00  0.00    +0.040 C 
BRANCH  19  21
ATOM     21  C   LIG    1       -5.724  -1.855   2.271  0.00  0.00    +0.180 C 
BRANCH  21  22
ATOM     22  O   LIG    1       -5.178  -1.896   3.591  0.00  0.00    -0.390 OA
ATOM     23  C   LIG    1       -5.859  -1.060   4.528  0.00  0.00    +0.200 C 
ENDBRANCH  21  22
ENDBRANCH  19  21
ENDBRANCH  16  19
ENDBRANCH   1  15
BRANCH   1  24
ATOM     24  C   LIG    1       -1.433  -0.534   0.013  0.00  0.00    +0.060 C 
BRANCH  24  25
ATOM     25  C   LIG    1        0.002  -0.004   0.002  0.00  0.00    +0.010 C 
BRANCH  25  27
ATOM     26  C   LIG    1        1.417   2.055  -0.000  0.00  0.00    +0.010 C 
ATOM     27  C   LIG    1       -0.019   1.526   0.010  0.00  0.00    +0.000 C 
ENDBRANCH  25  27
ENDBRANCH  24  25
ENDBRANCH   1  24
TORSDOF 8
