REMARK  Name = ZINCvU00000007oM.0
REMARK                            x       y       z     vdW  Elec       q    Type
REMARK                         _______ _______ _______ _____ _____    ______ ____
ROOT
ATOM      1  C   LIG    1        3.707  -2.035  -0.044  0.00  0.00    +0.060 C 
ATOM      2  C   LIG    1        3.690  -0.688  -0.037  0.00  0.00    +0.060 C 
ENDROOT
BRANCH   1   9
ATOM      3  C   LIG    1        6.663  -6.026  -0.096  0.00  0.00    +0.080 C 
ATOM      4  C   LIG    1        8.109  -6.227  -0.551  0.00  0.00    +0.060 C 
ATOM      5  C   LIG    1        9.035  -5.341   0.287  0.00  0.00    +0.030 C 
ATOM      6  C   LIG    1        8.810  -3.876  -0.102  0.00  0.00    +0.120 C 
ATOM      7  C   LIG    1        7.325  -3.595  -0.087  0.00  0.00    -0.200 A 
ATOM      8  S   LIG    1        6.579  -2.002  -0.071  0.00  0.00    +0.090 S 
ATOM      9  C   LIG    1        4.986  -2.752  -0.060  0.00  0.00    +0.110 A 
ATOM     10  N   LIG    1        5.127  -4.045  -0.063  0.00  0.00    -0.460 NA
ATOM     11  C   LIG    1        6.355  -4.534  -0.083  0.00  0.00    +0.070 A 
BRANCH   3  15
ATOM     12  C   LIG    1        3.492  -7.352  -1.781  0.00  0.00    +0.280 C 
ATOM     13  N   LIG    1        4.398  -6.671  -0.853  0.00  0.00    -0.720 N 
ATOM     14  H   LIG    1        4.040  -6.182  -0.096  0.00  0.00    +0.410 HD
ATOM     15  C   LIG    1        5.731  -6.726  -1.050  0.00  0.00    +0.520 C 
ATOM     16  O   LIG    1        6.179  -7.338  -1.996  0.00  0.00    -0.540 OA
ENDBRANCH   3  15
ENDBRANCH   1   9
BRANCH   2  17
ATOM     17  C   LIG    1        2.406   0.032  -0.020  0.00  0.00    -0.060 A 
ATOM     18  C   LIG    1        1.204  -0.681  -0.013  0.00  0.00    +0.030 A 
ATOM     19  C   LIG    1        0.002  -0.004   0.002  0.00  0.00    -0.040 A 
ATOM     20  C   LIG    1       -0.017   1.383   0.010  0.00  0.00    +0.110 A 
ATOM     21  C   LIG    1        1.178   2.100   0.002  0.00  0.00    +0.100 A 
ATOM     22  C   LIG    1        2.386   1.430  -0.013  0.00  0.00    -0.010 A 
BRANCH  21  23
ATOM     23  O   LIG    1        1.155   3.460   0.010  0.00  0.00    -0.300 OA
ATOM     24  C   LIG    1        2.417   4.130   0.001  0.00  0.00    +0.240 C 
ENDBRANCH  21  23
BRANCH  20  25
ATOM     25  O   LIG    1       -1.204   2.045   0.019  0.00  0.00    -0.290 OA
BRANCH  25  26
ATOM     26  C   LIG    1       -2.391   1.248   0.020  0.00  0.00    +0.240 C 
BRANCH  26  27
ATOM     27  C   LIG    1       -3.599   2.148   0.031  0.00  0.00    -0.100 A 
ATOM     28  C   LIG    1       -4.152   2.549   1.233  0.00  0.00    +0.030 A 
ATOM     29  C   LIG    1       -5.258   3.379   1.242  0.00  0.00    +0.010 A 
ATOM     30  C   LIG    1       -5.818   3.798   0.050  0.00  0.00    +0.010 A 
ATOM     31  C   LIG    1       -5.269   3.392  -1.152  0.00  0.00    +0.010 A 
ATOM     32  C   LIG    1       -4.160   2.567  -1.161  0.00  0.00    +0.030 A 
ENDBRANCH  26  27
ENDBRANCH  25  26
ENDBRANCH  20  25
ENDBRANCH   2  17
TORSDOF 7
