REMARK  Name = ZINCqH00000058LC.0
REMARK                            x       y       z     vdW  Elec       q    Type
REMARK                         _______ _______ _______ _____ _____    ______ ____
ROOT
ATOM      1  N   LIG    1       -3.027   0.986  -1.395  0.00  0.00    -0.730 N 
ATOM      2  H   LIG    1       -2.479   1.306  -2.129  0.00  0.00    +0.390 HD
ATOM      3  C   LIG    1       -4.245   0.464  -1.641  0.00  0.00    +0.710 C 
ATOM      4  N   LIG    1       -4.702   0.387  -2.906  0.00  0.00    -0.690 N 
ATOM      5  H   LIG    1       -4.185   0.768  -3.633  0.00  0.00    +0.400 HD
ATOM      6  O   LIG    1       -4.931   0.063  -0.721  0.00  0.00    -0.570 OA
ENDROOT
BRANCH   4   7
ATOM      7  C   LIG    1       -5.924  -0.246  -3.173  0.00  0.00    +0.130 A 
ATOM      8  C   LIG    1       -6.090  -0.969  -4.346  0.00  0.00    +0.020 A 
ATOM      9  C   LIG    1       -7.293  -1.596  -4.605  0.00  0.00    -0.060 A 
ATOM     10  C   LIG    1       -8.339  -1.494  -3.699  0.00  0.00    +0.120 A 
ATOM     11  C   LIG    1       -8.175  -0.767  -2.529  0.00  0.00    +0.000 A 
ATOM     12  C   LIG    1       -6.971  -0.144  -2.266  0.00  0.00    +0.070 A 
BRANCH  10  13
ATOM     13  O   LIG    1       -9.524  -2.108  -3.957  0.00  0.00    -0.310 OA
BRANCH  13  14
ATOM     14  C   LIG    1       -9.586  -2.937  -5.120  0.00  0.00    +0.160 C 
ATOM     15  C   LIG    1       -9.951  -2.087  -6.355  0.00  0.00    +0.000 C 
ATOM     16  C   LIG    1      -10.874  -3.011  -7.191  0.00  0.00    +0.020 C 
ATOM     17  C   LIG    1      -11.706  -3.737  -6.105  0.00  0.00    +0.020 C 
ATOM     18  C   LIG    1      -10.701  -3.985  -4.961  0.00  0.00    +0.040 C 
ENDBRANCH  13  14
ENDBRANCH  10  13
ENDBRANCH   4   7
BRANCH   1  19
ATOM     19  C   LIG    1       -2.530   1.070  -0.020  0.00  0.00    +0.360 C 
BRANCH  19  25
ATOM     20  C   LIG    1       -1.169   3.186  -0.079  0.00  0.00    +0.310 A 
ATOM     21  N   LIG    1       -0.011   3.827  -0.072  0.00  0.00    -0.510 NA
ATOM     22  C   LIG    1        1.137   3.181   0.008  0.00  0.00    +0.280 A 
ATOM     23  C   LIG    1        1.170   1.804   0.089  0.00  0.00    -0.040 A 
ATOM     24  C   LIG    1       -0.023   1.093   0.085  0.00  0.00    +0.090 A 
ATOM     25  C   LIG    1       -1.210   1.797  -0.006  0.00  0.00    -0.140 A 
BRANCH  20  27
ATOM     26  C   LIG    1       -2.548   4.747   1.024  0.00  0.00    +0.220 C 
ATOM     27  N   LIG    1       -2.355   3.906  -0.165  0.00  0.00    -0.490 N 
ATOM     28  C   LIG    1       -2.393   4.713  -1.392  0.00  0.00    +0.210 C 
ENDBRANCH  20  27
ENDBRANCH  19  25
ENDBRANCH   1  19
TORSDOF 6
