REMARK  Name = ZINCrD000006fiLT.0
REMARK                            x       y       z     vdW  Elec       q    Type
REMARK                         _______ _______ _______ _____ _____    ______ ____
ROOT
ATOM      1  N   LIG    1        1.114   7.426   4.153  0.00  0.00    -0.670 N 
ATOM      2  H   LIG    1        1.103   6.508   4.464  0.00  0.00    +0.410 HD
ATOM      3  C   LIG    1        1.479   7.705   2.886  0.00  0.00    +0.570 C 
ATOM      4  O   LIG    1        1.583   8.861   2.524  0.00  0.00    -0.510 OA
ENDROOT
BRANCH   1   7
ATOM      5  C   LIG    1        0.719   9.416   7.225  0.00  0.00    +0.140 A 
ATOM      6  C   LIG    1        1.075   8.386   6.368  0.00  0.00    +0.020 A 
ATOM      7  C   LIG    1        0.751   8.463   5.021  0.00  0.00    +0.160 A 
ATOM      8  C   LIG    1        0.062   9.566   4.535  0.00  0.00    +0.040 A 
ATOM      9  C   LIG    1       -0.297  10.591   5.391  0.00  0.00    +0.040 A 
ATOM     10  C   LIG    1        0.029  10.520   6.733  0.00  0.00    +0.060 A 
ATOM     11  F   LIG    1       -0.324  11.523   7.567  0.00  0.00    -0.140 F 
BRANCH   5  13
ATOM     12  C   LIG    1        2.136   8.654   8.977  0.00  0.00    +0.550 C 
ATOM     13  N   LIG    1        1.048   9.345   8.583  0.00  0.00    -0.660 N 
ATOM     14  H   LIG    1        0.493   9.792   9.241  0.00  0.00    +0.420 HD
ATOM     15  O   LIG    1        2.886   8.175   8.148  0.00  0.00    -0.520 OA
BRANCH  12  17
ATOM     16  C   LIG    1        3.491   7.796  10.799  0.00  0.00    +0.160 C 
ATOM     17  C   LIG    1        2.417   8.478  10.410  0.00  0.00    -0.090 C 
ENDBRANCH  12  17
ENDBRANCH   5  13
ENDBRANCH   1   7
BRANCH   3  18
ATOM     18  C   LIG    1        1.753   6.607   1.939  0.00  0.00    -0.180 A 
ATOM     19  C   LIG    1        2.132   6.894   0.625  0.00  0.00    +0.140 A 
ATOM     20  C   LIG    1        2.387   5.867  -0.256  0.00  0.00    -0.020 A 
ATOM     21  C   LIG    1        2.268   4.546   0.160  0.00  0.00    +0.160 A 
ATOM     22  C   LIG    1        1.886   4.257   1.465  0.00  0.00    -0.080 A 
ATOM     23  C   LIG    1        1.635   5.278   2.354  0.00  0.00    +0.090 A 
BRANCH  21  24
ATOM     24  O   LIG    1        2.520   3.537  -0.711  0.00  0.00    -0.290 OA
BRANCH  24  25
ATOM     25  C   LIG    1        2.314   2.204  -0.237  0.00  0.00    +0.150 C 
ATOM     26  C   LIG    1        2.974   1.165  -1.184  0.00  0.00    +0.040 C 
ATOM     27  C   LIG    1        2.090  -0.082  -0.969  0.00  0.00    +0.210 C 
ATOM     28  O   LIG    1        0.833   0.364  -0.447  0.00  0.00    -0.370 OA
ATOM     29  C   LIG    1        0.824   1.797  -0.346  0.00  0.00    +0.200 C 
ENDBRANCH  24  25
ENDBRANCH  21  24
ENDBRANCH   3  18
TORSDOF 6
