REMARK  Name = ZINCqH0000031JME.0
REMARK                            x       y       z     vdW  Elec       q    Type
REMARK                         _______ _______ _______ _____ _____    ______ ____
ROOT
ATOM      1  C   LIG    1       -2.361   1.105   0.110  0.00  0.00    +0.200 A 
ATOM      2  C   LIG    1       -2.286  -0.279   0.192  0.00  0.00    -0.020 A 
ATOM      3  C   LIG    1       -3.442  -1.028   0.287  0.00  0.00    +0.150 A 
ATOM      4  C   LIG    1       -4.675  -0.401   0.291  0.00  0.00    -0.670 A 
ATOM      5  C   LIG    1       -4.753   0.977   0.204  0.00  0.00    +0.150 A 
ATOM      6  C   LIG    1       -3.600   1.732   0.113  0.00  0.00    +0.010 A 
ENDROOT
BRANCH   1   8
ATOM      7  C   LIG    1       -1.125   3.076   0.609  0.00  0.00    +0.510 C 
ATOM      8  N   LIG    1       -1.191   1.867   0.018  0.00  0.00    -0.670 N 
ATOM      9  H   LIG    1       -0.426   1.524  -0.471  0.00  0.00    +0.410 HD
ATOM     10  O   LIG    1       -2.107   3.541   1.149  0.00  0.00    -0.450 OA
BRANCH   7  12
ATOM     11  C   LIG    1        1.254   3.029   1.307  0.00  0.00    +0.100 C 
ATOM     12  C   LIG    1        0.169   3.848   0.605  0.00  0.00    +0.180 C 
ATOM     13  C   LIG    1        0.593   4.125  -0.839  0.00  0.00    +0.090 C 
BRANCH  12  14
ATOM     14  N   LIG    1       -0.018   5.118   1.311  0.00  0.00    -0.360 N 
ATOM     15  C   LIG    1        0.964   5.932   1.754  0.00  0.00    +0.270 A 
ATOM     16  C   LIG    1        0.378   6.998   2.350  0.00  0.00    -0.240 A 
ATOM     17  C   LIG    1       -1.008   6.828   2.268  0.00  0.00    +0.260 A 
ATOM     18 BR   LIG    1        1.276   8.456   3.152  0.00  0.00    -0.020 Br
ATOM     19  N   LIG    1       -1.246   5.705   1.641  0.00  0.00    -0.230 NA
ENDBRANCH  12  14
ENDBRANCH   7  12
ENDBRANCH   1   8
BRANCH   4  20
ATOM     20  S   LIG    1       -6.149  -1.360   0.406  0.00  0.00    +2.490 S 
ATOM     21  O   LIG    1       -7.097  -0.477   0.990  0.00  0.00    -0.930 OA
ATOM     22  O   LIG    1       -5.743  -2.546   1.076  0.00  0.00    -0.940 OA
BRANCH  20  23
ATOM     23  C   LIG    1       -6.590  -1.720  -1.316  0.00  0.00    -0.430 C 
ATOM     24  C   LIG    1       -6.754  -0.405  -2.106  0.00  0.00    +0.050 C 
ATOM     25  C   LIG    1       -7.938  -0.685  -3.066  0.00  0.00    +0.030 C 
ATOM     26  C   LIG    1       -8.893  -1.537  -2.194  0.00  0.00    +0.030 C 
ATOM     27  C   LIG    1       -7.949  -2.440  -1.372  0.00  0.00    +0.060 C 
ENDBRANCH  20  23
ENDBRANCH   4  20
TORSDOF 5
