REMARK  Name = ZINCrD000000Aqf1.0
REMARK                            x       y       z     vdW  Elec       q    Type
REMARK                         _______ _______ _______ _____ _____    ______ ____
ROOT
ATOM      1  O   LIG    1       -1.321  -0.873   0.270  0.00  0.00    -0.500 OA
ATOM      2  C   LIG    1       -2.374  -0.296   0.101  0.00  0.00    +0.520 C 
ATOM      3  N   LIG    1       -2.399   1.049   0.015  0.00  0.00    -0.660 N 
ATOM      4  H   LIG    1       -3.248   1.515  -0.044  0.00  0.00    +0.430 HD
ENDROOT
BRANCH   3   5
ATOM      5  C   LIG    1       -1.207   1.769   0.009  0.00  0.00    +0.220 A 
ATOM      6  C   LIG    1       -0.079   1.246  -0.609  0.00  0.00    +0.010 A 
ATOM      7  C   LIG    1        1.100   1.963  -0.619  0.00  0.00    +0.060 A 
ATOM      8  C   LIG    1        1.170   3.205  -0.009  0.00  0.00    -0.010 A 
ATOM      9  C   LIG    1        0.062   3.738   0.614  0.00  0.00    +0.060 A 
ATOM     10  C   LIG    1       -1.138   3.024   0.632  0.00  0.00    -0.170 A 
BRANCH  10  11
ATOM     11  C   LIG    1       -2.327   3.588   1.297  0.00  0.00    +0.570 C 
ATOM     12  N   LIG    1       -2.233   4.749   1.976  0.00  0.00    -0.700 N 
ATOM     13  H   LIG    1       -1.382   5.213   2.027  0.00  0.00    +0.400 HD
ATOM     14  O   LIG    1       -3.393   3.007   1.233  0.00  0.00    -0.540 OA
BRANCH  12  15
ATOM     15  C   LIG    1       -3.414   5.309   2.637  0.00  0.00    +0.220 C 
ATOM     16  C   LIG    1       -3.660   6.812   2.490  0.00  0.00    +0.010 C 
ATOM     17  C   LIG    1       -3.182   6.242   3.827  0.00  0.00    +0.020 C 
ENDBRANCH  12  15
ENDBRANCH  10  11
ENDBRANCH   3   5
BRANCH   2  18
ATOM     18  C   LIG    1       -3.655  -1.082  -0.012  0.00  0.00    +0.230 C 
BRANCH  18  19
ATOM     19  O   LIG    1       -3.369  -2.477   0.110  0.00  0.00    -0.350 OA
BRANCH  19  20
ATOM     20  C   LIG    1       -4.522  -3.316   0.017  0.00  0.00    +0.310 C 
BRANCH  20  21
ATOM     21  C   LIG    1       -4.107  -4.758   0.158  0.00  0.00    +0.080 A 
ATOM     22  N   LIG    1       -4.035  -5.380   1.274  0.00  0.00    -0.440 NA
ATOM     23  C   LIG    1       -3.652  -6.671   1.251  0.00  0.00    +0.080 A 
ATOM     24  C   LIG    1       -3.495  -7.582   2.314  0.00  0.00    +0.080 A 
ATOM     25  C   LIG    1       -3.087  -8.859   2.074  0.00  0.00    +0.030 A 
ATOM     26  C   LIG    1       -2.819  -9.288   0.782  0.00  0.00    +0.040 A 
ATOM     27  C   LIG    1       -2.965  -8.419  -0.277  0.00  0.00    +0.060 A 
ATOM     28  C   LIG    1       -3.381  -7.109  -0.050  0.00  0.00    -0.180 A 
ATOM     29  S   LIG    1       -3.666  -5.763  -1.148  0.00  0.00    +0.130 S 
ENDBRANCH  20  21
ENDBRANCH  19  20
ENDBRANCH  18  19
ENDBRANCH   2  18
TORSDOF 7
