REMARK  Name = ZINCkj000005g1hd.0
REMARK                            x       y       z     vdW  Elec       q    Type
REMARK                         _______ _______ _______ _____ _____    ______ ____
ROOT
ATOM      1  N   LIG    1        3.499   2.179  -0.018  0.00  0.00    -0.740 N 
ATOM      2  H   LIG    1        3.353   3.138  -0.013  0.00  0.00    +0.400 HD
ATOM      3  C   LIG    1        2.447   1.337  -0.013  0.00  0.00    +0.610 C 
ATOM      4  O   LIG    1        2.631   0.135  -0.020  0.00  0.00    -0.510 OA
ENDROOT
BRANCH   3   5
ATOM      5  C   LIG    1        1.076   1.872   0.002  0.00  0.00    +0.010 A 
ATOM      6  C   LIG    1       -0.013   1.076   0.008  0.00  0.00    -0.060 A 
ATOM      7  S   LIG    1       -1.420   2.047   0.019  0.00  0.00    +0.320 S 
ATOM      8  C   LIG    1       -0.437   3.507   0.024  0.00  0.00    +0.250 A 
ATOM      9  N   LIG    1        0.817   3.183   0.011  0.00  0.00    -0.500 NA
BRANCH   8  10
ATOM     10  N   LIG    1       -0.930   4.806   0.034  0.00  0.00    -0.620 N 
ATOM     11  H   LIG    1       -0.317   5.557   0.031  0.00  0.00    +0.430 HD
ATOM     12  C   LIG    1       -2.260   5.021   0.047  0.00  0.00    +0.510 C 
ATOM     13  O   LIG    1       -3.027   4.082   0.050  0.00  0.00    -0.500 OA
ATOM     14  C   LIG    1       -2.795   6.430   0.058  0.00  0.00    +0.140 C 
ENDBRANCH   8  10
ENDBRANCH   3   5
BRANCH   1  15
ATOM     15  C   LIG    1        4.864   1.647  -0.033  0.00  0.00    +0.320 C 
BRANCH  15  20
ATOM     16  N   LIG    1        5.604   3.695   1.110  0.00  0.00    -0.400 N 
ATOM     17  C   LIG    1        6.801   3.705   1.978  0.00  0.00    +0.250 C 
ATOM     18  C   LIG    1        7.972   3.313   1.042  0.00  0.00    +0.080 C 
ATOM     19  C   LIG    1        7.299   2.260   0.118  0.00  0.00    +0.100 C 
ATOM     20  C   LIG    1        5.864   2.805  -0.037  0.00  0.00    +0.160 C 
ATOM     21  H   LIG    1        4.810   3.355   1.631  0.00  0.00    +0.420 HD
BRANCH  16  23
ATOM     22  C   LIG    1        4.945   5.947   1.809  0.00  0.00    +0.080 C 
ATOM     23  C   LIG    1        5.335   5.056   0.628  0.00  0.00    +0.250 C 
ENDBRANCH  16  23
ENDBRANCH  15  20
ENDBRANCH   1  15
TORSDOF 5
