REMARK  Name = ZINCkj000005g1hd.1
REMARK                            x       y       z     vdW  Elec       q    Type
REMARK                         _______ _______ _______ _____ _____    ______ ____
ROOT
ATOM      1  N   LIG    1        1.143  -0.679  -0.344  0.00  0.00    -0.720 N 
ATOM      2  H   LIG    1        1.972  -0.175  -0.334  0.00  0.00    +0.420 HD
ATOM      3  C   LIG    1       -0.037  -0.033  -0.428  0.00  0.00    +0.610 C 
ATOM      4  O   LIG    1       -1.076  -0.665  -0.441  0.00  0.00    -0.520 OA
ENDROOT
BRANCH   3   5
ATOM      5  C   LIG    1       -0.068   1.437  -0.505  0.00  0.00    +0.010 A 
ATOM      6  C   LIG    1       -1.220   2.133  -0.595  0.00  0.00    -0.070 A 
ATOM      7  S   LIG    1       -0.862   3.804  -0.660  0.00  0.00    +0.310 S 
ATOM      8  C   LIG    1        0.861   3.460  -0.569  0.00  0.00    +0.250 A 
ATOM      9  N   LIG    1        1.042   2.180  -0.495  0.00  0.00    -0.490 NA
BRANCH   8  10
ATOM     10  N   LIG    1        1.871   4.414  -0.574  0.00  0.00    -0.620 N 
ATOM     11  H   LIG    1        2.799   4.138  -0.519  0.00  0.00    +0.430 HD
ATOM     12  C   LIG    1        1.561   5.723  -0.654  0.00  0.00    +0.510 C 
ATOM     13  O   LIG    1        0.400   6.068  -0.723  0.00  0.00    -0.500 OA
ATOM     14  C   LIG    1        2.656   6.758  -0.659  0.00  0.00    +0.140 C 
ENDBRANCH   8  10
ENDBRANCH   3   5
BRANCH   1  15
ATOM     15  C   LIG    1        1.175  -2.141  -0.268  0.00  0.00    +0.280 C 
BRANCH  15  20
ATOM     16  N   LIG    1        2.671  -4.091  -0.171  0.00  0.00    -0.380 N 
ATOM     17  C   LIG    1        3.280  -4.659  -1.393  0.00  0.00    +0.260 C 
ATOM     18  C   LIG    1        4.141  -3.511  -1.977  0.00  0.00    +0.080 C 
ATOM     19  C   LIG    1        3.260  -2.271  -1.670  0.00  0.00    +0.080 C 
ATOM     20  C   LIG    1        2.626  -2.623  -0.308  0.00  0.00    +0.160 C 
ATOM     21  H   LIG    1        3.228  -4.340   0.633  0.00  0.00    +0.430 HD
BRANCH  16  23
ATOM     22  C   LIG    1        1.367  -6.124   0.229  0.00  0.00    +0.080 C 
ATOM     23  C   LIG    1        1.308  -4.614  -0.011  0.00  0.00    +0.250 C 
ENDBRANCH  16  23
ENDBRANCH  15  20
ENDBRANCH   1  15
TORSDOF 5
