REMARK  Name = ZINCqH00000500rL.0
REMARK                            x       y       z     vdW  Elec       q    Type
REMARK                         _______ _______ _______ _____ _____    ______ ____
ROOT
ATOM      1  C   LIG    1        5.416   3.272  -5.940  0.00  0.00    +0.490 C 
ATOM      2  N   LIG    1        5.582   2.339  -4.982  0.00  0.00    -0.640 N 
ATOM      3  H   LIG    1        6.120   1.552  -5.159  0.00  0.00    +0.420 HD
ATOM      4  O   LIG    1        4.744   4.257  -5.719  0.00  0.00    -0.440 OA
ENDROOT
BRANCH   1  13
ATOM      5  C   LIG    1        6.812   6.272  -7.483  0.00  0.00    +0.090 C 
ATOM      6  C   LIG    1        6.700   5.134  -8.499  0.00  0.00    +0.170 C 
ATOM      7  C   LIG    1        6.376   5.621  -9.921  0.00  0.00    +0.090 C 
ATOM      8  C   LIG    1        4.828   5.588  -9.887  0.00  0.00    +0.090 C 
ATOM      9  C   LIG    1        4.497   4.552  -8.838  0.00  0.00    +0.550 C 
ATOM     10  O   LIG    1        3.385   4.120  -8.620  0.00  0.00    -0.500 OA
ATOM     11  S   LIG    1        8.185   4.054  -8.521  0.00  0.00    -0.230 S 
ATOM     12  C   LIG    1        7.598   3.044  -7.094  0.00  0.00    +0.170 C 
ATOM     13  C   LIG    1        6.067   3.091  -7.287  0.00  0.00    +0.270 C 
ATOM     14  N   LIG    1        5.619   4.172  -8.174  0.00  0.00    -0.610 N 
ENDBRANCH   1  13
BRANCH   2  15
ATOM     15  C   LIG    1        4.981   2.506  -3.739  0.00  0.00    +0.270 A 
ATOM     16  N   LIG    1        4.246   3.518  -3.400  0.00  0.00    -0.470 NA
ATOM     17  C   LIG    1        3.749   3.512  -2.176  0.00  0.00    +0.250 A 
ATOM     18  C   LIG    1        4.090   2.449  -1.445  0.00  0.00    -0.230 A 
ATOM     19  S   LIG    1        5.107   1.406  -2.436  0.00  0.00    +0.130 S 
BRANCH  18  20
ATOM     20  C   LIG    1        3.672   2.184  -0.021  0.00  0.00    +0.190 C 
BRANCH  20  21
ATOM     21  C   LIG    1        2.378   1.412  -0.013  0.00  0.00    -0.070 A 
ATOM     22  C   LIG    1        1.171   2.086   0.002  0.00  0.00    +0.020 A 
ATOM     23  C   LIG    1       -0.017   1.378   0.010  0.00  0.00    +0.030 A 
ATOM     24  C   LIG    1        0.002  -0.004   0.002  0.00  0.00    +0.020 A 
ATOM     25  C   LIG    1        1.210  -0.679  -0.013  0.00  0.00    -0.030 A 
ATOM     26 CL   LIG    1        1.234  -2.415  -0.022  0.00  0.00    -0.070 Cl
ATOM     27  C   LIG    1        2.398   0.029  -0.021  0.00  0.00    +0.030 A 
ENDBRANCH  20  21
ENDBRANCH  18  20
ENDBRANCH   2  15
TORSDOF 4
