REMARK  Name = ZINCpk000000pTIU.0
REMARK                            x       y       z     vdW  Elec       q    Type
REMARK                         _______ _______ _______ _____ _____    ______ ____
ROOT
ATOM      1  C   LIG    1       -0.988   2.187  -3.602  0.00  0.00    -0.160 A 
ATOM      2  C   LIG    1       -2.134   2.975  -3.464  0.00  0.00    +0.080 A 
ATOM      3  C   LIG    1       -2.796   3.429  -4.579  0.00  0.00    -0.010 A 
ATOM      4  C   LIG    1       -2.331   3.108  -5.860  0.00  0.00    +0.190 A 
ATOM      5  C   LIG    1       -1.191   2.324  -5.992  0.00  0.00    -0.140 A 
ATOM      6  C   LIG    1       -0.911   2.130  -7.466  0.00  0.00    +0.110 C 
ATOM      7  C   LIG    1       -2.036   2.902  -8.175  0.00  0.00    +0.230 C 
ATOM      8  C   LIG    1       -2.872   1.952  -9.034  0.00  0.00    +0.050 C 
ATOM      9  N   LIG    1       -2.853   3.466  -7.097  0.00  0.00    -0.930 N 
ATOM     10  C   LIG    1       -0.519   1.871  -4.880  0.00  0.00    +0.130 A 
ENDROOT
BRANCH   1  13
ATOM     11  N   LIG    1       -0.727   2.011  -1.176  0.00  0.00    -0.720 N 
ATOM     12  H   LIG    1       -1.522   2.558  -1.077  0.00  0.00    +0.410 HD
ATOM     13  C   LIG    1       -0.274   1.698  -2.407  0.00  0.00    +0.570 C 
ATOM     14  O   LIG    1        0.723   1.013  -2.531  0.00  0.00    -0.530 OA
BRANCH  11  15
ATOM     15  C   LIG    1       -0.019   1.526   0.010  0.00  0.00    +0.200 C 
ATOM     16  C   LIG    1        0.002  -0.004   0.002  0.00  0.00    +0.080 C 
BRANCH  15  18
ATOM     17  C   LIG    1        1.396   3.585   0.008  0.00  0.00    +0.030 C 
ATOM     18  C   LIG    1        1.417   2.055  -0.000  0.00  0.00    +0.050 C 
ENDBRANCH  15  18
BRANCH  15  19
ATOM     19  C   LIG    1       -0.724   2.012   1.250  0.00  0.00    +0.460 C 
ATOM     20  O   LIG    1       -0.765   1.313   2.235  0.00  0.00    -0.490 OA
BRANCH  19  21
ATOM     21  O   LIG    1       -1.307   3.221   1.261  0.00  0.00    -0.360 OA
ATOM     22  C   LIG    1       -1.968   3.624   2.489  0.00  0.00    +0.280 C 
ENDBRANCH  19  21
ENDBRANCH  15  19
ENDBRANCH  11  15
ENDBRANCH   1  13
BRANCH   9  23
ATOM     23  S   LIG    1       -4.206   4.394  -7.322  0.00  0.00    +2.610 S 
ATOM     24  O   LIG    1       -4.972   4.189  -6.143  0.00  0.00    -0.940 OA
ATOM     25  O   LIG    1       -4.698   3.996  -8.594  0.00  0.00    -0.930 OA
ATOM     26  C   LIG    1       -3.581   6.096  -7.385  0.00  0.00    -0.270 C 
ENDBRANCH   9  23
TORSDOF 6
