REMARK  Name = ZINCtV00000tRU6e.0
REMARK                            x       y       z     vdW  Elec       q    Type
REMARK                         _______ _______ _______ _____ _____    ______ ____
ROOT
ATOM      1  O   LIG    1        5.925  -2.051  -0.832  0.00  0.00    -0.580 OA
ATOM      2  C   LIG    1        5.250  -1.604  -1.740  0.00  0.00    +0.710 C 
ATOM      3  N   LIG    1        5.651  -1.761  -3.017  0.00  0.00    -0.650 N 
ATOM      4  H   LIG    1        5.113  -1.405  -3.741  0.00  0.00    +0.410 HD
ATOM      5  N   LIG    1        4.102  -0.952  -1.469  0.00  0.00    -0.740 N 
ATOM      6  H   LIG    1        3.564  -0.596  -2.193  0.00  0.00    +0.400 HD
ENDROOT
BRANCH   3   7
ATOM      7  C   LIG    1        6.849  -2.442  -3.300  0.00  0.00    +0.070 A 
ATOM      8  C   LIG    1        7.695  -2.982  -2.403  0.00  0.00    +0.250 A 
ATOM      9  N   LIG    1        8.755  -3.567  -3.055  0.00  0.00    -0.590 N 
ATOM     10  H   LIG    1        9.493  -4.022  -2.622  0.00  0.00    +0.420 HD
ATOM     11  C   LIG    1        8.614  -3.403  -4.415  0.00  0.00    +0.110 A 
ATOM     12  C   LIG    1        9.384  -3.787  -5.508  0.00  0.00    +0.030 A 
ATOM     13  C   LIG    1        8.969  -3.468  -6.784  0.00  0.00    -0.070 A 
ATOM     14  C   LIG    1        7.787  -2.768  -6.989  0.00  0.00    +0.010 A 
ATOM     15  C   LIG    1        7.016  -2.382  -5.929  0.00  0.00    +0.070 A 
ATOM     16 BR   LIG    1       10.019  -3.990  -8.268  0.00  0.00    -0.050 Br
ATOM     17  C   LIG    1        7.418  -2.694  -4.630  0.00  0.00    -0.100 A 
ENDBRANCH   3   7
BRANCH   5  18
ATOM     18  C   LIG    1        3.667  -0.782  -0.080  0.00  0.00    +0.340 C 
BRANCH  18  19
ATOM     19  C   LIG    1        2.364  -0.025  -0.052  0.00  0.00    -0.110 A 
ATOM     20  C   LIG    1        1.165  -0.712  -0.100  0.00  0.00    +0.050 A 
ATOM     21  C   LIG    1       -0.030  -0.021  -0.075  0.00  0.00    -0.010 A 
ATOM     22  C   LIG    1       -0.027   1.365  -0.000  0.00  0.00    +0.090 A 
ATOM     23  C   LIG    1        1.177   2.052   0.049  0.00  0.00    +0.020 A 
ATOM     24  C   LIG    1        2.370   1.356   0.023  0.00  0.00    +0.060 A 
BRANCH  22  25
ATOM     25  O   LIG    1       -1.202   2.048   0.019  0.00  0.00    -0.250 OA
BRANCH  25  26
ATOM     26  C   LIG    1       -2.001   1.912   1.109  0.00  0.00    +0.150 A 
ATOM     27  C   LIG    1       -3.264   2.486   1.121  0.00  0.00    -0.010 A 
ATOM     28  C   LIG    1       -4.076   2.347   2.230  0.00  0.00    +0.090 A 
ATOM     29  C   LIG    1       -3.632   1.636   3.329  0.00  0.00    -0.050 A 
ATOM     30  C   LIG    1       -2.371   1.061   3.321  0.00  0.00    +0.140 A 
ATOM     31  F   LIG    1       -1.939   0.366   4.396  0.00  0.00    -0.130 F 
ATOM     32  C   LIG    1       -1.558   1.193   2.210  0.00  0.00    -0.090 A 
ENDBRANCH  25  26
ENDBRANCH  22  25
ENDBRANCH  18  19
ENDBRANCH   5  18
TORSDOF 5
