REMARK  Name = ZINCrD0000073X2p.0
REMARK                            x       y       z     vdW  Elec       q    Type
REMARK                         _______ _______ _______ _____ _____    ______ ____
ROOT
ATOM      1  C   LIG    1       -3.218   4.414  -1.466  0.00  0.00    +0.070 C 
ATOM      2  C   LIG    1       -2.567   4.214  -0.097  0.00  0.00    +0.200 C 
ENDROOT
BRANCH   2   3
ATOM      3  C   LIG    1       -2.475   5.540   0.614  0.00  0.00    +0.520 C 
ATOM      4  N   LIG    1       -3.599   6.189   0.975  0.00  0.00    -0.670 N 
ATOM      5  H   LIG    1       -4.466   5.843   0.711  0.00  0.00    +0.420 HD
ATOM      6  O   LIG    1       -1.390   6.021   0.862  0.00  0.00    -0.490 OA
BRANCH   4   7
ATOM      7  C   LIG    1       -3.516   7.364   1.731  0.00  0.00    +0.150 A 
ATOM      8  C   LIG    1       -2.502   7.518   2.667  0.00  0.00    +0.050 A 
ATOM      9  C   LIG    1       -2.419   8.682   3.408  0.00  0.00    +0.040 A 
ATOM     10  C   LIG    1       -3.352   9.686   3.227  0.00  0.00    +0.060 A 
ATOM     11  C   LIG    1       -4.366   9.533   2.299  0.00  0.00    -0.160 A 
ATOM     12  C   LIG    1       -4.451   8.375   1.551  0.00  0.00    +0.040 A 
BRANCH  11  13
ATOM     13  C   LIG    1       -5.380  10.631   2.105  0.00  0.00    +0.510 C 
ATOM     14  F   LIG    1       -5.836  10.616   0.782  0.00  0.00    -0.180 F 
ATOM     15  F   LIG    1       -4.787  11.867   2.380  0.00  0.00    -0.170 F 
ATOM     16  F   LIG    1       -6.459  10.428   2.972  0.00  0.00    -0.170 F 
ENDBRANCH  11  13
ENDBRANCH   4   7
ENDBRANCH   2   3
BRANCH   2  17
ATOM     17  O   LIG    1       -1.234   3.665  -0.270  0.00  0.00    -0.330 OA
BRANCH  17  18
ATOM     18  C   LIG    1       -1.123   2.322  -0.291  0.00  0.00    +0.530 C 
ATOM     19  O   LIG    1       -2.113   1.629  -0.167  0.00  0.00    -0.510 OA
BRANCH  18  20
ATOM     20  C   LIG    1        0.199   1.694  -0.463  0.00  0.00    -0.250 A 
ATOM     21  C   LIG    1        0.326   0.296  -0.486  0.00  0.00    +0.180 A 
ATOM     22  C   LIG    1        1.573  -0.244  -0.654  0.00  0.00    -0.110 A 
ATOM     23  C   LIG    1        2.671   0.603  -0.797  0.00  0.00    +0.430 A 
ATOM     24  N   LIG    1        2.524   1.921  -0.771  0.00  0.00    -0.550 NA
ATOM     25  C   LIG    1        1.343   2.481  -0.612  0.00  0.00    +0.390 A 
BRANCH  23  26
ATOM     26  N   LIG    1        3.933   0.060  -0.967  0.00  0.00    -0.600 N 
ATOM     27  C   LIG    1        5.107   0.935  -1.008  0.00  0.00    +0.290 C 
ATOM     28  C   LIG    1        4.094  -1.390  -1.106  0.00  0.00    +0.310 C 
ENDBRANCH  23  26
ENDBRANCH  18  20
ENDBRANCH  17  18
ENDBRANCH   2  17
TORSDOF 7
