REMARK  Name = ZINCvU000000045h.0
REMARK                            x       y       z     vdW  Elec       q    Type
REMARK                         _______ _______ _______ _____ _____    ______ ____
ROOT
ATOM      1  N   LIG    1        0.940   3.266  -1.927  0.00  0.00    -0.690 N 
ATOM      2  H   LIG    1        0.223   2.636  -2.098  0.00  0.00    +0.410 HD
ATOM      3  C   LIG    1        1.496   3.339  -0.702  0.00  0.00    +0.710 C 
ATOM      4  N   LIG    1        1.162   2.439   0.244  0.00  0.00    -0.620 N 
ATOM      5  C   LIG    1        0.125   1.431  -0.014  0.00  0.00    +0.270 C 
ATOM      6  C   LIG    1        0.702   0.043   0.282  0.00  0.00    +0.020 C 
ATOM      7  C   LIG    1        1.259   0.020   1.707  0.00  0.00    +0.060 C 
ATOM      8  C   LIG    1        2.385   1.048   1.833  0.00  0.00    -0.020 C 
ATOM      9  C   LIG    1        1.828   2.447   1.554  0.00  0.00    +0.320 C 
ATOM     10  O   LIG    1        2.300   4.216  -0.450  0.00  0.00    -0.570 OA
ENDROOT
BRANCH   1  16
ATOM     11  C   LIG    1        0.009   5.883  -5.984  0.00  0.00    +0.090 C 
ATOM     12  C   LIG    1        0.967   5.384  -4.933  0.00  0.00    -0.070 A 
ATOM     13  C   LIG    1        2.299   5.751  -4.983  0.00  0.00    -0.020 A 
ATOM     14  C   LIG    1        3.181   5.295  -4.020  0.00  0.00    +0.030 A 
ATOM     15  C   LIG    1        2.733   4.472  -3.006  0.00  0.00    +0.000 A 
ATOM     16  C   LIG    1        1.396   4.101  -2.953  0.00  0.00    +0.170 A 
ATOM     17  C   LIG    1        0.514   4.556  -3.924  0.00  0.00    -0.030 A 
ENDBRANCH   1  16
BRANCH   8  18
ATOM     18  C   LIG    1        2.956   1.002   3.227  0.00  0.00    +0.520 C 
ATOM     19  N   LIG    1        3.966   1.825   3.570  0.00  0.00    -0.720 N 
ATOM     20  H   LIG    1        4.326   2.448   2.919  0.00  0.00    +0.400 HD
ATOM     21  O   LIG    1        2.506   0.223   4.041  0.00  0.00    -0.530 OA
BRANCH  19  22
ATOM     22  C   LIG    1        4.520   1.780   4.925  0.00  0.00    +0.280 C 
ATOM     23  C   LIG    1        3.680   2.664   5.849  0.00  0.00    +0.040 C 
BRANCH  22  24
ATOM     24  C   LIG    1        5.941   2.283   4.904  0.00  0.00    -0.090 A 
ATOM     25  C   LIG    1        6.881   1.664   5.668  0.00  0.00    +0.040 A 
ATOM     26  C   LIG    1        8.209   2.127   5.647  0.00  0.00    -0.050 A 
ATOM     27  C   LIG    1        9.208   1.512   6.420  0.00  0.00    +0.020 A 
ATOM     28  C   LIG    1       10.482   1.992   6.378  0.00  0.00    +0.010 A 
ATOM     29  C   LIG    1       10.811   3.085   5.580  0.00  0.00    +0.010 A 
ATOM     30  C   LIG    1        9.869   3.706   4.819  0.00  0.00    +0.020 A 
ATOM     31  C   LIG    1        8.543   3.240   4.835  0.00  0.00    -0.050 A 
ATOM     32  C   LIG    1        7.543   3.856   4.064  0.00  0.00    +0.030 A 
ATOM     33  C   LIG    1        6.270   3.377   4.106  0.00  0.00    +0.010 A 
ENDBRANCH  22  24
ENDBRANCH  19  22
ENDBRANCH   8  18
TORSDOF 4
