REMARK  Name = ZINCvU0000000GmU.0
REMARK                            x       y       z     vdW  Elec       q    Type
REMARK                         _______ _______ _______ _____ _____    ______ ____
ROOT
ATOM      1  S   LIG    1        3.066  -5.957  -1.763  0.00  0.00    +0.050 S 
ENDROOT
BRANCH   1   3
ATOM      2  N   LIG    1        4.621  -8.177  -2.457  0.00  0.00    -0.450 N 
ATOM      3  C   LIG    1        4.084  -7.370  -1.494  0.00  0.00    +0.160 A 
ATOM      4  N   LIG    1        4.464  -7.847  -0.330  0.00  0.00    -0.280 NA
ATOM      5  N   LIG    1        5.200  -8.886  -0.498  0.00  0.00    -0.240 NA
ATOM      6  C   LIG    1        5.336  -9.137  -1.779  0.00  0.00    +0.220 A 
BRANCH   6   7
ATOM      7  C   LIG    1        6.107 -10.245  -2.381  0.00  0.00    -0.010 A 
ATOM      8  C   LIG    1        5.532 -11.043  -3.371  0.00  0.00    +0.060 A 
ATOM      9  C   LIG    1        6.257 -12.076  -3.928  0.00  0.00    +0.050 A 
ATOM     10  C   LIG    1        7.553 -12.323  -3.508  0.00  0.00    -0.010 A 
ATOM     11  C   LIG    1        8.130 -11.536  -2.526  0.00  0.00    +0.050 A 
ATOM     12 CL   LIG    1        8.458 -13.624  -4.216  0.00  0.00    -0.040 Cl
ATOM     13  C   LIG    1        7.418 -10.495  -1.964  0.00  0.00    +0.010 A 
ATOM     14 CL   LIG    1        8.145  -9.504  -0.739  0.00  0.00    -0.030 Cl
ENDBRANCH   6   7
BRANCH   2  16
ATOM     15  C   LIG    1        5.657  -7.270  -4.477  0.00  0.00    +0.060 C 
ATOM     16  C   LIG    1        4.468  -8.046  -3.908  0.00  0.00    +0.290 C 
ENDBRANCH   2  16
ENDBRANCH   1   3
BRANCH   1  17
ATOM     17  C   LIG    1        2.766  -5.455  -0.050  0.00  0.00    +0.270 C 
BRANCH  17  18
ATOM     18  C   LIG    1        1.891  -4.228  -0.032  0.00  0.00    +0.180 A 
ATOM     19  N   LIG    1        0.588  -4.213   0.006  0.00  0.00    -0.250 NA
ATOM     20  N   LIG    1        0.172  -2.995   0.016  0.00  0.00    -0.250 NA
ATOM     21  C   LIG    1        1.204  -2.186  -0.025  0.00  0.00    +0.200 A 
ATOM     22  O   LIG    1        2.313  -2.952  -0.052  0.00  0.00    -0.210 OA
BRANCH  21  23
ATOM     23  C   LIG    1        1.160  -0.708  -0.033  0.00  0.00    +0.030 A 
ATOM     24  C   LIG    1       -0.067  -0.043  -0.001  0.00  0.00    +0.110 A 
ATOM     25  C   LIG    1       -0.102   1.336  -0.009  0.00  0.00    +0.120 A 
ATOM     26  C   LIG    1        1.077   2.060  -0.049  0.00  0.00    -0.020 A 
ATOM     27  C   LIG    1        2.296   1.407  -0.080  0.00  0.00    +0.120 A 
ATOM     28  C   LIG    1        2.345   0.029  -0.072  0.00  0.00    +0.080 A 
BRANCH  26  29
ATOM     29  N   LIG    1        1.032   3.540  -0.058  0.00  0.00    +0.020 N 
ATOM     30  O   LIG    1        2.067   4.180  -0.093  0.00  0.00    -0.150 OA
ATOM     31  O   LIG    1       -0.040   4.117  -0.031  0.00  0.00    -0.150 OA
ENDBRANCH  26  29
ENDBRANCH  21  23
ENDBRANCH  17  18
ENDBRANCH   1  17
TORSDOF 7
