REMARK  Name = ZINCtV00000L6keN.0
REMARK                            x       y       z     vdW  Elec       q    Type
REMARK                         _______ _______ _______ _____ _____    ______ ____
ROOT
ATOM      1  C   LIG    1       -0.092   1.381  -0.174  0.00  0.00    +0.110 C 
ATOM      2  C   LIG    1       -0.832   1.955   1.006  0.00  0.00    -0.000 A 
ATOM      3  C   LIG    1       -1.961   2.720   0.808  0.00  0.00    -0.020 A 
ATOM      4  C   LIG    1       -2.645   3.247   1.893  0.00  0.00    +0.080 A 
ATOM      5  C   LIG    1       -2.203   3.021   3.179  0.00  0.00    -0.110 A 
ATOM      6  C   LIG    1       -1.062   2.255   3.398  0.00  0.00    +0.170 A 
ATOM      7  N   LIG    1       -0.406   1.876   4.559  0.00  0.00    -0.490 N 
ATOM      8  C   LIG    1        0.697   1.105   4.258  0.00  0.00    +0.320 A 
ATOM      9  N   LIG    1        1.606   0.531   5.026  0.00  0.00    -0.460 NA
ATOM     10  C   LIG    1        2.596  -0.176   4.471  0.00  0.00    +0.130 A 
ATOM     11  C   LIG    1        3.574  -0.795   5.271  0.00  0.00    +0.040 A 
ATOM     12  C   LIG    1        4.572  -1.510   4.685  0.00  0.00    +0.050 A 
ATOM     13  C   LIG    1        4.643  -1.641   3.299  0.00  0.00    +0.030 A 
ATOM     14  C   LIG    1        3.716  -1.057   2.492  0.00  0.00    +0.070 A 
ATOM     15  C   LIG    1        2.668  -0.310   3.061  0.00  0.00    +0.060 A 
ATOM     16  N   LIG    1        1.745   0.273   2.291  0.00  0.00    -0.390 NA
ATOM     17  C   LIG    1        0.773   0.970   2.848  0.00  0.00    +0.110 A 
ATOM     18  C   LIG    1       -2.955   3.603   4.347  0.00  0.00    +0.100 C 
ATOM     19  C   LIG    1       -0.373   1.719   2.300  0.00  0.00    -0.100 A 
ENDROOT
BRANCH   7  20
ATOM     20  C   LIG    1       -0.826   2.243   5.913  0.00  0.00    +0.330 C 
BRANCH  20  21
ATOM     21  C   LIG    1       -0.293   3.636   6.253  0.00  0.00    +0.180 C 
BRANCH  21  22
ATOM     22  O   LIG    1       -0.702   3.994   7.574  0.00  0.00    -0.300 OA
BRANCH  22  23
ATOM     23  C   LIG    1       -0.308   5.211   8.034  0.00  0.00    +0.140 A 
ATOM     24  C   LIG    1        0.456   6.043   7.230  0.00  0.00    -0.070 A 
ATOM     25  C   LIG    1        0.855   7.280   7.700  0.00  0.00    +0.060 A 
ATOM     26  C   LIG    1        0.494   7.688   8.970  0.00  0.00    +0.000 A 
ATOM     27  C   LIG    1       -0.269   6.861   9.775  0.00  0.00    +0.070 A 
ATOM     28  C   LIG    1       -0.676   5.625   9.308  0.00  0.00    -0.070 A 
ATOM     29 CL   LIG    1       -1.639   4.590  10.315  0.00  0.00    -0.050 Cl
ENDBRANCH  22  23
ENDBRANCH  21  22
ENDBRANCH  20  21
ENDBRANCH   7  20
TORSDOF 4
