REMARK  Name = ZINCrH00000No57r.0
REMARK                            x       y       z     vdW  Elec       q    Type
REMARK                         _______ _______ _______ _____ _____    ______ ____
ROOT
ATOM      1  C   LIG    1        2.215   0.647   0.163  0.00  0.00    +0.150 C 
ATOM      2  C   LIG    1        3.373   1.162   1.039  0.00  0.00    +0.230 C 
ATOM      3  O   LIG    1        4.233   0.686  -0.016  0.00  0.00    -0.330 OA
ATOM      4  C   LIG    1        3.198   0.778  -1.016  0.00  0.00    +0.230 C 
ENDROOT
BRANCH   1   5
ATOM      5  C   LIG    1        1.044   1.592   0.086  0.00  0.00    -0.030 A 
ATOM      6  C   LIG    1        0.837   2.520   1.089  0.00  0.00    +0.060 A 
ATOM      7  C   LIG    1       -0.240   3.383   1.022  0.00  0.00    +0.100 A 
ATOM      8  C   LIG    1       -1.106   3.325  -0.056  0.00  0.00    -0.090 A 
ATOM      9  C   LIG    1       -0.899   2.396  -1.060  0.00  0.00    +0.110 A 
ATOM     10 BR   LIG    1       -2.576   4.511  -0.152  0.00  0.00    -0.020 Br
ATOM     11  C   LIG    1        0.175   1.529  -0.988  0.00  0.00    -0.160 A 
BRANCH  11  12
ATOM     12  C   LIG    1        0.400   0.517  -2.082  0.00  0.00    +0.510 C 
ATOM     13  F   LIG    1        0.503  -0.760  -1.520  0.00  0.00    -0.170 F 
ATOM     14  F   LIG    1        1.582   0.823  -2.764  0.00  0.00    -0.170 F 
ATOM     15  F   LIG    1       -0.676   0.548  -2.975  0.00  0.00    -0.170 F 
ENDBRANCH  11  12
ENDBRANCH   1   5
BRANCH   1  18
ATOM     16  O   LIG    1        3.931  -1.419   0.402  0.00  0.00    -0.540 OA
ATOM     17  C   LIG    1        2.757  -1.696   0.552  0.00  0.00    +0.700 C 
ATOM     18  N   LIG    1        1.819  -0.734   0.452  0.00  0.00    -0.720 N 
ATOM     19  H   LIG    1        0.882  -0.955   0.572  0.00  0.00    +0.400 HD
ATOM     20  N   LIG    1        2.393  -2.966   0.819  0.00  0.00    -0.740 N 
ATOM     21  H   LIG    1        1.456  -3.187   0.939  0.00  0.00    +0.390 HD
BRANCH  20  22
ATOM     22  C   LIG    1        3.412  -4.013   0.928  0.00  0.00    +0.370 C 
BRANCH  22  23
ATOM     23  C   LIG    1        2.748  -5.332   1.229  0.00  0.00    +0.080 A 
ATOM     24  N   LIG    1        2.366  -6.111   0.236  0.00  0.00    -0.440 NA
ATOM     25  C   LIG    1        1.781  -7.273   0.451  0.00  0.00    +0.260 A 
ATOM     26  C   LIG    1        1.546  -7.720   1.738  0.00  0.00    +0.020 A 
ATOM     27  C   LIG    1        1.932  -6.929   2.809  0.00  0.00    +0.040 A 
ATOM     28  C   LIG    1        2.550  -5.715   2.545  0.00  0.00    +0.070 A 
ATOM     29  F   LIG    1        2.949  -4.914   3.557  0.00  0.00    -0.120 F 
ENDBRANCH  22  23
ENDBRANCH  20  22
ENDBRANCH   1  18
TORSDOF 5
