REMARK  Name = ZINCpk00000y6wfd.0
REMARK                            x       y       z     vdW  Elec       q    Type
REMARK                         _______ _______ _______ _____ _____    ______ ____
ROOT
ATOM      1  O   LIG    1        6.123   1.826   0.331  0.00  0.00    -0.580 OA
ATOM      2  C   LIG    1        6.119   0.612   0.270  0.00  0.00    +0.720 C 
ATOM      3  N   LIG    1        7.273  -0.057   0.075  0.00  0.00    -0.640 N 
ATOM      4  C   LIG    1        7.430  -1.523   0.089  0.00  0.00    +0.240 C 
ATOM      5  C   LIG    1        8.697  -1.792  -0.765  0.00  0.00    +0.040 C 
ATOM      6  C   LIG    1        9.598  -0.594  -0.366  0.00  0.00    +0.030 C 
ATOM      7  C   LIG    1        8.585   0.555  -0.182  0.00  0.00    +0.260 C 
ATOM      8  N   LIG    1        4.961  -0.066   0.398  0.00  0.00    -0.750 N 
ATOM      9  H   LIG    1        4.958  -1.035   0.349  0.00  0.00    +0.400 HD
ENDROOT
BRANCH   7  10
ATOM     10  C   LIG    1        8.995   1.425   1.009  0.00  0.00    -0.020 C 
ATOM     11  C   LIG    1        9.025   0.571   2.279  0.00  0.00    +0.210 C 
ATOM     12  O   LIG    1        9.466   1.371   3.378  0.00  0.00    -0.380 OA
ATOM     13  C   LIG    1       10.782   1.905   3.223  0.00  0.00    +0.210 C 
ATOM     14  C   LIG    1       10.821   2.812   1.990  0.00  0.00    -0.030 C 
ATOM     15  C   LIG    1       10.389   2.008   0.760  0.00  0.00    +0.170 C 
BRANCH  15  16
ATOM     16  O   LIG    1       10.352   2.865  -0.383  0.00  0.00    -0.560 OA
ATOM     17  H   LIG    1       11.217   3.209  -0.645  0.00  0.00    +0.380 HD
ENDBRANCH  15  16
ENDBRANCH   7  10
BRANCH   8  18
ATOM     18  C   LIG    1        3.707   0.661   0.611  0.00  0.00    +0.280 C 
BRANCH  18  19
ATOM     19  C   LIG    1        2.552  -0.337   0.722  0.00  0.00    +0.020 C 
BRANCH  19  20
ATOM     20  C   LIG    1        1.242   0.422   0.944  0.00  0.00    +0.270 C 
BRANCH  20  21
ATOM     21  N   LIG    1        0.136  -0.533   1.050  0.00  0.00    -0.730 N 
ATOM     22  H   LIG    1        0.309  -1.485   0.978  0.00  0.00    +0.400 HD
BRANCH  21  23
ATOM     23  C   LIG    1       -1.161  -0.075   1.249  0.00  0.00    +0.400 A 
ATOM     24  C   LIG    1       -1.401   1.291   1.358  0.00  0.00    -0.110 A 
ATOM     25  C   LIG    1       -2.697   1.733   1.552  0.00  0.00    +0.100 A 
ATOM     26  C   LIG    1       -3.712   0.790   1.640  0.00  0.00    -0.100 A 
ATOM     27  C   LIG    1       -3.402  -0.551   1.528  0.00  0.00    +0.310 A 
ATOM     28  N   LIG    1       -2.157  -0.943   1.339  0.00  0.00    -0.550 NA
ENDBRANCH  21  23
ENDBRANCH  20  21
ENDBRANCH  19  20
ENDBRANCH  18  19
ENDBRANCH   8  18
TORSDOF 7
