REMARK  Name = ZINCrH000004jovy.0
REMARK                            x       y       z     vdW  Elec       q    Type
REMARK                         _______ _______ _______ _____ _____    ______ ____
ROOT
ATOM      1  S   LIG    1       -3.266   7.869  -0.258  0.00  0.00    +0.090 S 
ENDROOT
BRANCH   1   3
ATOM      2  N   LIG    1       -4.090  10.533  -0.473  0.00  0.00    -0.450 N 
ATOM      3  C   LIG    1       -3.082   9.618  -0.369  0.00  0.00    +0.140 A 
ATOM      4  N   LIG    1       -1.949  10.284  -0.371  0.00  0.00    -0.290 NA
ATOM      5  N   LIG    1       -2.179  11.545  -0.464  0.00  0.00    -0.270 NA
ATOM      6  C   LIG    1       -3.472  11.761  -0.527  0.00  0.00    +0.230 A 
BRANCH   6   7
ATOM      7  C   LIG    1       -4.138  13.076  -0.640  0.00  0.00    -0.020 A 
ATOM      8  C   LIG    1       -3.426  14.187  -1.094  0.00  0.00    +0.070 A 
ATOM      9  C   LIG    1       -4.055  15.410  -1.202  0.00  0.00    +0.010 A 
ATOM     10  C   LIG    1       -5.387  15.539  -0.850  0.00  0.00    +0.030 A 
ATOM     11  C   LIG    1       -6.098  14.443  -0.394  0.00  0.00    +0.010 A 
ATOM     12  C   LIG    1       -5.482  13.214  -0.286  0.00  0.00    +0.010 A 
ENDBRANCH   6   7
BRANCH   2  14
ATOM     13  C   LIG    1       -6.069  10.144   0.909  0.00  0.00    +0.050 C 
ATOM     14  C   LIG    1       -5.529  10.264  -0.517  0.00  0.00    +0.300 C 
ENDBRANCH   2  14
ENDBRANCH   1   3
BRANCH   1  15
ATOM     15  C   LIG    1       -1.527   7.376  -0.160  0.00  0.00    +0.110 C 
BRANCH  15  16
ATOM     16  C   LIG    1       -1.436   5.875  -0.056  0.00  0.00    +0.540 C 
ATOM     17  N   LIG    1       -0.231   5.277   0.029  0.00  0.00    -0.650 N 
ATOM     18  H   LIG    1        0.573   5.815   0.105  0.00  0.00    +0.420 HD
ATOM     19  O   LIG    1       -2.447   5.205  -0.049  0.00  0.00    -0.500 OA
BRANCH  17  20
ATOM     20  C   LIG    1       -0.139   3.884   0.009  0.00  0.00    +0.190 A 
ATOM     21  C   LIG    1       -1.117   3.144  -0.583  0.00  0.00    +0.040 A 
ATOM     22  C   LIG    1       -1.052   1.752  -0.625  0.00  0.00    +0.070 A 
ATOM     23  C   LIG    1       -0.020   1.071  -0.068  0.00  0.00    +0.050 A 
ATOM     24  C   LIG    1        1.035   1.775   0.566  0.00  0.00    +0.100 A 
ATOM     25  N   LIG    1        2.131   1.339   1.165  0.00  0.00    -0.590 NA
ATOM     26  S   LIG    1        2.950   2.552   1.692  0.00  0.00    +0.810 S 
ATOM     27  N   LIG    1        2.034   3.722   1.232  0.00  0.00    -0.600 NA
ATOM     28  C   LIG    1        0.976   3.233   0.608  0.00  0.00    +0.060 A 
ENDBRANCH  17  20
ENDBRANCH  15  16
ENDBRANCH   1  15
TORSDOF 6
