REMARK  Name = ZINCpk00001AZj4O.0
REMARK                            x       y       z     vdW  Elec       q    Type
REMARK                         _______ _______ _______ _____ _____    ______ ____
ROOT
ATOM      1  C   LIG    1        1.308  -1.539   1.500  0.00  0.00    +0.570 C 
ATOM      2  N   LIG    1        1.153  -0.370   0.847  0.00  0.00    -0.620 N 
ATOM      3  C   LIG    1        0.002  -0.004   0.002  0.00  0.00    +0.270 C 
ATOM      4  C   LIG    1       -0.019   1.545   0.011  0.00  0.00    +0.050 C 
ATOM      5  C   LIG    1        1.497   1.877  -0.002  0.00  0.00    +0.240 C 
ATOM      6  C   LIG    1        2.105   0.750   0.860  0.00  0.00    +0.250 C 
ATOM      7  O   LIG    1        2.304  -1.734   2.173  0.00  0.00    -0.550 OA
ENDROOT
BRANCH   1   9
ATOM      8  C   LIG    1        0.464  -3.713   2.059  0.00  0.00    +0.190 C 
ATOM      9  C   LIG    1        0.310  -2.542   1.405  0.00  0.00    -0.130 C 
BRANCH   8  13
ATOM     10  C   LIG    1       -2.067  -7.979   2.646  0.00  0.00    +0.350 C 
ATOM     11  N   LIG    1       -1.679  -6.632   2.221  0.00  0.00    -0.360 N 
ATOM     12  C   LIG    1       -0.546  -5.996   2.566  0.00  0.00    +0.290 A 
ATOM     13  C   LIG    1       -0.570  -4.753   1.960  0.00  0.00    -0.250 A 
ATOM     14  C   LIG    1       -1.773  -4.673   1.221  0.00  0.00    +0.270 A 
ATOM     15  N   LIG    1       -2.422  -5.793   1.384  0.00  0.00    -0.300 NA
ENDBRANCH   8  13
ENDBRANCH   1   9
BRANCH   5  16
ATOM     16  N   LIG    1        1.745   3.186   0.606  0.00  0.00    -0.690 N 
ATOM     17  H   LIG    1        1.118   3.549   1.251  0.00  0.00    +0.420 HD
BRANCH  16  18
ATOM     18  C   LIG    1        2.880   3.910   0.259  0.00  0.00    +0.440 A 
ATOM     19  C   LIG    1        3.776   3.385  -0.667  0.00  0.00    -0.090 A 
ATOM     20  C   LIG    1        4.901   4.115  -1.004  0.00  0.00    +0.190 A 
ATOM     21  C   LIG    1        5.093   5.351  -0.401  0.00  0.00    -0.160 A 
ATOM     22  C   LIG    1        4.164   5.812   0.509  0.00  0.00    +0.430 A 
ATOM     23  N   LIG    1        3.097   5.095   0.808  0.00  0.00    -0.530 NA
BRANCH  21  24
ATOM     24  N   LIG    1        6.283   6.167  -0.733  0.00  0.00    +0.040 N 
ATOM     25  O   LIG    1        6.446   7.251  -0.200  0.00  0.00    -0.160 OA
ATOM     26  O   LIG    1        7.099   5.755  -1.537  0.00  0.00    -0.170 OA
ENDBRANCH  21  24
ENDBRANCH  16  18
ENDBRANCH   5  16
TORSDOF 5
