REMARK  Name = ZINCqH0000000prj.0
REMARK                            x       y       z     vdW  Elec       q    Type
REMARK                         _______ _______ _______ _____ _____    ______ ____
ROOT
ATOM      1  C   LIG    1        3.414  -1.161   5.626  0.00  0.00    +0.520 C 
ATOM      2  N   LIG    1        2.378  -0.352   5.921  0.00  0.00    -0.670 N 
ATOM      3  H   LIG    1        2.186  -0.126   6.844  0.00  0.00    +0.410 HD
ATOM      4  O   LIG    1        3.711  -1.370   4.469  0.00  0.00    -0.480 OA
ENDROOT
BRANCH   1   9
ATOM      5  C   LIG    1        4.946   0.265  10.238  0.00  0.00    +0.110 C 
ATOM      6  C   LIG    1        5.776  -0.930   9.847  0.00  0.00    +0.520 C 
ATOM      7  N   LIG    1        5.722  -1.405   8.587  0.00  0.00    -0.560 N 
ATOM      8  C   LIG    1        4.928  -0.725   7.550  0.00  0.00    +0.290 C 
ATOM      9  C   LIG    1        4.205  -1.807   6.735  0.00  0.00    +0.180 C 
ATOM     10  O   LIG    1        5.179  -2.691   6.176  0.00  0.00    -0.280 OA
ATOM     11  C   LIG    1        6.130  -3.193   7.008  0.00  0.00    +0.090 A 
ATOM     12  C   LIG    1        6.819  -4.341   6.649  0.00  0.00    +0.020 A 
ATOM     13  C   LIG    1        7.792  -4.855   7.487  0.00  0.00    +0.030 A 
ATOM     14  C   LIG    1        8.082  -4.229   8.684  0.00  0.00    +0.000 A 
ATOM     15  C   LIG    1        7.399  -3.084   9.051  0.00  0.00    +0.050 A 
ATOM     16  C   LIG    1        6.422  -2.566   8.217  0.00  0.00    +0.070 A 
ATOM     17  O   LIG    1        6.493  -1.465  10.666  0.00  0.00    -0.510 OA
ENDBRANCH   1   9
BRANCH   2  18
ATOM     18  C   LIG    1        1.577   0.164   4.893  0.00  0.00    +0.150 A 
ATOM     19  C   LIG    1        1.020   1.430   5.016  0.00  0.00    +0.020 A 
ATOM     20  C   LIG    1        0.231   1.938   4.003  0.00  0.00    +0.070 A 
ATOM     21  C   LIG    1       -0.004   1.184   2.860  0.00  0.00    -0.110 A 
ATOM     22  C   LIG    1        0.550  -0.085   2.740  0.00  0.00    +0.030 A 
ATOM     23  C   LIG    1        1.343  -0.590   3.751  0.00  0.00    +0.040 A 
BRANCH  21  24
ATOM     24  S   LIG    1       -1.010   1.832   1.568  0.00  0.00    -0.090 S 
BRANCH  24  25
ATOM     25  C   LIG    1       -1.005   0.498   0.338  0.00  0.00    +0.430 C 
ATOM     26  F   LIG    1        0.308   0.250  -0.075  0.00  0.00    -0.180 F 
ATOM     27  F   LIG    1       -1.542  -0.662   0.907  0.00  0.00    -0.180 F 
ENDBRANCH  24  25
ENDBRANCH  21  24
ENDBRANCH   2  18
TORSDOF 4
