REMARK  Name = ZINCrH00000tj1nT.0
REMARK                            x       y       z     vdW  Elec       q    Type
REMARK                         _______ _______ _______ _____ _____    ______ ____
ROOT
ATOM      1  C   LIG    1       -2.195  -0.241   4.300  0.00  0.00    +0.270 A 
ATOM      2  N   LIG    1       -2.871  -0.561   5.359  0.00  0.00    -0.500 NA
ATOM      3  C   LIG    1       -2.316  -1.435   6.186  0.00  0.00    +0.130 A 
ATOM      4  C   LIG    1       -1.103  -1.887   5.819  0.00  0.00    -0.110 A 
ATOM      5  S   LIG    1       -0.670  -1.122   4.292  0.00  0.00    +0.210 S 
ENDROOT
BRANCH   3   6
ATOM      6  C   LIG    1       -2.985  -1.884   7.432  0.00  0.00    -0.020 A 
ATOM      7  C   LIG    1       -2.361  -2.809   8.266  0.00  0.00    +0.040 A 
ATOM      8  C   LIG    1       -2.984  -3.221   9.427  0.00  0.00    +0.030 A 
ATOM      9  C   LIG    1       -4.236  -2.727   9.761  0.00  0.00    +0.060 A 
ATOM     10  O   LIG    1       -4.837  -3.155  10.906  0.00  0.00    -0.310 OA
ATOM     11  C   LIG    1       -5.919  -2.360  11.401  0.00  0.00    +0.220 C 
ATOM     12  C   LIG    1       -6.848  -2.028  10.225  0.00  0.00    +0.220 C 
ATOM     13  O   LIG    1       -6.092  -1.307   9.246  0.00  0.00    -0.310 OA
ATOM     14  C   LIG    1       -4.866  -1.806   8.930  0.00  0.00    +0.050 A 
ATOM     15  C   LIG    1       -4.243  -1.385   7.768  0.00  0.00    +0.060 A 
ENDBRANCH   3   6
BRANCH   1  18
ATOM     16  O   LIG    1       -0.743   0.356   2.161  0.00  0.00    -0.480 OA
ATOM     17  C   LIG    1       -1.819   0.907   2.260  0.00  0.00    +0.540 C 
ATOM     18  N   LIG    1       -2.611   0.652   3.321  0.00  0.00    -0.620 N 
ATOM     19  H   LIG    1       -3.471   1.093   3.401  0.00  0.00    +0.430 HD
BRANCH  17  20
ATOM     20  C   LIG    1       -2.270   1.877   1.199  0.00  0.00    -0.040 C 
ATOM     21  C   LIG    1       -2.605   1.308  -0.182  0.00  0.00    +0.090 C 
ATOM     22  C   LIG    1       -1.326   2.123   0.020  0.00  0.00    +0.060 C 
BRANCH  22  23
ATOM     23  C   LIG    1       -0.017   1.378   0.010  0.00  0.00    -0.110 A 
ATOM     24  C   LIG    1        1.185   2.070   0.002  0.00  0.00    +0.060 A 
ATOM     25  C   LIG    1        2.365   1.343  -0.014  0.00  0.00    -0.050 A 
ATOM     26  C   LIG    1        2.305  -0.038  -0.021  0.00  0.00    +0.250 A 
ATOM     27  N   LIG    1        1.144  -0.663  -0.013  0.00  0.00    -0.490 NA
ATOM     28  C   LIG    1        0.002  -0.004   0.002  0.00  0.00    +0.300 A 
ENDBRANCH  22  23
ENDBRANCH  17  20
ENDBRANCH   1  18
TORSDOF 4
