REMARK  Name = ZINCrH00000tj1kF.0
REMARK                            x       y       z     vdW  Elec       q    Type
REMARK                         _______ _______ _______ _____ _____    ______ ____
ROOT
ATOM      1  O   LIG    1       -0.353  -0.550  -0.295  0.00  0.00    -0.420 OA
ATOM      2  C   LIG    1       -0.101   0.629  -0.352  0.00  0.00    +0.380 C 
ATOM      3  C   LIG    1        1.313   1.121  -0.586  0.00  0.00    +0.030 C 
ATOM      4  C   LIG    1        1.666   2.159   0.483  0.00  0.00    +0.050 C 
ATOM      5  C   LIG    1        0.601   3.259   0.521  0.00  0.00    +0.030 C 
ATOM      6  C   LIG    1       -0.740   2.644   0.909  0.00  0.00    +0.350 C 
ATOM      7  N   LIG    1       -1.781   3.657   1.060  0.00  0.00    -0.620 N 
ATOM      8  C   LIG    1       -3.076   3.334   0.870  0.00  0.00    +0.720 C 
ATOM      9  O   LIG    1       -3.924   4.189   1.043  0.00  0.00    -0.580 OA
ATOM     10  N   LIG    1       -3.470   2.107   0.496  0.00  0.00    -0.730 N 
ATOM     11  H   LIG    1       -4.417   1.925   0.399  0.00  0.00    +0.420 HD
ATOM     12  C   LIG    1       -2.505   1.034   0.229  0.00  0.00    +0.310 C 
ATOM     13  C   LIG    1       -1.183   1.671  -0.199  0.00  0.00    -0.010 C 
ENDROOT
BRANCH  12  14
ATOM     14  C   LIG    1       -2.295   0.218   1.478  0.00  0.00    -0.110 A 
ATOM     15  C   LIG    1       -2.459   0.802   2.720  0.00  0.00    +0.100 A 
ATOM     16  C   LIG    1       -2.266   0.053   3.867  0.00  0.00    -0.020 A 
ATOM     17  C   LIG    1       -1.910  -1.278   3.771  0.00  0.00    +0.050 A 
ATOM     18  C   LIG    1       -1.747  -1.863   2.528  0.00  0.00    -0.110 A 
ATOM     19 BR   LIG    1       -1.260  -3.686   2.397  0.00  0.00    -0.060 Br
ATOM     20  C   LIG    1       -1.945  -1.115   1.382  0.00  0.00    +0.100 A 
ENDBRANCH  12  14
BRANCH   6  21
ATOM     21  O   LIG    1       -0.595   1.931   2.139  0.00  0.00    -0.540 OA
ATOM     22  H   LIG    1       -0.305   2.480   2.880  0.00  0.00    +0.380 HD
ENDBRANCH   6  21
BRANCH   7  23
ATOM     23  C   LIG    1       -1.422   5.032   1.418  0.00  0.00    +0.360 C 
BRANCH  23  24
ATOM     24  C   LIG    1       -1.179   5.830   0.164  0.00  0.00    -0.110 A 
ATOM     25  C   LIG    1        0.090   5.892  -0.382  0.00  0.00    +0.010 A 
ATOM     26  C   LIG    1        0.312   6.621  -1.535  0.00  0.00    -0.010 A 
ATOM     27  C   LIG    1       -0.732   7.296  -2.138  0.00  0.00    +0.010 A 
ATOM     28  C   LIG    1       -2.000   7.239  -1.590  0.00  0.00    +0.000 A 
ATOM     29  C   LIG    1       -2.223   6.506  -0.439  0.00  0.00    +0.040 A 
ENDBRANCH  23  24
ENDBRANCH   7  23
TORSDOF 4
