REMARK  Name = ZINCpe00000MGXft.1
REMARK                            x       y       z     vdW  Elec       q    Type
REMARK                         _______ _______ _______ _____ _____    ______ ____
ROOT
ATOM      1  C   LIG    1       -0.955   0.971   4.735  0.00  0.00    +0.580 C 
ATOM      2  N   LIG    1       -0.681   1.736   3.660  0.00  0.00    -0.600 N 
ATOM      3  C   LIG    1       -1.049   3.161   3.631  0.00  0.00    +0.260 C 
ATOM      4  C   LIG    1       -1.807   3.438   2.328  0.00  0.00    +0.240 C 
ATOM      5  O   LIG    1       -1.035   2.959   1.224  0.00  0.00    -0.380 OA
ATOM      6  C   LIG    1       -0.811   1.547   1.234  0.00  0.00    +0.140 C 
ATOM      7  C   LIG    1       -0.003   1.172   2.482  0.00  0.00    +0.290 C 
ATOM      8  O   LIG    1       -0.642  -0.205   4.740  0.00  0.00    -0.510 OA
ENDROOT
BRANCH   1  16
ATOM      9  C   LIG    1       -3.034   1.555   5.981  0.00  0.00    +0.120 A 
ATOM     10  C   LIG    1       -3.663   2.106   7.089  0.00  0.00    +0.080 A 
ATOM     11  C   LIG    1       -2.912   2.664   8.107  0.00  0.00    +0.070 A 
ATOM     12  C   LIG    1       -1.530   2.674   8.034  0.00  0.00    +0.030 A 
ATOM     13  C   LIG    1       -0.886   2.125   6.941  0.00  0.00    +0.140 A 
ATOM     14  F   LIG    1        0.463   2.137   6.874  0.00  0.00    -0.120 F 
ATOM     15  F   LIG    1       -5.011   2.102   7.170  0.00  0.00    -0.120 F 
ATOM     16  C   LIG    1       -1.635   1.557   5.904  0.00  0.00    -0.160 A 
BRANCH   9  18
ATOM     17  C   LIG    1       -4.089  -0.376   5.086  0.00  0.00    +0.260 C 
ATOM     18  O   LIG    1       -3.771   1.013   4.978  0.00  0.00    -0.320 OA
ENDBRANCH   9  18
ENDBRANCH   1  16
BRANCH   6  19
ATOM     19  C   LIG    1       -0.033   1.143  -0.019  0.00  0.00    +0.270 C 
BRANCH  19  20
ATOM     20  N   LIG    1       -0.806   1.506  -1.214  0.00  0.00    -0.360 N 
ATOM     21  C   LIG    1        0.003   1.259  -2.415  0.00  0.00    +0.320 C 
ATOM     22  H   LIG    1       -1.054   2.483  -1.171  0.00  0.00    +0.430 HD
BRANCH  20  23
ATOM     23  C   LIG    1       -2.029   0.693  -1.272  0.00  0.00    +0.150 C 
BRANCH  23  24
ATOM     24  C   LIG    1       -2.881   1.149  -2.428  0.00  0.00    +0.490 C 
ATOM     25  O   LIG    1       -3.947   0.601  -2.653  0.00  0.00    -0.640 OA
ATOM     26  O   LIG    1       -2.505   2.066  -3.138  0.00  0.00    -0.670 OA
ENDBRANCH  23  24
ENDBRANCH  20  23
ENDBRANCH  19  20
ENDBRANCH   6  19
TORSDOF 6
