REMARK  Name = ZINCpe00000MGXft.0
REMARK                            x       y       z     vdW  Elec       q    Type
REMARK                         _______ _______ _______ _____ _____    ______ ____
ROOT
ATOM      1  C   LIG    1        3.705  -0.674  -0.037  0.00  0.00    +0.580 C 
ATOM      2  N   LIG    1        4.306  -1.006   1.122  0.00  0.00    -0.600 N 
ATOM      3  C   LIG    1        3.696  -0.663   2.417  0.00  0.00    +0.260 C 
ATOM      4  C   LIG    1        4.747   0.035   3.282  0.00  0.00    +0.240 C 
ATOM      5  O   LIG    1        5.928  -0.768   3.329  0.00  0.00    -0.380 OA
ATOM      6  C   LIG    1        6.556  -0.962   2.059  0.00  0.00    +0.140 C 
ATOM      7  C   LIG    1        5.595  -1.715   1.132  0.00  0.00    +0.290 C 
ATOM      8  O   LIG    1        4.227  -0.962  -1.097  0.00  0.00    -0.510 OA
ENDROOT
BRANCH   1  16
ATOM      9  C   LIG    1        1.212  -0.684  -0.014  0.00  0.00    +0.130 A 
ATOM     10  C   LIG    1        0.002  -0.004   0.002  0.00  0.00    +0.080 A 
ATOM     11  C   LIG    1       -0.017   1.379   0.010  0.00  0.00    +0.070 A 
ATOM     12  C   LIG    1        1.167   2.096   0.002  0.00  0.00    +0.030 A 
ATOM     13  C   LIG    1        2.381   1.436  -0.013  0.00  0.00    +0.140 A 
ATOM     14  F   LIG    1        3.534   2.140  -0.021  0.00  0.00    -0.120 F 
ATOM     15  F   LIG    1       -1.159  -0.694   0.009  0.00  0.00    -0.120 F 
ATOM     16  C   LIG    1        2.414   0.037  -0.021  0.00  0.00    -0.160 A 
BRANCH   9  18
ATOM     17  C   LIG    1        1.227  -2.683  -1.298  0.00  0.00    +0.260 C 
ATOM     18  O   LIG    1        1.231  -2.041  -0.021  0.00  0.00    -0.320 OA
ENDBRANCH   9  18
ENDBRANCH   1  16
BRANCH   6  19
ATOM     19  C   LIG    1        7.837  -1.778   2.240  0.00  0.00    +0.270 C 
BRANCH  19  20
ATOM     20  N   LIG    1        8.757  -1.055   3.128  0.00  0.00    -0.360 N 
ATOM     21  C   LIG    1        9.180   0.195   2.483  0.00  0.00    +0.310 C 
ATOM     22  H   LIG    1        8.288  -0.844   3.997  0.00  0.00    +0.430 HD
BRANCH  20  23
ATOM     23  C   LIG    1        9.935  -1.891   3.398  0.00  0.00    +0.160 C 
BRANCH  23  24
ATOM     24  C   LIG    1       10.819  -1.202   4.405  0.00  0.00    +0.490 C 
ATOM     25  O   LIG    1       11.856  -1.730   4.769  0.00  0.00    -0.640 OA
ATOM     26  O   LIG    1       10.498  -0.116   4.856  0.00  0.00    -0.670 OA
ENDBRANCH  23  24
ENDBRANCH  20  23
ENDBRANCH  19  20
ENDBRANCH   6  19
TORSDOF 6
