REMARK  Name = ZINCvU00000008KB.0
REMARK                            x       y       z     vdW  Elec       q    Type
REMARK                         _______ _______ _______ _____ _____    ______ ____
ROOT
ATOM      1  C   LIG    1       10.050   3.855   0.427  0.00  0.00    +0.150 A 
ATOM      2  N   LIG    1       10.062   5.160   0.272  0.00  0.00    -0.290 NA
ATOM      3  N   LIG    1       11.263   5.606   0.372  0.00  0.00    -0.260 NA
ATOM      4  C   LIG    1       12.095   4.614   0.588  0.00  0.00    +0.240 A 
ATOM      5  N   LIG    1       11.344   3.459   0.630  0.00  0.00    -0.410 N 
ENDROOT
BRANCH   4   6
ATOM      6  C   LIG    1       13.560   4.715   0.753  0.00  0.00    -0.020 A 
ATOM      7  C   LIG    1       14.149   5.947   1.043  0.00  0.00    +0.070 A 
ATOM      8  C   LIG    1       15.517   6.034   1.200  0.00  0.00    +0.010 A 
ATOM      9  C   LIG    1       16.306   4.906   1.062  0.00  0.00    +0.030 A 
ATOM     10  C   LIG    1       15.729   3.683   0.770  0.00  0.00    +0.010 A 
ATOM     11  C   LIG    1       14.362   3.581   0.615  0.00  0.00    +0.030 A 
ENDBRANCH   4   6
BRANCH   5  12
ATOM     12  C   LIG    1       11.808   2.153   0.838  0.00  0.00    +0.100 A 
ATOM     13  C   LIG    1       12.330   1.789   2.072  0.00  0.00    +0.040 A 
ATOM     14  C   LIG    1       12.782   0.499   2.275  0.00  0.00    +0.040 A 
ATOM     15  C   LIG    1       12.725  -0.425   1.248  0.00  0.00    +0.040 A 
ATOM     16  C   LIG    1       12.210  -0.063   0.017  0.00  0.00    +0.040 A 
ATOM     17  C   LIG    1       11.752   1.223  -0.191  0.00  0.00    +0.030 A 
ENDBRANCH   5  12
BRANCH   1  18
ATOM     18  S   LIG    1        8.633   2.809   0.376  0.00  0.00    +0.100 S 
BRANCH  18  19
ATOM     19  C   LIG    1        7.343   4.043   0.077  0.00  0.00    +0.110 C 
BRANCH  19  22
ATOM     20  N   LIG    1        4.888   4.083  -0.226  0.00  0.00    -0.660 N 
ATOM     21  H   LIG    1        4.955   5.034  -0.404  0.00  0.00    +0.410 HD
ATOM     22  C   LIG    1        6.003   3.358  -0.006  0.00  0.00    +0.530 C 
ATOM     23  O   LIG    1        5.927   2.154   0.124  0.00  0.00    -0.500 OA
BRANCH  20  27
ATOM     24  C   LIG    1        1.150   2.237  -0.137  0.00  0.00    +0.120 A 
ATOM     25  C   LIG    1        1.379   3.298  -1.001  0.00  0.00    -0.060 A 
ATOM     26  C   LIG    1        2.615   3.913  -1.027  0.00  0.00    +0.030 A 
ATOM     27  C   LIG    1        3.632   3.463  -0.195  0.00  0.00    +0.100 A 
ATOM     28  C   LIG    1        3.403   2.398   0.666  0.00  0.00    +0.060 A 
ATOM     29  C   LIG    1        2.165   1.788   0.695  0.00  0.00    +0.010 A 
BRANCH  24  30
ATOM     30  O   LIG    1       -0.069   1.635  -0.108  0.00  0.00    -0.320 OA
BRANCH  30  32
ATOM     31  C   LIG    1       -2.361   1.351  -0.818  0.00  0.00    +0.070 C 
ATOM     32  C   LIG    1       -1.067   2.150  -0.991  0.00  0.00    +0.170 C 
ENDBRANCH  30  32
ENDBRANCH  24  30
ENDBRANCH  20  27
ENDBRANCH  19  22
ENDBRANCH  18  19
ENDBRANCH   1  18
TORSDOF 8
