REMARK  Name = ZINCvU0000000AE4.0
REMARK                            x       y       z     vdW  Elec       q    Type
REMARK                         _______ _______ _______ _____ _____    ______ ____
ROOT
ATOM      1  O   LIG    1       -0.985  -0.571   0.573  0.00  0.00    -0.510 OA
ATOM      2  C   LIG    1        0.025   0.018   0.252  0.00  0.00    +0.520 C 
ATOM      3  N   LIG    1       -0.016   1.344   0.009  0.00  0.00    -0.570 N 
ENDROOT
BRANCH   3   4
ATOM      4  C   LIG    1       -1.243   2.020   0.021  0.00  0.00    +0.150 A 
ATOM      5  C   LIG    1       -2.187   1.762  -0.964  0.00  0.00    +0.030 A 
ATOM      6  C   LIG    1       -3.399   2.425  -0.951  0.00  0.00    +0.040 A 
ATOM      7  C   LIG    1       -3.672   3.358   0.039  0.00  0.00    +0.050 A 
ATOM      8  O   LIG    1       -4.869   4.008   0.031  0.00  0.00    -0.310 OA
ATOM      9  C   LIG    1       -5.257   4.657   1.247  0.00  0.00    +0.220 C 
ATOM     10  C   LIG    1       -4.052   5.447   1.775  0.00  0.00    +0.220 C 
ATOM     11  O   LIG    1       -2.979   4.528   2.007  0.00  0.00    -0.310 OA
ATOM     12  C   LIG    1       -2.727   3.620   1.025  0.00  0.00    +0.060 A 
ATOM     13  C   LIG    1       -1.514   2.951   1.014  0.00  0.00    +0.030 A 
ENDBRANCH   3   4
BRANCH   3  14
ATOM     14  C   LIG    1        1.221   2.076  -0.272  0.00  0.00    +0.380 C 
BRANCH  14  15
ATOM     15  C   LIG    1        1.483   2.068  -1.756  0.00  0.00    -0.210 A 
ATOM     16  C   LIG    1        1.047   2.987  -2.618  0.00  0.00    +0.030 A 
ATOM     17  C   LIG    1        1.413   2.771  -3.936  0.00  0.00    +0.000 A 
ATOM     18  C   LIG    1        2.147   1.677  -4.143  0.00  0.00    -0.030 A 
ATOM     19  S   LIG    1        2.418   0.850  -2.614  0.00  0.00    +0.100 S 
ENDBRANCH  14  15
ENDBRANCH   3  14
BRANCH   2  20
ATOM     20  C   LIG    1        1.327  -0.731   0.124  0.00  0.00    +0.060 C 
BRANCH  20  21
ATOM     21  C   LIG    1        1.099  -2.208   0.451  0.00  0.00    +0.060 C 
BRANCH  21  22
ATOM     22  C   LIG    1        2.420  -2.968   0.321  0.00  0.00    +0.140 C 
BRANCH  22  23
ATOM     23  C   LIG    1        2.196  -4.423   0.642  0.00  0.00    +0.100 A 
ATOM     24  N   LIG    1        1.873  -5.310  -0.221  0.00  0.00    -0.460 NA
ATOM     25  C   LIG    1        1.708  -6.576   0.208  0.00  0.00    +0.080 A 
ATOM     26  C   LIG    1        1.362  -7.734  -0.516  0.00  0.00    +0.080 A 
ATOM     27  C   LIG    1        1.240  -8.933   0.118  0.00  0.00    +0.030 A 
ATOM     28  C   LIG    1        1.453  -9.039   1.485  0.00  0.00    +0.040 A 
ATOM     29  C   LIG    1        1.793  -7.924   2.218  0.00  0.00    +0.060 A 
ATOM     30  C   LIG    1        1.922  -6.689   1.587  0.00  0.00    -0.180 A 
ATOM     31  S   LIG    1        2.335  -5.093   2.206  0.00  0.00    +0.100 S 
ENDBRANCH  22  23
ENDBRANCH  21  22
ENDBRANCH  20  21
ENDBRANCH   2  20
TORSDOF 7
