REMARK  Name = ZINCrD0000074o33.0
REMARK                            x       y       z     vdW  Elec       q    Type
REMARK                         _______ _______ _______ _____ _____    ______ ____
ROOT
ATOM      1  C   LIG    1        1.251  -2.158  -0.021  0.00  0.00    +0.520 C 
ATOM      2  O   LIG    1        0.211  -2.786  -0.014  0.00  0.00    -0.500 OA
ENDROOT
BRANCH   1   3
ATOM      3  C   LIG    1        1.223  -0.681  -0.013  0.00  0.00    -0.090 A 
ATOM      4  C   LIG    1        2.416   0.043  -0.021  0.00  0.00    +0.040 A 
ATOM      5  C   LIG    1        2.386   1.423  -0.013  0.00  0.00    +0.050 A 
ATOM      6  C   LIG    1        1.176   2.091   0.002  0.00  0.00    -0.030 A 
ATOM      7  C   LIG    1       -0.017   1.380   0.010  0.00  0.00    +0.120 A 
ATOM      8  C   LIG    1        0.002  -0.004   0.002  0.00  0.00    +0.060 A 
BRANCH   7   9
ATOM      9  O   LIG    1       -1.203   2.043   0.019  0.00  0.00    -0.300 OA
BRANCH   9  10
ATOM     10  C   LIG    1       -1.148   3.471   0.026  0.00  0.00    +0.240 C 
BRANCH  10  11
ATOM     11  C   LIG    1       -2.549   4.028   0.036  0.00  0.00    -0.100 A 
ATOM     12  C   LIG    1       -3.194   4.295  -1.157  0.00  0.00    +0.030 A 
ATOM     13  C   LIG    1       -4.481   4.801  -1.148  0.00  0.00    +0.010 A 
ATOM     14  C   LIG    1       -5.117   5.050   0.054  0.00  0.00    +0.020 A 
ATOM     15  C   LIG    1       -4.470   4.787   1.246  0.00  0.00    +0.010 A 
ATOM     16  C   LIG    1       -3.185   4.277   1.238  0.00  0.00    +0.030 A 
ENDBRANCH  10  11
ENDBRANCH   9  10
ENDBRANCH   7   9
ENDBRANCH   1   3
BRANCH   1  17
ATOM     17  O   LIG    1        2.431  -2.809  -0.036  0.00  0.00    -0.330 OA
BRANCH  17  18
ATOM     18  C   LIG    1        2.383  -4.260  -0.043  0.00  0.00    +0.280 C 
BRANCH  18  21
ATOM     19  N   LIG    1        3.989  -6.141  -0.068  0.00  0.00    -0.630 N 
ATOM     20  H   LIG    1        3.231  -6.747  -0.063  0.00  0.00    +0.420 HD
ATOM     21  C   LIG    1        3.786  -4.809  -0.059  0.00  0.00    +0.530 C 
ATOM     22  O   LIG    1        4.734  -4.051  -0.064  0.00  0.00    -0.490 OA
BRANCH  19  26
ATOM     23  C   LIG    1        8.952  -6.610  -0.118  0.00  0.00    +0.190 C 
ATOM     24  C   LIG    1        7.464  -6.846  -0.104  0.00  0.00    -0.020 A 
ATOM     25  C   LIG    1        6.496  -5.902  -0.091  0.00  0.00    -0.040 A 
ATOM     26  C   LIG    1        5.288  -6.649  -0.083  0.00  0.00    +0.250 A 
ATOM     27  N   LIG    1        5.638  -7.909  -0.087  0.00  0.00    -0.390 NA
ATOM     28  O   LIG    1        6.841  -8.034  -0.104  0.00  0.00    +0.100 OA
ENDBRANCH  19  26
ENDBRANCH  18  21
ENDBRANCH  17  18
ENDBRANCH   1  17
TORSDOF 8
