REMARK  Name = ZINCvU00000004Ey.0
REMARK                            x       y       z     vdW  Elec       q    Type
REMARK                         _______ _______ _______ _____ _____    ______ ____
ROOT
ATOM      1  C   LIG    1       -1.250  -0.763   0.025  0.00  0.00    -0.260 A 
ATOM      2  C   LIG    1       -2.516  -0.251   0.227  0.00  0.00    +0.340 A 
ATOM      3  N   LIG    1       -3.377  -1.282   0.269  0.00  0.00    -0.300 N 
ATOM      4  N   LIG    1       -2.682  -2.482   0.094  0.00  0.00    -0.270 NA
ATOM      5  C   LIG    1       -1.403  -2.220  -0.063  0.00  0.00    +0.190 A 
ENDROOT
BRANCH   5   6
ATOM      6  C   LIG    1       -0.321  -3.209  -0.282  0.00  0.00    -0.030 A 
ATOM      7  C   LIG    1        0.757  -2.894  -1.108  0.00  0.00    +0.110 A 
ATOM      8  C   LIG    1        1.764  -3.816  -1.305  0.00  0.00    +0.020 A 
ATOM      9  C   LIG    1        1.700  -5.056  -0.692  0.00  0.00    -0.020 A 
ATOM     10  C   LIG    1        0.630  -5.375   0.125  0.00  0.00    +0.020 A 
ATOM     11 CL   LIG    1        2.968  -6.214  -0.950  0.00  0.00    -0.070 Cl
ATOM     12  C   LIG    1       -0.380  -4.458   0.333  0.00  0.00    +0.070 A 
ENDBRANCH   5   6
BRANCH   3  13
ATOM     13  C   LIG    1       -4.760  -1.171   0.459  0.00  0.00    +0.140 A 
ATOM     14  C   LIG    1       -5.342   0.078   0.628  0.00  0.00    +0.000 A 
ATOM     15  C   LIG    1       -6.707   0.184   0.809  0.00  0.00    +0.050 A 
ATOM     16  C   LIG    1       -7.493  -0.953   0.834  0.00  0.00    +0.010 A 
ATOM     17  C   LIG    1       -6.916  -2.199   0.671  0.00  0.00    +0.040 A 
ATOM     18  C   LIG    1       -5.553  -2.312   0.484  0.00  0.00    +0.030 A 
ENDBRANCH   3  13
BRANCH   1  19
ATOM     19  C   LIG    1        0.002  -0.001  -0.087  0.00  0.00    +0.540 C 
ATOM     20  O   LIG    1        1.054  -0.583  -0.267  0.00  0.00    -0.480 OA
BRANCH  19  21
ATOM     21  O   LIG    1       -0.016   1.344   0.009  0.00  0.00    -0.280 OA
BRANCH  21  27
ATOM     22  C   LIG    1        1.787   2.316  -1.208  0.00  0.00    +0.120 A 
ATOM     23  C   LIG    1        3.007   2.962  -1.217  0.00  0.00    +0.010 A 
ATOM     24  C   LIG    1        3.636   3.277  -0.006  0.00  0.00    -0.150 A 
ATOM     25  C   LIG    1        3.025   2.935   1.205  0.00  0.00    +0.060 A 
ATOM     26  C   LIG    1        1.805   2.296   1.205  0.00  0.00    +0.060 A 
ATOM     27  C   LIG    1        1.184   1.979   0.004  0.00  0.00    +0.090 A 
BRANCH  22  29
ATOM     28  C   LIG    1        1.846   2.383  -3.585  0.00  0.00    +0.250 C 
ATOM     29  O   LIG    1        1.172   2.008  -2.382  0.00  0.00    -0.310 OA
ENDBRANCH  22  29
BRANCH  24  30
ATOM     30  C   LIG    1        4.935   3.964  -0.009  0.00  0.00    +0.490 C 
ATOM     31  O   LIG    1        5.463   4.259  -1.060  0.00  0.00    -0.450 OA
ENDBRANCH  24  30
ENDBRANCH  21  27
ENDBRANCH  19  21
ENDBRANCH   1  19
TORSDOF 7
