REMARK  Name = ZINCrH000004nVE7.0
REMARK                            x       y       z     vdW  Elec       q    Type
REMARK                         _______ _______ _______ _____ _____    ______ ____
ROOT
ATOM      1  C   LIG    1       -0.010   4.110   0.118  0.00  0.00    +0.510 C 
ATOM      2  N   LIG    1        1.165   3.457   0.011  0.00  0.00    -0.670 N 
ATOM      3  H   LIG    1        1.993   3.958  -0.055  0.00  0.00    +0.420 HD
ATOM      4  O   LIG    1       -1.035   3.487   0.298  0.00  0.00    -0.500 OA
ENDROOT
BRANCH   2   5
ATOM      5  C   LIG    1        1.189   2.058  -0.005  0.00  0.00    +0.180 A 
ATOM      6  C   LIG    1        0.161   1.351  -0.612  0.00  0.00    +0.060 A 
ATOM      7  C   LIG    1        0.188  -0.032  -0.627  0.00  0.00    -0.020 A 
ATOM      8  C   LIG    1        1.238  -0.713  -0.038  0.00  0.00    +0.050 A 
ATOM      9  C   LIG    1        2.266  -0.016   0.568  0.00  0.00    +0.050 A 
ATOM     10 CL   LIG    1       -1.100  -0.914  -1.385  0.00  0.00    -0.050 Cl
ATOM     11  C   LIG    1        2.247   1.370   0.588  0.00  0.00    +0.120 A 
BRANCH  11  12
ATOM     12  N   LIG    1        3.289   2.079   1.204  0.00  0.00    -0.320 N 
ATOM     13  C   LIG    1        4.319   1.559   1.898  0.00  0.00    +0.500 A 
ATOM     14  N   LIG    1        5.073   2.548   2.307  0.00  0.00    -0.530 NA
ATOM     15  C   LIG    1        4.556   3.708   1.902  0.00  0.00    +0.450 A 
ATOM     16  N   LIG    1        3.463   3.473   1.223  0.00  0.00    -0.340 NA
ENDBRANCH  11  12
ENDBRANCH   2   5
BRANCH   1  17
ATOM     17  C   LIG    1       -0.049   5.612   0.015  0.00  0.00    +0.220 C 
BRANCH  17  18
ATOM     18  N   LIG    1       -1.435   6.077   0.163  0.00  0.00    -0.520 NA
ATOM     19  C   LIG    1       -1.939   5.807   1.516  0.00  0.00    +0.200 C 
BRANCH  18  20
ATOM     20  C   LIG    1       -1.550   7.505  -0.165  0.00  0.00    +0.240 C 
BRANCH  20  24
ATOM     21  C   LIG    1       -5.678   8.591  -0.382  0.00  0.00    -0.080 A 
ATOM     22  C   LIG    1       -4.995   8.684   0.825  0.00  0.00    +0.030 A 
ATOM     23  C   LIG    1       -3.662   8.332   0.891  0.00  0.00    +0.030 A 
ATOM     24  C   LIG    1       -3.005   7.887  -0.242  0.00  0.00    -0.080 A 
ATOM     25  C   LIG    1       -3.680   7.798  -1.446  0.00  0.00    +0.050 A 
ATOM     26  C   LIG    1       -5.015   8.143  -1.518  0.00  0.00    -0.010 A 
BRANCH  21  28
ATOM     27  C   LIG    1       -7.788   8.745  -2.214  0.00  0.00    +0.140 C 
ATOM     28  S   LIG    1       -7.379   9.039  -0.471  0.00  0.00    -0.120 S 
ENDBRANCH  21  28
ENDBRANCH  20  24
ENDBRANCH  18  20
ENDBRANCH  17  18
ENDBRANCH   1  17
TORSDOF 7
