REMARK  Name = ZINCrH000004v640.0
REMARK                            x       y       z     vdW  Elec       q    Type
REMARK                         _______ _______ _______ _____ _____    ______ ____
ROOT
ATOM      1  O   LIG    1        1.279   5.828  -0.087  0.00  0.00    -0.570 OA
ATOM      2  C   LIG    1        2.339   5.233  -0.094  0.00  0.00    +0.710 C 
ATOM      3  N   LIG    1        3.495   5.917  -0.203  0.00  0.00    -0.630 N 
ATOM      4  C   LIG    1        4.780   5.212  -0.323  0.00  0.00    +0.270 C 
ATOM      5  C   LIG    1        5.531   5.783  -1.537  0.00  0.00    +0.170 C 
ATOM      6  N   LIG    1        5.634   7.242  -1.401  0.00  0.00    -0.530 NA
ATOM      7  C   LIG    1        4.307   7.873  -1.410  0.00  0.00    +0.170 C 
ATOM      8  C   LIG    1        3.506   7.388  -0.198  0.00  0.00    +0.310 C 
ATOM      9  N   LIG    1        2.358   3.889   0.006  0.00  0.00    -0.690 N 
ATOM     10  H   LIG    1        3.204   3.420   0.076  0.00  0.00    +0.410 HD
ENDROOT
BRANCH   9  11
ATOM     11  C   LIG    1        1.156   3.170   0.008  0.00  0.00    +0.160 A 
ATOM     12  C   LIG    1        0.072   3.624  -0.732  0.00  0.00    +0.060 A 
ATOM     13  C   LIG    1       -1.112   2.914  -0.729  0.00  0.00    +0.010 A 
ATOM     14  C   LIG    1       -1.221   1.752   0.016  0.00  0.00    +0.080 A 
ATOM     15  C   LIG    1       -0.140   1.294   0.751  0.00  0.00    +0.010 A 
ATOM     16  F   LIG    1       -2.382   1.061   0.023  0.00  0.00    -0.140 F 
ATOM     17  C   LIG    1        1.046   2.002   0.750  0.00  0.00    +0.020 A 
ENDBRANCH   9  11
BRANCH   6  18
ATOM     18  C   LIG    1        6.494   7.809  -2.447  0.00  0.00    +0.240 C 
BRANCH  18  19
ATOM     19  C   LIG    1        7.908   7.324  -2.254  0.00  0.00    -0.140 A 
ATOM     20  C   LIG    1        8.776   8.039  -1.480  0.00  0.00    +0.110 A 
ATOM     21  C   LIG    1       10.085   7.546  -1.322  0.00  0.00    -0.100 A 
ATOM     22  C   LIG    1       11.032   8.223  -0.536  0.00  0.00    +0.030 A 
ATOM     23  C   LIG    1       12.289   7.715  -0.411  0.00  0.00    +0.010 A 
ATOM     24  C   LIG    1       12.650   6.533  -1.054  0.00  0.00    +0.030 A 
ATOM     25  C   LIG    1       11.758   5.851  -1.823  0.00  0.00    +0.050 A 
ATOM     26  C   LIG    1       10.450   6.343  -1.976  0.00  0.00    +0.120 A 
ATOM     27  N   LIG    1        9.552   5.694  -2.724  0.00  0.00    -0.470 NA
ATOM     28  C   LIG    1        8.331   6.147  -2.870  0.00  0.00    +0.290 A 
ENDBRANCH  18  19
ENDBRANCH   6  18
TORSDOF 3
