REMARK  Name = ZINCnE000001Ix9n.0
REMARK                            x       y       z     vdW  Elec       q    Type
REMARK                         _______ _______ _______ _____ _____    ______ ____
ROOT
ATOM      1  C   LIG    1       -2.181   0.929  -0.987  0.00  0.00    +0.290 C 
ATOM      2  N   LIG    1       -2.490  -0.017   0.088  0.00  0.00    -0.590 N 
ATOM      3  C   LIG    1       -1.569  -0.286   1.035  0.00  0.00    +0.580 C 
ATOM      4  O   LIG    1       -1.776  -1.160   1.852  0.00  0.00    -0.540 OA
ENDROOT
BRANCH   2   5
ATOM      5  C   LIG    1       -3.800  -0.671   0.133  0.00  0.00    +0.220 C 
ATOM      6  C   LIG    1       -4.678  -0.134  -0.999  0.00  0.00    +0.020 C 
ATOM      7  C   LIG    1       -4.856   1.377  -0.832  0.00  0.00    +0.000 C 
ATOM      8  C   LIG    1       -5.524   1.667   0.513  0.00  0.00    -0.010 C 
ATOM      9  C   LIG    1       -4.646   1.129   1.645  0.00  0.00    +0.020 C 
ATOM     10  C   LIG    1       -4.468  -0.382   1.479  0.00  0.00    +0.010 C 
BRANCH   8  11
ATOM     11  C   LIG    1       -5.702   3.177   0.680  0.00  0.00    -0.060 C 
ATOM     12  C   LIG    1       -6.371   3.467   2.025  0.00  0.00    +0.020 C 
ATOM     13  C   LIG    1       -6.580   3.715  -0.452  0.00  0.00    +0.020 C 
ATOM     14  C   LIG    1       -4.334   3.860   0.632  0.00  0.00    +0.020 C 
ENDBRANCH   8  11
ENDBRANCH   2   5
BRANCH   3  15
ATOM     15  C   LIG    1       -0.303   0.486   1.078  0.00  0.00    +0.050 A 
ATOM     16  C   LIG    1        0.615   0.243   2.097  0.00  0.00    +0.020 A 
ATOM     17  C   LIG    1        1.795   0.968   2.131  0.00  0.00    +0.090 A 
ATOM     18  C   LIG    1        2.017   1.922   1.131  0.00  0.00    -0.150 A 
ATOM     19  C   LIG    1        1.047   2.107   0.142  0.00  0.00    +0.290 A 
ATOM     20  N   LIG    1       -0.060   1.399   0.146  0.00  0.00    -0.470 NA
BRANCH  18  21
ATOM     21  C   LIG    1        3.260   2.721   1.122  0.00  0.00    +0.520 C 
ATOM     22  O   LIG    1        3.445   3.552   0.245  0.00  0.00    -0.680 OA
ATOM     23  O   LIG    1        4.102   2.552   1.992  0.00  0.00    -0.680 OA
ENDBRANCH  18  21
ENDBRANCH   3  15
TORSDOF 4
