REMARK  Name = ZINCkj000005k7Ph.1
REMARK                            x       y       z     vdW  Elec       q    Type
REMARK                         _______ _______ _______ _____ _____    ______ ____
ROOT
ATOM      1  N   LIG    1       -2.011   2.566   3.816  0.00  0.00    -0.700 N 
ATOM      2  H   LIG    1       -2.432   1.732   4.076  0.00  0.00    +0.410 HD
ATOM      3  C   LIG    1       -2.208   3.062   2.578  0.00  0.00    +0.490 C 
ATOM      4  O   LIG    1       -1.682   4.106   2.252  0.00  0.00    -0.500 OA
ENDROOT
BRANCH   3   5
ATOM      5  C   LIG    1       -3.083   2.322   1.599  0.00  0.00    +0.150 C 
ATOM      6  C   LIG    1       -4.099   3.300   1.053  0.00  0.00    +0.090 C 
ATOM      7  C   LIG    1       -3.570   3.942  -0.233  0.00  0.00    +0.060 C 
ATOM      8  C   LIG    1       -3.411   2.814  -1.244  0.00  0.00    +0.070 C 
ATOM      9  C   LIG    1       -2.400   1.798  -0.764  0.00  0.00    +0.150 C 
ATOM     10  C   LIG    1       -1.014   2.102  -1.381  0.00  0.00    +0.090 C 
ATOM     11  C   LIG    1       -0.043   1.537  -0.306  0.00  0.00    +0.080 C 
ATOM     12  C   LIG    1       -0.802   1.891   1.001  0.00  0.00    +0.240 C 
ATOM     13  N   LIG    1       -2.229   1.665   0.660  0.00  0.00    -0.350 N 
ATOM     14  H   LIG    1       -2.362   0.681   0.840  0.00  0.00    +0.420 HD
ENDBRANCH   3   5
BRANCH   1  15
ATOM     15  C   LIG    1       -1.161   3.286   4.767  0.00  0.00    +0.370 C 
BRANCH  15  18
ATOM     16  C   LIG    1        0.628   0.791   5.366  0.00  0.00    +0.150 C 
ATOM     17  C   LIG    1       -0.332   1.446   6.325  0.00  0.00    +0.110 A 
ATOM     18  C   LIG    1       -1.106   2.525   6.067  0.00  0.00    -0.280 A 
ATOM     19  C   LIG    1       -1.841   2.814   7.221  0.00  0.00    +0.260 A 
ATOM     20  N   LIG    1       -1.527   1.933   8.137  0.00  0.00    -0.290 NA
ATOM     21  N   LIG    1       -0.574   1.061   7.596  0.00  0.00    -0.360 N 
ATOM     22  C   LIG    1        0.051  -0.069   8.288  0.00  0.00    +0.360 C 
ENDBRANCH  15  18
ENDBRANCH   1  15
TORSDOF 3
