REMARK  Name = ZINCkj000005k7Ph.0
REMARK                            x       y       z     vdW  Elec       q    Type
REMARK                         _______ _______ _______ _____ _____    ______ ____
ROOT
ATOM      1  N   LIG    1        1.143   1.898   0.001  0.00  0.00    -0.700 N 
ATOM      2  H   LIG    1        1.130   2.868   0.007  0.00  0.00    +0.410 HD
ATOM      3  C   LIG    1       -0.014   1.209   0.009  0.00  0.00    +0.500 C 
ATOM      4  O   LIG    1        0.002  -0.004   0.002  0.00  0.00    -0.530 OA
ENDROOT
BRANCH   3   5
ATOM      5  C   LIG    1       -1.330   1.944   0.019  0.00  0.00    +0.170 C 
ATOM      6  C   LIG    1       -1.437   2.836  -1.228  0.00  0.00    +0.080 C 
ATOM      7  C   LIG    1       -2.791   3.542  -1.274  0.00  0.00    +0.050 C 
ATOM      8  C   LIG    1       -3.935   2.524  -1.143  0.00  0.00    +0.070 C 
ATOM      9  C   LIG    1       -3.703   1.738   0.141  0.00  0.00    +0.170 C 
ATOM     10  C   LIG    1       -4.720   0.606   0.364  0.00  0.00    +0.080 C 
ATOM     11  C   LIG    1       -3.928  -0.361   1.288  0.00  0.00    +0.070 C 
ATOM     12  C   LIG    1       -2.438  -0.019   1.040  0.00  0.00    +0.260 C 
ATOM     13  N   LIG    1       -2.428   0.990  -0.020  0.00  0.00    -0.370 N 
ATOM     14  H   LIG    1       -2.430   0.521  -0.913  0.00  0.00    +0.420 HD
ENDBRANCH   3   5
BRANCH   1  15
ATOM     15  C   LIG    1        2.422   1.183  -0.015  0.00  0.00    +0.370 C 
BRANCH  15  18
ATOM     16  C   LIG    1        3.540   2.715   2.473  0.00  0.00    +0.150 C 
ATOM     17  C   LIG    1        4.037   2.840   1.056  0.00  0.00    +0.110 A 
ATOM     18  C   LIG    1        3.554   2.178  -0.020  0.00  0.00    -0.280 A 
ATOM     19  C   LIG    1        4.295   2.575  -1.138  0.00  0.00    +0.260 A 
ATOM     20  N   LIG    1        5.184   3.452  -0.748  0.00  0.00    -0.290 NA
ATOM     21  N   LIG    1        5.044   3.633   0.634  0.00  0.00    -0.360 N 
ATOM     22  C   LIG    1        5.848   4.526   1.472  0.00  0.00    +0.360 C 
ENDBRANCH  15  18
ENDBRANCH   1  15
TORSDOF 3
