REMARK  Name = ZINC650000002pAV.0
REMARK                            x       y       z     vdW  Elec       q    Type
REMARK                         _______ _______ _______ _____ _____    ______ ____
ROOT
ATOM      1  C   LIG    1       -0.013   1.086   0.008  0.00  0.00    +0.020 C 
ATOM      2  C   LIG    1       -0.729   1.579   1.267  0.00  0.00    +0.130 C 
ATOM      3  C   LIG    1        0.011   1.072   2.506  0.00  0.00    +0.060 C 
ENDROOT
BRANCH   2   4
ATOM      4  O   LIG    1       -0.748   3.008   1.275  0.00  0.00    -0.550 OA
ATOM      5  H   LIG    1       -1.202   3.399   0.516  0.00  0.00    +0.370 HD
ENDBRANCH   2   4
BRANCH   2   6
ATOM      6  C   LIG    1       -2.164   1.050   1.278  0.00  0.00    +0.150 C 
BRANCH   6   7
ATOM      7  O   LIG    1       -2.833   1.510   2.453  0.00  0.00    -0.560 OA
ATOM      8  H   LIG    1       -3.750   1.212   2.527  0.00  0.00    +0.380 HD
ENDBRANCH   6   7
ENDBRANCH   2   6
TORSDOF 3
