REMARK  Name = ZINCqH0000033K3a.0
REMARK                            x       y       z     vdW  Elec       q    Type
REMARK                         _______ _______ _______ _____ _____    ______ ____
ROOT
ATOM      1  N   LIG    1       -0.921   1.700  -5.935  0.00  0.00    -0.650 N 
ATOM      2  H   LIG    1       -0.803   1.199  -6.757  0.00  0.00    +0.420 HD
ATOM      3  C   LIG    1       -1.680   2.814  -5.929  0.00  0.00    +0.560 C 
ATOM      4  O   LIG    1       -1.748   3.498  -4.926  0.00  0.00    -0.500 OA
ENDROOT
BRANCH   3   5
ATOM      5  C   LIG    1       -2.430   3.205  -7.141  0.00  0.00    -0.150 A 
ATOM      6  C   LIG    1       -2.349   2.425  -8.296  0.00  0.00    +0.130 A 
ATOM      7  C   LIG    1       -3.055   2.792  -9.422  0.00  0.00    +0.020 A 
ATOM      8  C   LIG    1       -3.834   3.937  -9.412  0.00  0.00    +0.070 A 
ATOM      9  C   LIG    1       -3.914   4.718  -8.271  0.00  0.00    -0.660 A 
ATOM     10 CL   LIG    1       -4.715   4.396 -10.836  0.00  0.00    -0.030 Cl
ATOM     11  C   LIG    1       -3.217   4.358  -7.137  0.00  0.00    +0.220 A 
BRANCH   9  12
ATOM     12  S   LIG    1       -4.907   6.173  -8.268  0.00  0.00    +2.490 S 
ATOM     13  O   LIG    1       -4.768   6.690  -6.952  0.00  0.00    -0.930 OA
ATOM     14  O   LIG    1       -6.169   5.737  -8.755  0.00  0.00    -0.910 OA
ATOM     15  C   LIG    1       -4.105   7.270  -9.470  0.00  0.00    -0.240 C 
ENDBRANCH   9  12
ENDBRANCH   3   5
BRANCH   1  20
ATOM     16  C   LIG    1       -0.219   1.192  -2.357  0.00  0.00    +0.120 A 
ATOM     17  C   LIG    1        0.921   0.405  -2.422  0.00  0.00    -0.060 A 
ATOM     18  C   LIG    1        1.449   0.048  -3.649  0.00  0.00    -0.010 A 
ATOM     19  C   LIG    1        0.841   0.475  -4.817  0.00  0.00    +0.070 A 
ATOM     20  C   LIG    1       -0.304   1.266  -4.755  0.00  0.00    +0.160 A 
ATOM     21  C   LIG    1       -0.835   1.619  -3.524  0.00  0.00    +0.030 A 
BRANCH  16  22
ATOM     22  O   LIG    1       -0.737   1.540  -1.149  0.00  0.00    -0.310 OA
BRANCH  22  24
ATOM     23  C   LIG    1       -0.778   1.551   1.267  0.00  0.00    +0.070 C 
ATOM     24  C   LIG    1       -0.055   1.060   0.012  0.00  0.00    +0.170 C 
ENDBRANCH  22  24
ENDBRANCH  16  22
BRANCH  19  25
ATOM     25  O   LIG    1        1.361   0.123  -6.024  0.00  0.00    -0.320 OA
BRANCH  25  26
ATOM     26  C   LIG    1        2.536  -0.690  -6.011  0.00  0.00    +0.180 C 
ATOM     27  C   LIG    1        2.970  -0.982  -7.449  0.00  0.00    +0.070 C 
ENDBRANCH  25  26
ENDBRANCH  19  25
ENDBRANCH   1  20
TORSDOF 7
