REMARK  Name = ZINCbw0000000HbQ.0
REMARK                            x       y       z     vdW  Elec       q    Type
REMARK                         _______ _______ _______ _____ _____    ______ ____
ROOT
ATOM      1  C   LIG    1        2.403   0.034  -0.021  0.00  0.00    -0.090 A 
ATOM      2  C   LIG    1        2.379   1.415  -0.013  0.00  0.00    +0.020 A 
ATOM      3  C   LIG    1        1.170   2.086   0.002  0.00  0.00    -0.010 A 
ATOM      4  C   LIG    1       -0.017   1.377   0.010  0.00  0.00    +0.020 A 
ATOM      5  C   LIG    1        0.002  -0.004   0.002  0.00  0.00    -0.010 A 
ATOM      6  C   LIG    1        1.213  -0.680  -0.013  0.00  0.00    +0.110 A 
ENDROOT
BRANCH   1   8
ATOM      7  C   LIG    1        4.867   0.316  -0.043  0.00  0.00    +0.030 C 
ATOM      8  C   LIG    1        3.721  -0.698  -0.038  0.00  0.00    -0.020 C 
ATOM      9  C   LIG    1        3.805  -1.569  -1.293  0.00  0.00    +0.030 C 
ATOM     10  C   LIG    1        3.829  -1.583   1.205  0.00  0.00    +0.040 C 
ENDBRANCH   1   8
BRANCH   6  11
ATOM     11  O   LIG    1        1.234  -2.039  -0.020  0.00  0.00    -0.490 OA
ATOM     12  H   LIG    1        1.232  -2.428  -0.906  0.00  0.00    +0.390 HD
ENDBRANCH   6  11
TORSDOF 2
