REMARK  Name = ZINCb70000004T15.1
REMARK                            x       y       z     vdW  Elec       q    Type
REMARK                         _______ _______ _______ _____ _____    ______ ____
ROOT
ATOM      1  C   LIG    1       -2.187   3.358   0.361  0.00  0.00    +0.190 C 
ATOM      2  N   LIG    1       -1.373   3.155   1.565  0.00  0.00    -0.510 N 
ATOM      3  C   LIG    1       -1.386   1.725   1.911  0.00  0.00    +0.280 C 
ATOM      4  C   LIG    1       -0.574   0.957   0.866  0.00  0.00    +0.310 C 
ATOM      5  N   LIG    1       -1.029   1.315  -0.475  0.00  0.00    -0.720 N 
ATOM      6  H   LIG    1       -0.797   0.733  -1.216  0.00  0.00    +0.430 HD
ATOM      7  H   LIG    1       -1.758   3.691   2.328  0.00  0.00    +0.440 HD
ATOM      8  H   LIG    1       -0.425   3.452   1.387  0.00  0.00    +0.430 HD
ATOM      9  C   LIG    1       -1.754   2.412  -0.723  0.00  0.00    +0.510 C 
ATOM     10  O   LIG    1       -2.074   2.652  -1.867  0.00  0.00    -0.480 OA
ENDROOT
BRANCH   1  12
ATOM     11  C   LIG    1       -2.999   5.067  -1.272  0.00  0.00    +0.080 C 
ATOM     12  C   LIG    1       -2.019   4.799  -0.127  0.00  0.00    -0.070 C 
ATOM     13  C   LIG    1       -0.587   5.006  -0.624  0.00  0.00    +0.050 C 
ATOM     14  C   LIG    1       -2.305   5.764   1.025  0.00  0.00    +0.050 C 
ENDBRANCH   1  12
TORSDOF 1
