REMARK  Name = ZINCqH0000036jnd.0
REMARK                            x       y       z     vdW  Elec       q    Type
REMARK                         _______ _______ _______ _____ _____    ______ ____
ROOT
ATOM      1  C   LIG    1       -0.062   5.375   0.034  0.00  0.00    +0.340 C 
ENDROOT
BRANCH   1   6
ATOM      2  C   LIG    1        0.585   6.809   3.470  0.00  0.00    +0.130 A 
ATOM      3  C   LIG    1       -0.698   6.851   3.996  0.00  0.00    -0.080 A 
ATOM      4  C   LIG    1       -1.768   6.415   3.238  0.00  0.00    +0.060 A 
ATOM      5  C   LIG    1       -1.562   5.943   1.955  0.00  0.00    -0.030 A 
ATOM      6  C   LIG    1       -0.283   5.895   1.431  0.00  0.00    -0.050 A 
ATOM      7  C   LIG    1        0.790   6.330   2.184  0.00  0.00    -0.010 A 
BRANCH   2   9
ATOM      8  C   LIG    1        1.353   7.718   5.528  0.00  0.00    +0.250 C 
ATOM      9  O   LIG    1        1.639   7.237   4.213  0.00  0.00    -0.320 OA
ENDBRANCH   2   9
ENDBRANCH   1   6
BRANCH   1  10
ATOM     10  C   LIG    1       -0.064   3.868   0.054  0.00  0.00    -0.090 A 
ATOM     11  C   LIG    1        1.133   3.175   0.042  0.00  0.00    +0.020 A 
ATOM     12  C   LIG    1        1.131   1.792   0.060  0.00  0.00    +0.000 A 
ATOM     13  C   LIG    1       -0.067   1.103   0.090  0.00  0.00    +0.000 A 
ATOM     14  C   LIG    1       -1.263   1.796   0.097  0.00  0.00    +0.000 A 
ATOM     15  C   LIG    1       -1.262   3.178   0.083  0.00  0.00    +0.020 A 
ENDBRANCH   1  10
BRANCH   1  16
ATOM     16  N   LIG    1       -1.134   5.853  -0.842  0.00  0.00    -0.720 N 
ATOM     17  H   LIG    1       -1.997   6.090  -0.467  0.00  0.00    +0.400 HD
ATOM     18  C   LIG    1       -0.922   5.964  -2.168  0.00  0.00    +0.550 C 
ATOM     19  O   LIG    1        0.157   5.668  -2.636  0.00  0.00    -0.530 OA
BRANCH  18  20
ATOM     20  C   LIG    1       -2.025   6.456  -3.069  0.00  0.00    -0.060 C 
ATOM     21  C   LIG    1       -1.860   6.234  -4.574  0.00  0.00    +0.090 C 
ATOM     22  C   LIG    1       -2.873   5.406  -3.784  0.00  0.00    -0.100 C 
ATOM     23  C   LIG    1       -4.361   5.707  -3.990  0.00  0.00    +0.040 C 
ATOM     24  C   LIG    1       -5.149   5.075  -2.837  0.00  0.00    +0.210 C 
ATOM     25  O   LIG    1       -4.822   3.687  -2.746  0.00  0.00    -0.380 OA
ATOM     26  C   LIG    1       -3.461   3.419  -2.407  0.00  0.00    +0.200 C 
ATOM     27  C   LIG    1       -2.549   3.930  -3.529  0.00  0.00    +0.040 C 
ENDBRANCH  18  20
ENDBRANCH   1  16
TORSDOF 5
