REMARK  Name = ZINCqH0000001Rrt.0
REMARK                            x       y       z     vdW  Elec       q    Type
REMARK                         _______ _______ _______ _____ _____    ______ ____
ROOT
ATOM      1  C   LIG    1        4.812   3.521  -0.170  0.00  0.00    +0.090 C 
ATOM      2  C   LIG    1        4.974   4.502   0.995  0.00  0.00    +0.040 C 
ATOM      3  C   LIG    1        3.778   5.458   1.016  0.00  0.00    +0.040 C 
ATOM      4  C   LIG    1        2.486   4.648   1.137  0.00  0.00    +0.200 C 
ATOM      5  N   LIG    1        2.377   3.725  -0.001  0.00  0.00    -0.480 N 
ATOM      6  C   LIG    1        3.489   2.767  -0.015  0.00  0.00    +0.240 C 
ENDROOT
BRANCH   5   7
ATOM      7  C   LIG    1        1.154   3.068   0.007  0.00  0.00    +0.320 A 
ATOM      8  C   LIG    1       -0.025   3.809   0.022  0.00  0.00    -0.040 A 
ATOM      9  C   LIG    1       -1.237   3.148   0.030  0.00  0.00    +0.100 A 
ATOM     10  C   LIG    1       -1.232   1.748   0.017  0.00  0.00    -0.140 A 
ATOM     11  C   LIG    1       -0.013   1.076   0.008  0.00  0.00    +0.310 A 
ATOM     12  N   LIG    1        1.123   1.743   0.001  0.00  0.00    -0.520 NA
BRANCH  10  13
ATOM     13  C   LIG    1       -2.507   0.992   0.019  0.00  0.00    +0.010 A 
ATOM     14  C   LIG    1       -3.737   1.658   0.035  0.00  0.00    -0.030 A 
ATOM     15  C   LIG    1       -4.900   0.915   0.031  0.00  0.00    +0.270 A 
ATOM     16  N   LIG    1       -4.861  -0.403   0.024  0.00  0.00    -0.490 NA
ATOM     17  C   LIG    1       -3.723  -1.070   0.015  0.00  0.00    +0.270 A 
ATOM     18  C   LIG    1       -2.513  -0.406   0.012  0.00  0.00    -0.030 A 
ENDBRANCH  10  13
ENDBRANCH   5   7
BRANCH   1  23
ATOM     19  N   LIG    1        6.853   2.346  -1.160  0.00  0.00    -0.470 N 
ATOM     20  C   LIG    1        7.692   1.376  -0.725  0.00  0.00    +0.360 A 
ATOM     21  N   LIG    1        7.295   1.025   0.467  0.00  0.00    -0.300 NA
ATOM     22  N   LIG    1        6.266   1.720   0.803  0.00  0.00    -0.290 NA
ATOM     23  C   LIG    1        5.955   2.539  -0.165  0.00  0.00    +0.180 A 
BRANCH  19  25
ATOM     24  C   LIG    1        8.248   3.771  -2.578  0.00  0.00    +0.060 C 
ATOM     25  C   LIG    1        6.907   3.046  -2.446  0.00  0.00    +0.230 C 
ATOM     26  C   LIG    1        6.760   2.034  -3.584  0.00  0.00    +0.060 C 
ENDBRANCH  19  25
ENDBRANCH   1  23
TORSDOF 4
