REMARK  Name = ZINCpe000011UplF.2
REMARK                            x       y       z     vdW  Elec       q    Type
REMARK                         _______ _______ _______ _____ _____    ______ ____
ROOT
ATOM      1  C   LIG    1        2.449  -2.209   4.679  0.00  0.00    +0.670 C 
ATOM      2  N   LIG    1        2.626  -1.248   3.751  0.00  0.00    -0.600 N 
ATOM      3  C   LIG    1        2.353  -1.386   2.309  0.00  0.00    +0.310 C 
ATOM      4  C   LIG    1        2.107   0.060   1.812  0.00  0.00    +0.150 C 
ATOM      5  C   LIG    1        3.131   0.860   2.659  0.00  0.00    +0.180 C 
ATOM      6  C   LIG    1        3.121   0.112   4.009  0.00  0.00    +0.240 C 
ATOM      7  O   LIG    1        2.031  -3.301   4.351  0.00  0.00    -0.570 OA
ENDROOT
BRANCH   4   8
ATOM      8  N   LIG    1        2.401   0.182   0.378  0.00  0.00    -0.500 NA
ATOM      9  C   LIG    1        1.381  -0.505  -0.430  0.00  0.00    +0.220 C 
ATOM     10  C   LIG    1        0.002  -0.004   0.002  0.00  0.00    +0.040 C 
ATOM     11  C   LIG    1       -0.018   1.503   0.010  0.00  0.00    -0.080 A 
ATOM     12  C   LIG    1       -1.246   2.147   0.031  0.00  0.00    +0.000 A 
ATOM     13  C   LIG    1       -1.309   3.527   0.037  0.00  0.00    +0.000 A 
ATOM     14  C   LIG    1       -0.143   4.269   0.033  0.00  0.00    +0.000 A 
ATOM     15  C   LIG    1        1.080   3.628   0.016  0.00  0.00    +0.010 A 
ATOM     16  C   LIG    1        1.145   2.243   0.003  0.00  0.00    -0.120 A 
ATOM     17  C   LIG    1        2.502   1.589  -0.021  0.00  0.00    +0.280 C 
ENDBRANCH   4   8
BRANCH   5  18
ATOM     18  O   LIG    1        4.428   0.811   2.063  0.00  0.00    -0.530 OA
ATOM     19  H   LIG    1        5.106   1.296   2.555  0.00  0.00    +0.380 HD
ENDBRANCH   5  18
BRANCH   1  20
ATOM     20  O   LIG    1        2.735  -1.958   5.971  0.00  0.00    -0.360 OA
BRANCH  20  21
ATOM     21  C   LIG    1        2.521  -3.040   6.916  0.00  0.00    +0.260 C 
BRANCH  21  22
ATOM     22  C   LIG    1        2.898  -2.571   8.322  0.00  0.00    +0.210 C 
BRANCH  22  23
ATOM     23  O   LIG    1        2.010  -1.529   8.732  0.00  0.00    -0.380 OA
BRANCH  23  24
ATOM     24  C   LIG    1        2.277  -1.017  10.039  0.00  0.00    +0.330 C 
BRANCH  24  26
ATOM     25  C   LIG    1        0.537   0.891  10.612  0.00  0.00    +0.050 C 
ATOM     26  C   LIG    1        1.309   0.044  10.358  0.00  0.00    -0.200 C 
ENDBRANCH  24  26
ENDBRANCH  23  24
ENDBRANCH  22  23
ENDBRANCH  21  22
ENDBRANCH  20  21
ENDBRANCH   1  20
TORSDOF 8
