REMARK  Name = ZINCpe000000TWSD.1
REMARK                            x       y       z     vdW  Elec       q    Type
REMARK                         _______ _______ _______ _____ _____    ______ ____
ROOT
ATOM      1  N   LIG    1        1.208   3.478   8.434  0.00  0.00    -0.480 N 
ATOM      2  C   LIG    1        2.193   4.287   7.703  0.00  0.00    +0.220 C 
ATOM      3  C   LIG    1        1.524   4.916   6.478  0.00  0.00    +0.190 C 
ATOM      4  N   LIG    1        0.979   3.854   5.621  0.00  0.00    -0.540 NA
ATOM      5  C   LIG    1       -0.006   3.045   6.352  0.00  0.00    +0.190 C 
ATOM      6  C   LIG    1        0.663   2.416   7.577  0.00  0.00    +0.210 C 
ENDROOT
BRANCH   1  11
ATOM      7  C   LIG    1        3.590   2.722  10.989  0.00  0.00    +0.350 A 
ATOM      8  C   LIG    1        2.870   1.918  11.861  0.00  0.00    -0.080 A 
ATOM      9  C   LIG    1        1.545   1.625  11.577  0.00  0.00    +0.120 A 
ATOM     10  C   LIG    1        0.984   2.149  10.424  0.00  0.00    -0.090 A 
ATOM     11  C   LIG    1        1.762   2.947   9.593  0.00  0.00    +0.350 A 
ATOM     12  N   LIG    1        3.027   3.203   9.892  0.00  0.00    -0.570 NA
BRANCH   7  13
ATOM     13  O   LIG    1        4.887   3.013  11.261  0.00  0.00    -0.310 OA
BRANCH  13  15
ATOM     14  C   LIG    1        7.014   4.062  10.797  0.00  0.00    +0.070 C 
ATOM     15  C   LIG    1        5.574   3.845  10.325  0.00  0.00    +0.190 C 
ENDBRANCH  13  15
ENDBRANCH   7  13
ENDBRANCH   1  11
BRANCH   4  16
ATOM     16  C   LIG    1        0.394   4.415   4.396  0.00  0.00    +0.210 C 
BRANCH  16  17
ATOM     17  C   LIG    1        0.065   3.281   3.423  0.00  0.00    +0.050 C 
BRANCH  17  18
ATOM     18  C   LIG    1       -0.535   3.857   2.166  0.00  0.00    +0.520 C 
ATOM     19  N   LIG    1       -0.905   3.039   1.160  0.00  0.00    -0.620 N 
ATOM     20  C   LIG    1       -0.732   1.581   1.268  0.00  0.00    +0.250 C 
ATOM     21  C   LIG    1       -0.013   1.086   0.008  0.00  0.00    +0.220 C 
ATOM     22  O   LIG    1       -0.706   1.560  -1.149  0.00  0.00    -0.380 OA
ATOM     23  C   LIG    1       -0.736   2.985  -1.270  0.00  0.00    +0.220 C 
ATOM     24  C   LIG    1       -1.493   3.577  -0.076  0.00  0.00    +0.260 C 
ATOM     25  O   LIG    1       -0.685   5.055   2.059  0.00  0.00    -0.540 OA
ENDBRANCH  17  18
ENDBRANCH  16  17
ENDBRANCH   4  16
TORSDOF 6
