REMARK  Name = ZINCrD000003ARYG.0
REMARK                            x       y       z     vdW  Elec       q    Type
REMARK                         _______ _______ _______ _____ _____    ______ ____
ROOT
ATOM      1  C   LIG    1       -1.016  -2.659  -1.440  0.00  0.00    +0.050 C 
ATOM      2  C   LIG    1       -1.136  -2.159   0.001  0.00  0.00    +0.230 C 
ENDROOT
BRANCH   2   3
ATOM      3  N   LIG    1       -1.156  -0.694   0.009  0.00  0.00    -0.730 N 
ATOM      4  H   LIG    1       -2.002  -0.220   0.019  0.00  0.00    +0.400 HD
ATOM      5  C   LIG    1        0.002  -0.004   0.002  0.00  0.00    +0.590 C 
ATOM      6  O   LIG    1        1.064  -0.598  -0.011  0.00  0.00    -0.510 OA
BRANCH   5   7
ATOM      7  C   LIG    1       -0.018   1.461   0.010  0.00  0.00    -0.010 A 
ATOM      8  C   LIG    1        1.088   2.283   0.004  0.00  0.00    +0.090 A 
ATOM      9  C   LIG    1        0.633   3.606   0.015  0.00  0.00    -0.040 A 
ATOM     10  C   LIG    1       -0.757   3.569   0.029  0.00  0.00    +0.020 A 
ATOM     11  C   LIG    1       -1.191   4.915   0.040  0.00  0.00    -0.050 A 
ATOM     12  C   LIG    1       -0.090   5.687   0.034  0.00  0.00    +0.240 A 
ATOM     13  O   LIG    1        1.004   4.906   0.019  0.00  0.00    -0.170 OA
ATOM     14  N   LIG    1       -1.148   2.255   0.019  0.00  0.00    -0.530 N 
ATOM     15  H   LIG    1       -2.064   1.936   0.021  0.00  0.00    +0.420 HD
ENDBRANCH   5   7
ENDBRANCH   2   3
BRANCH   2  16
ATOM     16  C   LIG    1       -2.431  -2.690   0.619  0.00  0.00    +0.280 C 
BRANCH  16  17
ATOM     17  N   LIG    1       -2.605  -2.115   1.956  0.00  0.00    -0.730 N 
ATOM     18  H   LIG    1       -1.944  -1.499   2.309  0.00  0.00    +0.400 HD
ATOM     19  C   LIG    1       -3.683  -2.442   2.695  0.00  0.00    +0.560 C 
ATOM     20  O   LIG    1       -4.512  -3.214   2.252  0.00  0.00    -0.520 OA
BRANCH  19  21
ATOM     21  C   LIG    1       -3.859  -1.863   4.042  0.00  0.00    -0.150 A 
ATOM     22  C   LIG    1       -2.906  -0.981   4.555  0.00  0.00    +0.100 A 
ATOM     23  C   LIG    1       -3.077  -0.440   5.811  0.00  0.00    -0.010 A 
ATOM     24  C   LIG    1       -4.188  -0.778   6.569  0.00  0.00    +0.160 A 
ATOM     25  C   LIG    1       -5.135  -1.657   6.067  0.00  0.00    -0.210 A 
ATOM     26  F   LIG    1       -4.348  -0.249   7.802  0.00  0.00    -0.120 F 
ATOM     27  C   LIG    1       -4.976  -2.200   4.810  0.00  0.00    +0.160 A 
BRANCH  25  28
ATOM     28  C   LIG    1       -6.339  -2.021   6.896  0.00  0.00    +0.450 C 
ATOM     29  F   LIG    1       -7.418  -2.304   6.052  0.00  0.00    -0.190 F 
ATOM     30  F   LIG    1       -6.670  -0.949   7.732  0.00  0.00    -0.190 F 
ENDBRANCH  25  28
ENDBRANCH  19  21
ENDBRANCH  16  17
ENDBRANCH   2  16
TORSDOF 6
