REMARK  Name = ZINCqH0000005duS.0
REMARK                            x       y       z     vdW  Elec       q    Type
REMARK                         _______ _______ _______ _____ _____    ______ ____
ROOT
ATOM      1  C   LIG    1        1.007   2.131  -0.115  0.00  0.00    +0.400 A 
ATOM      2  N   LIG    1        1.998   1.258  -0.214  0.00  0.00    -0.550 NA
ATOM      3  C   LIG    1        1.762  -0.048  -0.335  0.00  0.00    +0.380 A 
ATOM      4  N   LIG    1        0.544  -0.554  -0.363  0.00  0.00    -0.500 NA
ATOM      5  C   LIG    1       -0.526   0.247  -0.269  0.00  0.00    +0.170 A 
ATOM      6  C   LIG    1       -1.834  -0.257  -0.295  0.00  0.00    +0.030 A 
ATOM      7  C   LIG    1       -2.888   0.602  -0.195  0.00  0.00    +0.070 A 
ATOM      8  C   LIG    1       -2.687   1.973  -0.069  0.00  0.00    +0.000 A 
ATOM      9  C   LIG    1       -1.427   2.496  -0.034  0.00  0.00    +0.100 A 
ATOM     10  C   LIG    1       -0.324   1.644  -0.140  0.00  0.00    -0.140 A 
ENDROOT
BRANCH   3  11
ATOM     11  C   LIG    1        2.918  -0.971  -0.442  0.00  0.00    -0.100 A 
ATOM     12  C   LIG    1        2.717  -2.348  -0.569  0.00  0.00    +0.120 A 
ATOM     13  C   LIG    1        3.829  -3.167  -0.666  0.00  0.00    -0.040 A 
ATOM     14  C   LIG    1        5.091  -2.602  -0.633  0.00  0.00    +0.280 A 
ATOM     15  N   LIG    1        5.249  -1.298  -0.512  0.00  0.00    -0.490 NA
ATOM     16  C   LIG    1        4.222  -0.479  -0.422  0.00  0.00    +0.320 A 
ENDBRANCH   3  11
BRANCH   1  18
ATOM     17  C   LIG    1        1.976   3.991  -1.171  0.00  0.00    +0.230 C 
ATOM     18  N   LIG    1        1.264   3.480   0.008  0.00  0.00    -0.490 N 
BRANCH  18  19
ATOM     19  C   LIG    1        2.014   3.763   1.239  0.00  0.00    +0.210 C 
BRANCH  19  20
ATOM     20  C   LIG    1        2.064   5.274   1.470  0.00  0.00    +0.110 C 
BRANCH  20  21
ATOM     21  C   LIG    1        2.833   5.564   2.733  0.00  0.00    +0.130 A 
ATOM     22  C   LIG    1        3.919   6.418   2.691  0.00  0.00    -0.030 A 
ATOM     23  C   LIG    1        4.617   6.682   3.860  0.00  0.00    +0.070 A 
ATOM     24  C   LIG    1        4.202   6.066   5.030  0.00  0.00    -0.040 A 
ATOM     25  C   LIG    1        3.110   5.220   4.994  0.00  0.00    +0.260 A 
ATOM     26  N   LIG    1        2.466   4.996   3.865  0.00  0.00    -0.480 NA
ENDBRANCH  20  21
ENDBRANCH  19  20
ENDBRANCH  18  19
ENDBRANCH   1  18
TORSDOF 5
