REMARK  Name = ZINCqH0000038ShD.0
REMARK                            x       y       z     vdW  Elec       q    Type
REMARK                         _______ _______ _______ _____ _____    ______ ____
ROOT
ATOM      1  C   LIG    1        4.944   0.324  -3.032  0.00  0.00    +0.320 C 
ENDROOT
BRANCH   1   4
ATOM      2  C   LIG    1        7.529   2.098  -2.949  0.00  0.00    +0.340 C 
ATOM      3  N   LIG    1        7.473   0.642  -2.802  0.00  0.00    -0.470 N 
ATOM      4  C   LIG    1        6.362  -0.144  -2.836  0.00  0.00    +0.180 A 
ATOM      5  N   LIG    1        6.752  -1.380  -2.672  0.00  0.00    -0.270 NA
ATOM      6  N   LIG    1        8.029  -1.425  -2.533  0.00  0.00    -0.270 NA
ATOM      7  C   LIG    1        8.525  -0.209  -2.601  0.00  0.00    +0.220 A 
BRANCH   7   8
ATOM      8  C   LIG    1        9.952   0.167  -2.489  0.00  0.00    -0.020 A 
ATOM      9  C   LIG    1       10.946  -0.797  -2.660  0.00  0.00    +0.070 A 
ATOM     10  C   LIG    1       12.275  -0.439  -2.559  0.00  0.00    +0.010 A 
ATOM     11  C   LIG    1       12.622   0.870  -2.277  0.00  0.00    +0.030 A 
ATOM     12  C   LIG    1       11.641   1.829  -2.101  0.00  0.00    +0.010 A 
ATOM     13  C   LIG    1       10.309   1.485  -2.205  0.00  0.00    +0.010 A 
ENDBRANCH   7   8
ENDBRANCH   1   4
BRANCH   1  14
ATOM     14  N   LIG    1        4.338   0.613  -1.725  0.00  0.00    -0.530 NA
ATOM     15  C   LIG    1        5.247   1.409  -0.887  0.00  0.00    +0.130 C 
ATOM     16  C   LIG    1        4.603   1.636   0.483  0.00  0.00    +0.240 C 
ATOM     17  O   LIG    1        3.334   2.270   0.308  0.00  0.00    -0.370 OA
ATOM     18  C   LIG    1        2.423   1.522  -0.501  0.00  0.00    +0.220 C 
ATOM     19  C   LIG    1        3.045   1.294  -1.882  0.00  0.00    +0.180 C 
BRANCH  18  20
ATOM     20  C   LIG    1        1.135   2.289  -0.650  0.00  0.00    -0.070 A 
ATOM     21  C   LIG    1       -0.075   1.622  -0.612  0.00  0.00    +0.030 A 
ATOM     22  C   LIG    1       -1.258   2.325  -0.754  0.00  0.00    +0.030 A 
ATOM     23  C   LIG    1       -1.230   3.696  -0.923  0.00  0.00    +0.030 A 
ATOM     24  C   LIG    1       -0.019   4.365  -0.961  0.00  0.00    -0.040 A 
ATOM     25 CL   LIG    1        0.016   6.087  -1.179  0.00  0.00    -0.070 Cl
ATOM     26  C   LIG    1        1.163   3.660  -0.825  0.00  0.00    +0.060 A 
ENDBRANCH  18  20
ENDBRANCH   1  14
TORSDOF 4
