REMARK  Name = ZINCpk00000eb8WZ.0
REMARK                            x       y       z     vdW  Elec       q    Type
REMARK                         _______ _______ _______ _____ _____    ______ ____
ROOT
ATOM      1  N   LIG    1       -2.243   1.544  -0.741  0.00  0.00    -0.600 N 
ATOM      2  C   LIG    1       -2.277   1.550   0.729  0.00  0.00    +0.270 C 
ATOM      3  C   LIG    1       -0.816   1.624   1.221  0.00  0.00    +0.010 C 
ATOM      4  C   LIG    1       -0.013   1.086   0.008  0.00  0.00    +0.080 C 
ATOM      5  C   LIG    1       -0.838   1.637  -1.182  0.00  0.00    +0.290 C 
ENDROOT
BRANCH   1  11
ATOM      6  C   LIG    1       -6.322   1.237  -6.765  0.00  0.00    +0.210 C 
ATOM      7  C   LIG    1       -5.713   1.286  -5.388  0.00  0.00    +0.230 A 
ATOM      8  N   LIG    1       -4.425   1.374  -5.131  0.00  0.00    -0.270 NA
ATOM      9  N   LIG    1       -4.285   1.391  -3.737  0.00  0.00    -0.160 N 
ATOM     10  N   LIG    1       -3.184   1.474  -2.881  0.00  0.00    -0.300 NA
ATOM     11  C   LIG    1       -3.351   1.464  -1.577  0.00  0.00    +0.420 A 
ATOM     12  C   LIG    1       -4.639   1.380  -1.020  0.00  0.00    +0.010 A 
ATOM     13  C   LIG    1       -5.729   1.303  -1.831  0.00  0.00    +0.160 A 
ATOM     14  C   LIG    1       -5.549   1.308  -3.225  0.00  0.00    +0.210 A 
ATOM     15  N   LIG    1       -6.391   1.246  -4.252  0.00  0.00    -0.510 NA
ENDBRANCH   1  11
BRANCH   4  16
ATOM     16  C   LIG    1        1.388   1.642  -0.002  0.00  0.00    -0.230 A 
ATOM     17  C   LIG    1        2.532   0.919  -0.004  0.00  0.00    +0.240 A 
ATOM     18  N   LIG    1        3.566   1.786  -0.014  0.00  0.00    -0.360 N 
ATOM     19  N   LIG    1        3.040   3.084  -0.019  0.00  0.00    -0.290 NA
ATOM     20  C   LIG    1        1.735   2.997  -0.018  0.00  0.00    +0.240 A 
BRANCH  18  21
ATOM     21  C   LIG    1        4.987   1.431  -0.020  0.00  0.00    +0.250 C 
ATOM     22  C   LIG    1        5.192   0.157  -0.841  0.00  0.00    +0.050 C 
ATOM     23  C   LIG    1        5.459   1.194   1.416  0.00  0.00    +0.040 C 
ENDBRANCH  18  21
ENDBRANCH   4  16
BRANCH   3  24
ATOM     24  C   LIG    1       -0.611   0.731   2.446  0.00  0.00    +0.190 C 
BRANCH  24  25
ATOM     25  O   LIG    1       -1.266   1.312   3.575  0.00  0.00    -0.570 OA
ATOM     26  H   LIG    1       -1.178   0.798   4.389  0.00  0.00    +0.380 HD
ENDBRANCH  24  25
ENDBRANCH   3  24
TORSDOF 5
