REMARK  Name = ZINCpk00000xI7wK.0
REMARK                            x       y       z     vdW  Elec       q    Type
REMARK                         _______ _______ _______ _____ _____    ______ ____
ROOT
ATOM      1  N   LIG    1       -2.921   6.231  -2.837  0.00  0.00    -0.740 N 
ATOM      2  H   LIG    1       -2.560   5.724  -3.580  0.00  0.00    +0.390 HD
ATOM      3  C   LIG    1       -2.647   5.860  -1.571  0.00  0.00    +0.710 C 
ATOM      4  N   LIG    1       -1.870   4.783  -1.337  0.00  0.00    -0.740 N 
ATOM      5  H   LIG    1       -1.509   4.276  -2.081  0.00  0.00    +0.400 HD
ATOM      6  O   LIG    1       -3.099   6.496  -0.639  0.00  0.00    -0.580 OA
ENDROOT
BRANCH   1   8
ATOM      7  C   LIG    1       -5.237   6.988  -3.048  0.00  0.00    +0.040 C 
ATOM      8  C   LIG    1       -3.765   7.402  -3.090  0.00  0.00    +0.260 C 
BRANCH   8   9
ATOM      9  C   LIG    1       -3.437   7.978  -4.469  0.00  0.00    +0.340 C 
BRANCH   9  10
ATOM     10  N   LIG    1       -2.062   8.484  -4.472  0.00  0.00    -0.380 N 
ATOM     11  C   LIG    1       -1.080   8.143  -5.325  0.00  0.00    +0.470 A 
ATOM     12  N   LIG    1       -0.005   8.813  -4.995  0.00  0.00    -0.540 NA
ATOM     13  C   LIG    1       -0.261   9.588  -3.942  0.00  0.00    +0.420 A 
ATOM     14  N   LIG    1       -1.509   9.425  -3.589  0.00  0.00    -0.310 NA
ENDBRANCH   9  10
ENDBRANCH   8   9
ENDBRANCH   1   8
BRANCH   4  15
ATOM     15  C   LIG    1       -1.572   4.380   0.039  0.00  0.00    +0.410 C 
BRANCH  15  16
ATOM     16  C   LIG    1       -0.692   3.157   0.024  0.00  0.00    +0.180 A 
ATOM     17  N   LIG    1        0.613   3.159   0.012  0.00  0.00    -0.470 NA
ATOM     18  C   LIG    1        1.058   1.893   0.002  0.00  0.00    +0.140 A 
ATOM     19  C   LIG    1       -0.013   1.076   0.008  0.00  0.00    +0.140 A 
ATOM     20  N   LIG    1       -1.123   1.877   0.017  0.00  0.00    -0.440 N 
BRANCH  20  21
ATOM     21  C   LIG    1       -2.518   1.429   0.020  0.00  0.00    +0.340 C 
BRANCH  21  22
ATOM     22  C   LIG    1       -3.039   1.401  -1.393  0.00  0.00    -0.120 A 
ATOM     23  C   LIG    1       -3.648   2.521  -1.928  0.00  0.00    +0.030 A 
ATOM     24  C   LIG    1       -4.122   2.496  -3.227  0.00  0.00    +0.000 A 
ATOM     25  C   LIG    1       -3.997   1.348  -3.986  0.00  0.00    +0.010 A 
ATOM     26  C   LIG    1       -3.394   0.226  -3.450  0.00  0.00    +0.010 A 
ATOM     27  C   LIG    1       -2.915   0.253  -2.153  0.00  0.00    +0.020 A 
ENDBRANCH  21  22
ENDBRANCH  20  21
ENDBRANCH  15  16
ENDBRANCH   4  15
TORSDOF 7
