REMARK  Name = ZINCvU0000000HPQ.0
REMARK                            x       y       z     vdW  Elec       q    Type
REMARK                         _______ _______ _______ _____ _____    ______ ____
ROOT
ATOM      1  N   LIG    1       -2.037   5.493  -0.627  0.00  0.00    -0.590 N 
ATOM      2  C   LIG    1       -2.427   4.213  -0.455  0.00  0.00    +0.570 C 
ATOM      3  C   LIG    1       -1.256   3.357  -0.199  0.00  0.00    +0.090 A 
ATOM      4  C   LIG    1       -0.138   4.141  -0.223  0.00  0.00    -0.250 A 
ATOM      5  C   LIG    1        1.194   3.566  -0.006  0.00  0.00    +0.450 A 
ATOM      6  C   LIG    1        1.206   2.081   0.002  0.00  0.00    -0.210 A 
ATOM      7  C   LIG    1        2.414   1.385  -0.004  0.00  0.00    +0.120 A 
ATOM      8  C   LIG    1        2.406   0.008  -0.009  0.00  0.00    +0.000 A 
ATOM      9  C   LIG    1        1.201  -0.680  -0.008  0.00  0.00    +0.090 A 
ATOM     10  C   LIG    1        0.002  -0.004   0.002  0.00  0.00    +0.010 A 
ATOM     11  C   LIG    1       -0.017   1.390   0.010  0.00  0.00    +0.140 A 
ATOM     12  O   LIG    1        2.195   4.242   0.152  0.00  0.00    -0.430 OA
ATOM     13  O   LIG    1       -1.209   2.030   0.030  0.00  0.00    -0.180 OA
ATOM     14  O   LIG    1       -3.577   3.824  -0.503  0.00  0.00    -0.480 OA
ATOM     15  C   LIG    1       -0.572   5.544  -0.494  0.00  0.00    +0.350 C 
ENDROOT
BRANCH  15  16
ATOM     16  C   LIG    1       -0.186   6.439   0.656  0.00  0.00    -0.090 A 
ATOM     17  C   LIG    1       -0.947   6.448   1.810  0.00  0.00    +0.040 A 
ATOM     18  C   LIG    1       -0.591   7.265   2.867  0.00  0.00    +0.030 A 
ATOM     19  C   LIG    1        0.520   8.080   2.767  0.00  0.00    +0.030 A 
ATOM     20  C   LIG    1        1.280   8.075   1.610  0.00  0.00    -0.030 A 
ATOM     21 CL   LIG    1        2.675   9.100   1.483  0.00  0.00    -0.060 Cl
ATOM     22  C   LIG    1        0.926   7.254   0.554  0.00  0.00    +0.060 A 
ENDBRANCH  15  16
BRANCH   1  23
ATOM     23  C   LIG    1       -2.917   6.632  -0.900  0.00  0.00    +0.390 C 
BRANCH  23  27
ATOM     24  C   LIG    1       -4.157   8.390   2.792  0.00  0.00    +0.140 A 
ATOM     25  C   LIG    1       -3.002   8.834   2.164  0.00  0.00    -0.020 A 
ATOM     26  C   LIG    1       -2.603   8.264   0.971  0.00  0.00    +0.090 A 
ATOM     27  C   LIG    1       -3.354   7.252   0.402  0.00  0.00    -0.160 A 
ATOM     28  C   LIG    1       -4.509   6.812   1.023  0.00  0.00    +0.080 A 
ATOM     29  C   LIG    1       -4.909   7.375   2.219  0.00  0.00    -0.080 A 
BRANCH  24  31
ATOM     30  C   LIG    1       -5.750   8.442   4.556  0.00  0.00    +0.250 C 
ATOM     31  O   LIG    1       -4.551   8.949   3.966  0.00  0.00    -0.320 OA
ENDBRANCH  24  31
ENDBRANCH  23  27
ENDBRANCH   1  23
TORSDOF 4
