REMARK  Name = ZINCpk00000y6v1V.0
REMARK                            x       y       z     vdW  Elec       q    Type
REMARK                         _______ _______ _______ _____ _____    ______ ____
ROOT
ATOM      1  C   LIG    1        4.506   2.588   1.822  0.00  0.00    +0.290 C 
ATOM      2  N   LIG    1        4.022   2.070   0.541  0.00  0.00    -0.610 N 
ATOM      3  C   LIG    1        4.348   2.697  -0.607  0.00  0.00    +0.560 C 
ATOM      4  O   LIG    1        3.844   2.346  -1.656  0.00  0.00    -0.510 OA
ENDROOT
BRANCH   3   5
ATOM      5  C   LIG    1        5.319   3.812  -0.589  0.00  0.00    -0.120 A 
ATOM      6  C   LIG    1        6.207   3.949   0.479  0.00  0.00    +0.030 A 
ATOM      7  C   LIG    1        7.110   4.993   0.490  0.00  0.00    +0.030 A 
ATOM      8  C   LIG    1        7.139   5.899  -0.551  0.00  0.00    -0.110 A 
ATOM      9  C   LIG    1        8.003   7.121  -0.792  0.00  0.00    +0.070 C 
ATOM     10  C   LIG    1        7.229   7.876  -1.897  0.00  0.00    +0.230 C 
ATOM     11  N   LIG    1        6.478   6.792  -2.565  0.00  0.00    -0.500 N 
ATOM     12  C   LIG    1        7.211   6.285  -3.733  0.00  0.00    +0.200 C 
ATOM     13  C   LIG    1        6.264   5.774  -1.626  0.00  0.00    +0.080 A 
ATOM     14  C   LIG    1        5.354   4.723  -1.643  0.00  0.00    +0.090 A 
ENDBRANCH   3   5
BRANCH   2  15
ATOM     15  C   LIG    1        3.182   0.870   0.506  0.00  0.00    +0.290 C 
BRANCH  15  16
ATOM     16  C   LIG    1        1.710   1.274   0.608  0.00  0.00    +0.150 C 
ATOM     17  O   LIG    1        1.317   1.988  -0.576  0.00  0.00    -0.340 OA
ATOM     18  C   LIG    1       -0.062   1.647  -0.835  0.00  0.00    +0.210 C 
ATOM     19  C   LIG    1       -0.126   0.132  -0.516  0.00  0.00    +0.010 C 
ATOM     20  C   LIG    1        0.826   0.016   0.699  0.00  0.00    +0.090 C 
BRANCH  20  21
ATOM     21  C   LIG    1        1.668  -1.230   0.593  0.00  0.00    +0.190 A 
ATOM     22  N   LIG    1        2.092  -1.964   1.585  0.00  0.00    -0.290 NA
ATOM     23  N   LIG    1        2.780  -2.951   1.130  0.00  0.00    -0.290 NA
ATOM     24  C   LIG    1        2.835  -2.884  -0.173  0.00  0.00    +0.380 A 
ATOM     25  N   LIG    1        2.131  -1.790  -0.551  0.00  0.00    -0.580 N 
ATOM     26  H   LIG    1        1.988  -1.473  -1.456  0.00  0.00    +0.430 HD
ENDBRANCH  20  21
ENDBRANCH  15  16
ENDBRANCH   2  15
TORSDOF 4
