REMARK  Name = ZINCpk00000y6v1V.1
REMARK                            x       y       z     vdW  Elec       q    Type
REMARK                         _______ _______ _______ _____ _____    ______ ____
ROOT
ATOM      1  C   LIG    1       -3.035   2.056   0.055  0.00  0.00    +0.280 C 
ATOM      2  N   LIG    1       -2.107   1.415  -0.881  0.00  0.00    -0.610 N 
ATOM      3  C   LIG    1       -2.550   0.455  -1.717  0.00  0.00    +0.560 C 
ATOM      4  O   LIG    1       -1.760  -0.165  -2.403  0.00  0.00    -0.510 OA
ENDROOT
BRANCH   3   5
ATOM      5  C   LIG    1       -3.995   0.156  -1.801  0.00  0.00    -0.110 A 
ATOM      6  C   LIG    1       -4.930   1.099  -1.371  0.00  0.00    +0.020 A 
ATOM      7  C   LIG    1       -6.278   0.815  -1.454  0.00  0.00    +0.040 A 
ATOM      8  C   LIG    1       -6.704  -0.401  -1.950  0.00  0.00    -0.120 A 
ATOM      9  C   LIG    1       -8.094  -0.977  -2.134  0.00  0.00    +0.090 C 
ATOM     10  C   LIG    1       -7.819  -2.486  -2.329  0.00  0.00    +0.200 C 
ATOM     11  N   LIG    1       -6.438  -2.497  -2.859  0.00  0.00    -0.480 N 
ATOM     12  C   LIG    1       -5.728  -3.716  -2.452  0.00  0.00    +0.210 C 
ATOM     13  C   LIG    1       -5.785  -1.352  -2.383  0.00  0.00    +0.090 A 
ATOM     14  C   LIG    1       -4.426  -1.070  -2.303  0.00  0.00    +0.050 A 
ENDBRANCH   3   5
BRANCH   2  15
ATOM     15  C   LIG    1       -0.699   1.818  -0.908  0.00  0.00    +0.310 C 
BRANCH  15  16
ATOM     16  C   LIG    1        0.097   0.955   0.073  0.00  0.00    +0.150 C 
ATOM     17  O   LIG    1        0.118  -0.409  -0.381  0.00  0.00    -0.340 OA
ATOM     18  C   LIG    1        1.398  -0.960  -0.003  0.00  0.00    +0.210 C 
ATOM     19  C   LIG    1        2.388   0.201  -0.282  0.00  0.00    +0.040 C 
ATOM     20  C   LIG    1        1.558   1.440   0.132  0.00  0.00    +0.080 C 
BRANCH  20  21
ATOM     21  C   LIG    1        1.778   2.571  -0.840  0.00  0.00    +0.230 A 
ATOM     22  N   LIG    1        1.613   2.502  -2.135  0.00  0.00    -0.300 NA
ATOM     23  N   LIG    1        1.921   3.771  -2.651  0.00  0.00    -0.480 N 
ATOM     24  H   LIG    1        1.893   4.042  -3.582  0.00  0.00    +0.440 HD
ATOM     25  C   LIG    1        2.268   4.534  -1.600  0.00  0.00    +0.480 A 
ATOM     26  N   LIG    1        2.177   3.801  -0.520  0.00  0.00    -0.540 NA
ENDBRANCH  20  21
ENDBRANCH  15  16
ENDBRANCH   2  15
TORSDOF 4
