REMARK  Name = ZINCpk00000e9MXJ.0
REMARK                            x       y       z     vdW  Elec       q    Type
REMARK                         _______ _______ _______ _____ _____    ______ ____
ROOT
ATOM      1  C   LIG    1       -2.857   0.515   1.590  0.00  0.00    -0.110 A 
ATOM      2  C   LIG    1       -3.224  -0.404   0.624  0.00  0.00    +0.010 A 
ATOM      3  C   LIG    1       -3.872  -1.569   0.990  0.00  0.00    +0.020 A 
ATOM      4  C   LIG    1       -4.162  -1.810   2.319  0.00  0.00    -0.070 A 
ATOM      5  C   LIG    1       -3.800  -0.889   3.284  0.00  0.00    +0.000 A 
ATOM      6  C   LIG    1       -3.147   0.274   2.920  0.00  0.00    +0.040 A 
ENDROOT
BRANCH   1   7
ATOM      7  C   LIG    1       -2.146   1.783   1.192  0.00  0.00    +0.340 C 
BRANCH   7   9
ATOM      8  C   LIG    1       -0.013   1.086   0.008  0.00  0.00    +0.280 C 
ATOM      9  N   LIG    1       -0.698   1.558   1.213  0.00  0.00    -0.610 N 
ATOM     10  C   LIG    1        0.002   1.786   2.342  0.00  0.00    +0.520 C 
ATOM     11  O   LIG    1       -0.565   2.177   3.340  0.00  0.00    -0.520 OA
BRANCH  10  12
ATOM     12  C   LIG    1        1.491   1.555   2.364  0.00  0.00    +0.140 C 
BRANCH  12  13
ATOM     13  C   LIG    1        2.030   1.881   3.733  0.00  0.00    +0.100 A 
ATOM     14  C   LIG    1        2.058   1.048   4.798  0.00  0.00    -0.110 A 
ATOM     15  C   LIG    1        2.638   1.737   5.869  0.00  0.00    +0.230 A 
ATOM     16  N   LIG    1        2.941   2.943   5.462  0.00  0.00    -0.290 NA
ATOM     17  N   LIG    1        2.567   3.059   4.117  0.00  0.00    -0.370 N 
ATOM     18  C   LIG    1        2.729   4.247   3.276  0.00  0.00    +0.350 C 
ENDBRANCH  12  13
ENDBRANCH  10  12
ENDBRANCH   7   9
ENDBRANCH   1   7
BRANCH   4  19
ATOM     19  C   LIG    1       -4.873  -3.078   2.717  0.00  0.00    +0.230 C 
BRANCH  19  20
ATOM     20  N   LIG    1       -6.325  -2.852   2.696  0.00  0.00    -0.530 NA
ATOM     21  C   LIG    1       -6.724  -1.894   3.736  0.00  0.00    +0.140 C 
ATOM     22  C   LIG    1       -8.232  -1.643   3.640  0.00  0.00    +0.220 C 
ATOM     23  O   LIG    1       -8.925  -2.888   3.756  0.00  0.00    -0.390 OA
ATOM     24  C   LIG    1       -8.561  -3.845   2.758  0.00  0.00    +0.220 C 
ATOM     25  C   LIG    1       -7.057  -4.118   2.845  0.00  0.00    +0.150 C 
ENDBRANCH  19  20
ENDBRANCH   4  19
TORSDOF 6
