REMARK  Name = ZINCvU0000000HTV.0
REMARK                            x       y       z     vdW  Elec       q    Type
REMARK                         _______ _______ _______ _____ _____    ______ ____
ROOT
ATOM      1  O   LIG    1        1.423   6.154  -0.414  0.00  0.00    -0.510 OA
ATOM      2  C   LIG    1        1.162   5.598  -1.459  0.00  0.00    +0.520 C 
ATOM      3  N   LIG    1        1.750   6.002  -2.603  0.00  0.00    -0.610 N 
ATOM      4  C   LIG    1        1.528   5.271  -3.858  0.00  0.00    +0.280 C 
ATOM      5  C   LIG    1        2.880   4.899  -4.462  0.00  0.00    +0.010 C 
ATOM      6  C   LIG    1        3.734   6.160  -4.612  0.00  0.00    +0.030 C 
ATOM      7  C   LIG    1        3.974   6.782  -3.234  0.00  0.00    +0.030 C 
ATOM      8  C   LIG    1        2.629   7.179  -2.616  0.00  0.00    +0.330 C 
ENDROOT
BRANCH   8   9
ATOM      9  C   LIG    1        2.845   7.665  -1.207  0.00  0.00    +0.130 A 
ATOM     10  N   LIG    1        2.263   8.686  -0.701  0.00  0.00    -0.470 NA
ATOM     11  C   LIG    1        2.551   9.007   0.575  0.00  0.00    +0.100 A 
ATOM     12  C   LIG    1        2.064  10.063   1.370  0.00  0.00    +0.060 A 
ATOM     13  C   LIG    1        2.490  10.212   2.656  0.00  0.00    +0.020 A 
ATOM     14  C   LIG    1        3.409   9.331   3.206  0.00  0.00    +0.020 A 
ATOM     15  C   LIG    1        3.902   8.289   2.453  0.00  0.00    +0.060 A 
ATOM     16  C   LIG    1        3.478   8.120   1.137  0.00  0.00    -0.180 A 
ATOM     17  S   LIG    1        3.890   6.919  -0.083  0.00  0.00    +0.120 S 
ENDBRANCH   8   9
BRANCH   2  18
ATOM     18  C   LIG    1        0.180   4.455  -1.480  0.00  0.00    +0.080 C 
BRANCH  18  19
ATOM     19  C   LIG    1       -0.336   4.200  -0.063  0.00  0.00    +0.220 C 
BRANCH  19  20
ATOM     20  C   LIG    1       -1.317   3.056  -0.083  0.00  0.00    +0.190 A 
ATOM     21  N   LIG    1       -1.036   1.786   0.070  0.00  0.00    -0.470 NA
ATOM     22  C   LIG    1       -2.219   1.138  -0.024  0.00  0.00    +0.210 A 
ATOM     23  N   LIG    1       -3.140   2.044  -0.226  0.00  0.00    -0.370 NA
ATOM     24  O   LIG    1       -2.639   3.148  -0.263  0.00  0.00    +0.090 OA
BRANCH  22  25
ATOM     25  C   LIG    1       -2.432  -0.326   0.084  0.00  0.00    -0.020 A 
ATOM     26  C   LIG    1       -1.349  -1.176   0.298  0.00  0.00    +0.090 A 
ATOM     27  C   LIG    1       -1.552  -2.537   0.402  0.00  0.00    +0.030 A 
ATOM     28  C   LIG    1       -2.829  -3.059   0.285  0.00  0.00    -0.020 A 
ATOM     29  C   LIG    1       -3.908  -2.219   0.068  0.00  0.00    +0.030 A 
ATOM     30 CL   LIG    1       -3.079  -4.772   0.412  0.00  0.00    -0.060 Cl
ATOM     31  C   LIG    1       -3.715  -0.857  -0.033  0.00  0.00    +0.070 A 
ENDBRANCH  22  25
ENDBRANCH  19  20
ENDBRANCH  18  19
ENDBRANCH   2  18
TORSDOF 5
