REMARK  Name = ZINCpe00000y9nFK.0
REMARK                            x       y       z     vdW  Elec       q    Type
REMARK                         _______ _______ _______ _____ _____    ______ ____
ROOT
ATOM      1  C   LIG    1       -6.806   6.168   0.944  0.00  0.00    +0.250 C 
ATOM      2  C   LIG    1       -7.660   4.903   0.834  0.00  0.00    +0.060 C 
ATOM      3  C   LIG    1       -6.777   3.670   1.039  0.00  0.00    +0.160 C 
ATOM      4  C   LIG    1       -5.705   3.627  -0.055  0.00  0.00    +0.250 C 
ATOM      5  N   LIG    1       -4.973   4.901  -0.050  0.00  0.00    -0.590 N 
ATOM      6  C   LIG    1       -3.629   4.920   0.046  0.00  0.00    +0.610 C 
ATOM      7  O   LIG    1       -3.044   5.978   0.177  0.00  0.00    -0.500 OA
ATOM      8  C   LIG    1       -5.735   6.154  -0.144  0.00  0.00    +0.300 C 
ENDROOT
BRANCH   6   9
ATOM      9  C   LIG    1       -2.868   3.658  -0.009  0.00  0.00    -0.090 A 
ATOM     10  C   LIG    1       -1.528   3.499   0.210  0.00  0.00    +0.080 A 
ATOM     11  C   LIG    1       -1.319   2.104   0.034  0.00  0.00    +0.060 A 
ATOM     12  N   LIG    1       -2.487   1.591  -0.262  0.00  0.00    -0.330 NA
ATOM     13  O   LIG    1       -3.354   2.433  -0.284  0.00  0.00    +0.130 OA
BRANCH  11  14
ATOM     14  C   LIG    1       -0.032   1.374   0.156  0.00  0.00    +0.190 A 
ATOM     15  C   LIG    1        0.004  -0.002  -0.048  0.00  0.00    +0.000 A 
ATOM     16  C   LIG    1        1.212  -0.668   0.064  0.00  0.00    +0.070 A 
ATOM     17  C   LIG    1        2.347   0.066   0.376  0.00  0.00    -0.020 A 
ATOM     18  C   LIG    1        2.239   1.432   0.565  0.00  0.00    +0.280 A 
ATOM     19  N   LIG    1        1.076   2.041   0.453  0.00  0.00    -0.470 NA
ENDBRANCH  11  14
ENDBRANCH   6   9
BRANCH   1  21
ATOM     20  C   LIG    1       -5.792   7.392   2.792  0.00  0.00    +0.520 C 
ATOM     21  N   LIG    1       -6.163   6.210   2.260  0.00  0.00    -0.730 N 
ATOM     22  H   LIG    1       -6.003   5.387   2.748  0.00  0.00    +0.400 HD
ATOM     23  O   LIG    1       -5.992   8.421   2.181  0.00  0.00    -0.530 OA
BRANCH  20  25
ATOM     24  C   LIG    1       -4.814   8.886   4.512  0.00  0.00    +0.040 C 
ATOM     25  C   LIG    1       -5.130   7.435   4.144  0.00  0.00    +0.040 C 
ENDBRANCH  20  25
ENDBRANCH   1  21
BRANCH   3  26
ATOM     26  O   LIG    1       -7.581   2.491   0.966  0.00  0.00    -0.550 OA
ATOM     27  H   LIG    1       -7.085   1.669   1.085  0.00  0.00    +0.380 HD
ENDBRANCH   3  26
TORSDOF 5
