REMARK  Name = ZINCpe00000zgqIX.0
REMARK                            x       y       z     vdW  Elec       q    Type
REMARK                         _______ _______ _______ _____ _____    ______ ____
ROOT
ATOM      1  C   LIG    1       -0.732  -2.076   0.950  0.00  0.00    +0.100 C 
ATOM      2  C   LIG    1       -1.155  -0.929   0.008  0.00  0.00    +0.290 C 
ATOM      3  N   LIG    1        0.002  -0.004   0.002  0.00  0.00    -0.620 N 
ATOM      4  C   LIG    1        1.184  -0.897  -0.021  0.00  0.00    +0.280 C 
ATOM      5  C   LIG    1       -0.016   1.344   0.009  0.00  0.00    +0.550 C 
ATOM      6  O   LIG    1       -1.075   1.936   0.018  0.00  0.00    -0.520 OA
ATOM      7  C   LIG    1        0.810  -2.055   0.935  0.00  0.00    +0.000 C 
ENDROOT
BRANCH   1  11
ATOM      8  C   LIG    1       -3.114  -6.473   0.606  0.00  0.00    +0.360 C 
ATOM      9  N   LIG    1       -2.283  -5.309   0.287  0.00  0.00    -0.370 N 
ATOM     10  C   LIG    1       -2.061  -4.248   1.090  0.00  0.00    +0.250 A 
ATOM     11  C   LIG    1       -1.243  -3.396   0.430  0.00  0.00    -0.240 A 
ATOM     12  C   LIG    1       -0.961  -3.952  -0.821  0.00  0.00    +0.230 A 
ATOM     13  N   LIG    1       -1.579  -5.103  -0.906  0.00  0.00    -0.290 NA
ENDBRANCH   1  11
BRANCH   7  14
ATOM     14  C   LIG    1        1.344  -1.791   2.320  0.00  0.00    +0.520 C 
ATOM     15  O   LIG    1        0.576  -1.632   3.245  0.00  0.00    -0.530 OA
ATOM     16  N   LIG    1        2.674  -1.732   2.530  0.00  0.00    -0.860 N 
ATOM     17  H   LIG    1        3.017  -1.562   3.421  0.00  0.00    +0.400 HD
ATOM     18  H   LIG    1        3.288  -1.859   1.789  0.00  0.00    +0.400 HD
ENDBRANCH   7  14
BRANCH   5  19
ATOM     19  C   LIG    1        1.278   2.115   0.001  0.00  0.00    +0.130 C 
BRANCH  19  20
ATOM     20  C   LIG    1        0.983   3.592   0.012  0.00  0.00    -0.050 A 
ATOM     21  C   LIG    1        0.838   4.297  -1.175  0.00  0.00    +0.080 A 
ATOM     22  C   LIG    1        0.562   5.653  -1.125  0.00  0.00    +0.260 A 
ATOM     23  N   LIG    1        0.447   6.275   0.032  0.00  0.00    -0.440 NA
ATOM     24  C   LIG    1        0.584   5.639   1.179  0.00  0.00    +0.290 A 
ATOM     25  F   LIG    1        0.959   3.667  -2.364  0.00  0.00    -0.120 F 
ATOM     26  C   LIG    1        0.855   4.283   1.209  0.00  0.00    -0.050 A 
ATOM     27 CL   LIG    1        1.032   3.455   2.724  0.00  0.00    -0.030 Cl
ENDBRANCH  19  20
ENDBRANCH   5  19
TORSDOF 4
