REMARK  Name = ZINCrD000000fuUj.0
REMARK                            x       y       z     vdW  Elec       q    Type
REMARK                         _______ _______ _______ _____ _____    ______ ____
ROOT
ATOM      1  C   LIG    1       -0.016   1.080   0.008  0.00  0.00    +0.110 C 
ENDROOT
BRANCH   1   2
ATOM      2  C   LIG    1       -0.717   1.573   1.248  0.00  0.00    +0.540 C 
ATOM      3  N   LIG    1       -0.242   1.246   2.466  0.00  0.00    -0.670 N 
ATOM      4  H   LIG    1        0.511   0.639   2.546  0.00  0.00    +0.420 HD
ATOM      5  O   LIG    1       -1.709   2.264   1.150  0.00  0.00    -0.500 OA
BRANCH   3   6
ATOM      6  C   LIG    1       -0.833   1.782   3.615  0.00  0.00    +0.200 A 
ATOM      7  C   LIG    1       -0.053   2.086   4.723  0.00  0.00    -0.020 A 
ATOM      8  C   LIG    1       -0.639   2.620   5.853  0.00  0.00    +0.150 A 
ATOM      9  C   LIG    1       -2.003   2.841   5.887  0.00  0.00    -0.680 A 
ATOM     10  C   LIG    1       -2.784   2.534   4.788  0.00  0.00    +0.150 A 
ATOM     11  C   LIG    1       -2.203   2.006   3.652  0.00  0.00    +0.010 A 
BRANCH   9  12
ATOM     12  S   LIG    1       -2.749   3.515   7.335  0.00  0.00    +2.500 S 
ATOM     13  O   LIG    1       -3.919   4.164   6.856  0.00  0.00    -0.940 OA
ATOM     14  O   LIG    1       -1.704   4.253   7.956  0.00  0.00    -0.940 OA
ATOM     15  C   LIG    1       -3.187   2.067   8.335  0.00  0.00    -0.260 C 
ENDBRANCH   9  12
ENDBRANCH   3   6
ENDBRANCH   1   2
BRANCH   1  16
ATOM     16  S   LIG    1       -0.889   1.683  -1.458  0.00  0.00    +0.080 S 
BRANCH  16  25
ATOM     17  N   LIG    1       -0.101   1.117  -4.066  0.00  0.00    -0.470 N 
ATOM     18  C   LIG    1        0.904   0.420  -4.717  0.00  0.00    +0.060 A 
ATOM     19  C   LIG    1        1.212   0.200  -6.050  0.00  0.00    +0.010 A 
ATOM     20  C   LIG    1        2.309  -0.567  -6.384  0.00  0.00    +0.030 A 
ATOM     21  C   LIG    1        3.107  -1.120  -5.394  0.00  0.00    +0.010 A 
ATOM     22  C   LIG    1        2.816  -0.912  -4.064  0.00  0.00    +0.060 A 
ATOM     23  C   LIG    1        1.709  -0.138  -3.710  0.00  0.00    +0.060 A 
ATOM     24  N   LIG    1        1.177   0.238  -2.517  0.00  0.00    -0.500 NA
ATOM     25  C   LIG    1        0.115   0.979  -2.723  0.00  0.00    +0.240 A 
BRANCH  17  26
ATOM     26  C   LIG    1       -1.189   1.867  -4.698  0.00  0.00    +0.340 C 
BRANCH  26  28
ATOM     27  C   LIG    1       -0.816   3.813  -6.124  0.00  0.00    +0.060 C 
ATOM     28  C   LIG    1       -0.753   3.291  -4.924  0.00  0.00    -0.070 C 
ENDBRANCH  26  28
ENDBRANCH  17  26
ENDBRANCH  16  25
ENDBRANCH   1  16
TORSDOF 7
