REMARK  Name = ZINCpk00000KfL5g.0
REMARK                            x       y       z     vdW  Elec       q    Type
REMARK                         _______ _______ _______ _____ _____    ______ ____
ROOT
ATOM      1  N   LIG    1        1.289   1.725  -2.373  0.00  0.00    -0.530 NA
ATOM      2  C   LIG    1       -0.076   1.184  -2.437  0.00  0.00    +0.180 C 
ATOM      3  C   LIG    1       -0.848   1.888  -3.556  0.00  0.00    +0.170 C 
ATOM      4  N   LIG    1       -0.146   1.691  -4.832  0.00  0.00    -0.530 NA
ATOM      5  C   LIG    1        1.219   2.232  -4.767  0.00  0.00    +0.200 C 
ATOM      6  C   LIG    1        1.991   1.528  -3.649  0.00  0.00    +0.190 C 
ENDROOT
BRANCH   1   7
ATOM      7  C   LIG    1        2.040   1.127  -1.261  0.00  0.00    +0.160 C 
BRANCH   7   8
ATOM      8  C   LIG    1        3.232   2.021  -0.911  0.00  0.00    +0.260 C 
BRANCH   8   9
ATOM      9  C   LIG    1        4.010   1.401   0.221  0.00  0.00    -0.120 A 
ATOM     10  C   LIG    1        3.570   1.547   1.523  0.00  0.00    +0.010 A 
ATOM     11  C   LIG    1        4.281   0.975   2.561  0.00  0.00    +0.000 A 
ATOM     12  C   LIG    1        5.437   0.264   2.297  0.00  0.00    +0.000 A 
ATOM     13  C   LIG    1        5.880   0.123   0.995  0.00  0.00    +0.000 A 
ATOM     14  C   LIG    1        5.166   0.692  -0.043  0.00  0.00    +0.010 A 
ENDBRANCH   8   9
BRANCH   8  15
ATOM     15  O   LIG    1        2.760   3.311  -0.515  0.00  0.00    -0.540 OA
ATOM     16  H   LIG    1        2.178   3.296   0.257  0.00  0.00    +0.370 HD
ENDBRANCH   8  15
ENDBRANCH   7   8
ENDBRANCH   1   7
BRANCH   4  17
ATOM     17  C   LIG    1       -0.897   2.288  -5.944  0.00  0.00    +0.310 C 
BRANCH  17  18
ATOM     18  C   LIG    1       -2.350   1.903  -5.834  0.00  0.00    +0.180 A 
ATOM     19  N   LIG    1       -2.917   0.851  -6.365  0.00  0.00    -0.280 NA
ATOM     20  N   LIG    1       -4.171   0.833  -6.064  0.00  0.00    -0.290 NA
ATOM     21  C   LIG    1       -4.456   1.872  -5.339  0.00  0.00    +0.180 A 
ATOM     22  C   LIG    1       -5.788   2.274  -4.758  0.00  0.00    +0.160 C 
ATOM     23  C   LIG    1       -5.537   3.329  -3.672  0.00  0.00    +0.030 C 
ATOM     24  C   LIG    1       -4.603   4.410  -4.224  0.00  0.00    +0.030 C 
ATOM     25  C   LIG    1       -3.199   3.827  -4.419  0.00  0.00    +0.280 C 
ATOM     26  N   LIG    1       -3.310   2.579  -5.174  0.00  0.00    -0.470 N 
ENDBRANCH  17  18
ENDBRANCH   4  17
TORSDOF 6
