REMARK  Name = ZINCtj00000s2ivs.0
REMARK                            x       y       z     vdW  Elec       q    Type
REMARK                         _______ _______ _______ _____ _____    ______ ____
ROOT
ATOM      1  C   LIG    1       -0.586   1.399   3.752  0.00  0.00    +0.750 C 
ENDROOT
BRANCH   1   2
ATOM      2  N   LIG    1        0.093   0.983   4.873  0.00  0.00    -0.610 NA
ATOM      3  C   LIG    1       -0.457   1.213   6.218  0.00  0.00    +0.320 C 
ATOM      4  C   LIG    1       -0.442  -0.122   6.979  0.00  0.00    +0.210 C 
ATOM      5  N   LIG    1        0.917  -0.681   6.951  0.00  0.00    -0.470 N 
ATOM      6  C   LIG    1        1.337  -0.991   5.578  0.00  0.00    +0.230 C 
ATOM      7  C   LIG    1        1.392   0.303   4.760  0.00  0.00    +0.320 C 
BRANCH   5   8
ATOM      8  C   LIG    1        1.011  -1.803   7.767  0.00  0.00    +0.300 A 
ATOM      9  C   LIG    1        0.661  -1.710   9.110  0.00  0.00    -0.040 A 
ATOM     10  C   LIG    1        0.756  -2.835   9.909  0.00  0.00    +0.090 A 
ATOM     11  C   LIG    1        1.208  -4.017   9.338  0.00  0.00    -0.050 A 
ATOM     12  C   LIG    1        1.543  -4.036   7.999  0.00  0.00    +0.290 A 
ATOM     13  N   LIG    1        1.438  -2.949   7.259  0.00  0.00    -0.520 NA
ENDBRANCH   5   8
ENDBRANCH   1   2
BRANCH   1  14
ATOM     14  N   LIG    1       -1.222   2.537   3.760  0.00  0.00    -0.630 NA
ATOM     15  H   LIG    1       -1.283   3.053   4.580  0.00  0.00    +0.440 HD
BRANCH  14  16
ATOM     16  C   LIG    1       -1.844   3.037   2.532  0.00  0.00    +0.240 C 
ATOM     17  C   LIG    1       -3.257   2.466   2.407  0.00  0.00    +0.070 C 
BRANCH  16  18
ATOM     18  C   LIG    1       -1.913   4.565   2.581  0.00  0.00    +0.210 C 
BRANCH  18  20
ATOM     19  C   LIG    1       -2.922   6.385   3.770  0.00  0.00    +0.230 C 
ATOM     20  O   LIG    1       -2.786   4.968   3.638  0.00  0.00    -0.390 OA
ENDBRANCH  18  20
ENDBRANCH  16  18
ENDBRANCH  14  16
ENDBRANCH   1  14
BRANCH   1  21
ATOM     21  N   LIG    1       -0.595   0.615   2.623  0.00  0.00    -0.710 NA
ATOM     22  H   LIG    1       -0.609   1.028   1.746  0.00  0.00    +0.430 HD
BRANCH  21  23
ATOM     23  C   LIG    1       -0.582  -0.845   2.746  0.00  0.00    +0.340 C 
BRANCH  23  24
ATOM     24  C   LIG    1       -2.009  -1.381   2.612  0.00  0.00    +0.110 C 
ATOM     25  C   LIG    1       -1.998  -2.907   2.743  0.00  0.00    +0.200 C 
ATOM     26  O   LIG    1       -3.345  -3.388   2.728  0.00  0.00    -0.360 OA
ATOM     27  C   LIG    1       -4.164  -2.833   3.762  0.00  0.00    +0.200 C 
ATOM     28  C   LIG    1       -4.174  -1.308   3.631  0.00  0.00    +0.080 C 
ATOM     29  C   LIG    1       -4.843  -0.913   2.313  0.00  0.00    +0.030 C 
ATOM     30  C   LIG    1       -4.948  -0.699   4.801  0.00  0.00    +0.070 C 
ATOM     31  O   LIG    1       -2.827  -0.826   3.646  0.00  0.00    -0.370 OA
ENDBRANCH  23  24
ENDBRANCH  21  23
ENDBRANCH   1  21
TORSDOF 9
