REMARK  Name = ZINCrH000004qhW6.0
REMARK                            x       y       z     vdW  Elec       q    Type
REMARK                         _______ _______ _______ _____ _____    ______ ____
ROOT
ATOM      1  C   LIG    1        1.758   3.132   0.002  0.00  0.00    +0.130 C 
ATOM      2  C   LIG    1        2.765   3.355  -1.150  0.00  0.00    +0.090 C 
ATOM      3  C   LIG    1        3.807   4.278  -0.558  0.00  0.00    +0.520 C 
ATOM      4  N   LIG    1        3.709   4.287   0.782  0.00  0.00    -0.620 N 
ATOM      5  O   LIG    1        4.614   4.917  -1.200  0.00  0.00    -0.510 OA
ATOM      6  C   LIG    1        2.637   3.398   1.244  0.00  0.00    +0.290 C 
ENDROOT
BRANCH   1  10
ATOM      7  C   LIG    1        0.002  -0.004   0.002  0.00  0.00    +0.220 A 
ATOM      8  N   LIG    1        1.257  -0.373  -0.012  0.00  0.00    -0.370 NA
ATOM      9  O   LIG    1        1.978   0.602  -0.014  0.00  0.00    +0.090 OA
ATOM     10  C   LIG    1        1.240   1.717  -0.001  0.00  0.00    +0.190 A 
ATOM     11  N   LIG    1       -0.016   1.348   0.009  0.00  0.00    -0.460 NA
BRANCH   7  15
ATOM     12  C   LIG    1       -1.924  -4.610  -0.004  0.00  0.00    +0.110 C 
ATOM     13  C   LIG    1       -2.109  -3.114   0.006  0.00  0.00    -0.120 A 
ATOM     14  C   LIG    1       -1.008  -2.284  -0.001  0.00  0.00    +0.080 A 
ATOM     15  C   LIG    1       -1.180  -0.901   0.009  0.00  0.00    -0.030 A 
ATOM     16  C   LIG    1       -2.465  -0.363   0.029  0.00  0.00    +0.100 A 
ATOM     17  C   LIG    1       -3.562  -1.201   0.031  0.00  0.00    +0.000 A 
ATOM     18  C   LIG    1       -3.386  -2.575   0.021  0.00  0.00    +0.120 A 
ATOM     19  F   LIG    1       -4.462  -3.392   0.028  0.00  0.00    -0.130 F 
ENDBRANCH   7  15
ENDBRANCH   1  10
BRANCH   4  20
ATOM     20  C   LIG    1        4.564   5.081   1.668  0.00  0.00    +0.300 C 
BRANCH  20  21
ATOM     21  C   LIG    1        5.799   4.265   2.053  0.00  0.00    +0.060 C 
BRANCH  21  22
ATOM     22  C   LIG    1        6.678   5.083   2.964  0.00  0.00    -0.090 A 
ATOM     23  C   LIG    1        7.667   5.888   2.431  0.00  0.00    +0.010 A 
ATOM     24  C   LIG    1        8.470   6.641   3.267  0.00  0.00    +0.000 A 
ATOM     25  C   LIG    1        8.290   6.582   4.636  0.00  0.00    +0.000 A 
ATOM     26  C   LIG    1        7.304   5.773   5.170  0.00  0.00    +0.000 A 
ATOM     27  C   LIG    1        6.497   5.024   4.334  0.00  0.00    +0.000 A 
ENDBRANCH  21  22
ENDBRANCH  20  21
ENDBRANCH   4  20
TORSDOF 5
