REMARK  Name = ZINCrH000004sAmk.0
REMARK                            x       y       z     vdW  Elec       q    Type
REMARK                         _______ _______ _______ _____ _____    ______ ____
ROOT
ATOM      1  C   LIG    1        1.425  -4.157  -1.472  0.00  0.00    +0.530 C 
ATOM      2  N   LIG    1        1.539  -4.820  -2.640  0.00  0.00    -0.620 N 
ATOM      3  C   LIG    1        1.623  -4.201  -3.975  0.00  0.00    +0.240 C 
ATOM      4  C   LIG    1        1.122  -5.295  -4.952  0.00  0.00    +0.040 C 
ATOM      5  C   LIG    1        1.701  -6.580  -4.303  0.00  0.00    +0.040 C 
ATOM      6  C   LIG    1        1.605  -6.281  -2.792  0.00  0.00    +0.270 C 
ATOM      7  O   LIG    1        1.364  -4.772  -0.429  0.00  0.00    -0.520 OA
ENDROOT
BRANCH   6   8
ATOM      8  C   LIG    1        2.823  -6.816  -2.083  0.00  0.00    -0.060 A 
ATOM      9  C   LIG    1        2.744  -7.998  -1.372  0.00  0.00    +0.020 A 
ATOM     10  C   LIG    1        3.860  -8.490  -0.721  0.00  0.00    +0.040 A 
ATOM     11  C   LIG    1        5.056  -7.800  -0.781  0.00  0.00    -0.010 A 
ATOM     12  C   LIG    1        5.136  -6.615  -1.493  0.00  0.00    +0.100 A 
ATOM     13  F   LIG    1        6.304  -5.940  -1.552  0.00  0.00    -0.140 F 
ATOM     14  C   LIG    1        4.019  -6.127  -2.149  0.00  0.00    -0.010 A 
ENDBRANCH   6   8
BRANCH   1  15
ATOM     15  C   LIG    1        1.375  -2.651  -1.463  0.00  0.00    +0.060 C 
BRANCH  15  16
ATOM     16  C   LIG    1        1.246  -2.154  -0.022  0.00  0.00    +0.140 C 
BRANCH  16  27
ATOM     17  C   LIG    1        3.713  -0.606  -0.037  0.00  0.00    +0.160 C 
ATOM     18  C   LIG    1        2.381   0.100  -0.020  0.00  0.00    +0.220 A 
ATOM     19  N   LIG    1        2.337   1.411  -0.012  0.00  0.00    -0.470 NA
ATOM     20  C   LIG    1        1.165   2.059   0.002  0.00  0.00    +0.260 A 
ATOM     21  C   LIG    1        0.836   3.408   0.013  0.00  0.00    -0.110 A 
ATOM     22  C   LIG    1       -0.547   3.504   0.027  0.00  0.00    +0.290 A 
ATOM     23  N   LIG    1       -1.060   2.293   0.030  0.00  0.00    -0.320 NA
ATOM     24  N   LIG    1       -0.016   1.361   0.009  0.00  0.00    -0.310 N 
ATOM     25  C   LIG    1        0.002  -0.004   0.002  0.00  0.00    +0.200 A 
ATOM     26  C   LIG    1       -1.287  -0.785   0.011  0.00  0.00    +0.160 C 
ATOM     27  C   LIG    1        1.195  -0.647  -0.013  0.00  0.00    -0.200 A 
ENDBRANCH  16  27
ENDBRANCH  15  16
ENDBRANCH   1  15
TORSDOF 4
