REMARK  Name = ZINCrD00000hQ4jx.0
REMARK                            x       y       z     vdW  Elec       q    Type
REMARK                         _______ _______ _______ _____ _____    ______ ____
ROOT
ATOM      1  C   LIG    1       -4.216   4.932   5.879  0.00  0.00    +0.260 C 
ATOM      2  C   LIG    1       -4.074   6.420   5.486  0.00  0.00    +0.030 C 
ATOM      3  C   LIG    1       -5.432   7.026   5.921  0.00  0.00    +0.180 C 
ATOM      4  N   LIG    1       -6.403   5.949   5.597  0.00  0.00    -0.500 NA
ATOM      5  C   LIG    1       -5.734   4.680   5.957  0.00  0.00    +0.180 C 
ENDROOT
BRANCH   5   6
ATOM      6  C   LIG    1       -6.125   3.599   4.984  0.00  0.00    -0.060 A 
ATOM      7  C   LIG    1       -6.290   3.901   3.645  0.00  0.00    +0.060 A 
ATOM      8  C   LIG    1       -6.644   2.909   2.749  0.00  0.00    +0.020 A 
ATOM      9  C   LIG    1       -6.845   1.615   3.194  0.00  0.00    +0.070 A 
ATOM     10  C   LIG    1       -6.685   1.312   4.538  0.00  0.00    +0.070 A 
ATOM     11  F   LIG    1       -6.880   0.049   4.975  0.00  0.00    -0.130 F 
ATOM     12  F   LIG    1       -7.197   0.646   2.320  0.00  0.00    -0.120 F 
ATOM     13  C   LIG    1       -6.325   2.306   5.431  0.00  0.00    +0.030 A 
ENDBRANCH   5   6
BRANCH   1  15
ATOM     14  C   LIG    1       -2.294   3.791   4.910  0.00  0.00    +0.570 C 
ATOM     15  N   LIG    1       -3.611   4.076   4.857  0.00  0.00    -0.720 N 
ATOM     16  H   LIG    1       -4.157   3.714   4.142  0.00  0.00    +0.400 HD
ATOM     17  O   LIG    1       -1.610   4.245   5.806  0.00  0.00    -0.520 OA
BRANCH  14  22
ATOM     18  C   LIG    1        0.048   0.481   0.955  0.00  0.00    +0.180 C 
ATOM     19  C   LIG    1       -0.575   1.361   2.008  0.00  0.00    +0.350 A 
ATOM     20  N   LIG    1       -1.843   1.702   1.886  0.00  0.00    -0.520 NA
ATOM     21  C   LIG    1       -2.432   2.468   2.788  0.00  0.00    +0.350 A 
ATOM     22  C   LIG    1       -1.683   2.927   3.878  0.00  0.00    -0.260 A 
ATOM     23  C   LIG    1       -0.339   2.545   3.963  0.00  0.00    +0.240 A 
ATOM     24  C   LIG    1        0.517   3.007   5.114  0.00  0.00    +0.170 C 
ATOM     25  N   LIG    1        0.166   1.771   3.018  0.00  0.00    -0.520 NA
ENDBRANCH  14  22
ENDBRANCH   1  15
BRANCH   4  26
ATOM     26  C   LIG    1       -7.651   6.120   6.353  0.00  0.00    +0.120 C 
ATOM     27  C   LIG    1       -8.593   4.953   6.053  0.00  0.00    +0.040 C 
ATOM     28  C   LIG    1       -8.319   7.434   5.945  0.00  0.00    +0.050 C 
ENDBRANCH   4  26
TORSDOF 4
