REMARK  Name = ZINCvU00000007I2.0
REMARK                            x       y       z     vdW  Elec       q    Type
REMARK                         _______ _______ _______ _____ _____    ______ ____
ROOT
ATOM      1  C   LIG    1        1.196   1.831   0.002  0.00  0.00    +0.140 A 
ATOM      2  N   LIG    1        1.944   0.802  -0.307  0.00  0.00    -0.440 NA
ATOM      3  C   LIG    1        1.095  -0.246  -0.412  0.00  0.00    +0.210 A 
ATOM      4  N   LIG    1       -0.108   0.206  -0.164  0.00  0.00    -0.340 NA
ATOM      5  O   LIG    1       -0.065   1.394   0.075  0.00  0.00    +0.100 OA
ENDROOT
BRANCH   3   6
ATOM      6  C   LIG    1        1.458  -1.644  -0.748  0.00  0.00    -0.090 A 
ATOM      7  C   LIG    1        2.787  -1.992  -0.992  0.00  0.00    +0.160 A 
ATOM      8  C   LIG    1        3.076  -3.312  -1.302  0.00  0.00    -0.060 A 
ATOM      9  C   LIG    1        2.049  -4.236  -1.359  0.00  0.00    +0.330 A 
ATOM     10  N   LIG    1        0.800  -3.882  -1.123  0.00  0.00    -0.520 NA
ATOM     11  C   LIG    1        0.474  -2.638  -0.819  0.00  0.00    +0.350 A 
BRANCH  11  12
ATOM     12  O   LIG    1       -0.822  -2.321  -0.579  0.00  0.00    -0.230 OA
BRANCH  12  13
ATOM     13  C   LIG    1       -1.758  -3.291  -0.747  0.00  0.00    +0.090 A 
ATOM     14  C   LIG    1       -2.541  -3.310  -1.893  0.00  0.00    +0.010 A 
ATOM     15  C   LIG    1       -3.488  -4.301  -2.064  0.00  0.00    +0.020 A 
ATOM     16  C   LIG    1       -3.664  -5.267  -1.091  0.00  0.00    +0.020 A 
ATOM     17  C   LIG    1       -2.889  -5.247   0.054  0.00  0.00    +0.020 A 
ATOM     18  C   LIG    1       -1.936  -4.262   0.228  0.00  0.00    +0.010 A 
ENDBRANCH  12  13
ENDBRANCH  11  12
ENDBRANCH   3   6
BRANCH   1  20
ATOM     19  C   LIG    1        2.604   3.279   1.441  0.00  0.00    +0.120 C 
ATOM     20  C   LIG    1        1.668   3.244   0.231  0.00  0.00    +0.290 C 
BRANCH  20  21
ATOM     21  C   LIG    1        0.480   4.135   0.489  0.00  0.00    -0.130 A 
ATOM     22  C   LIG    1        0.201   5.180  -0.372  0.00  0.00    +0.070 A 
ATOM     23  C   LIG    1       -0.891   5.995  -0.138  0.00  0.00    +0.030 A 
ATOM     24  C   LIG    1       -1.698   5.771   0.962  0.00  0.00    +0.080 A 
ATOM     25  C   LIG    1       -1.416   4.728   1.825  0.00  0.00    -0.180 A 
ATOM     26  C   LIG    1       -0.326   3.911   1.589  0.00  0.00    +0.090 A 
BRANCH  25  27
ATOM     27  C   LIG    1       -2.295   4.484   3.024  0.00  0.00    +0.510 C 
ATOM     28  F   LIG    1       -2.292   3.119   3.334  0.00  0.00    -0.170 F 
ATOM     29  F   LIG    1       -3.601   4.893   2.736  0.00  0.00    -0.170 F 
ATOM     30  F   LIG    1       -1.809   5.211   4.115  0.00  0.00    -0.170 F 
ENDBRANCH  25  27
ENDBRANCH  20  21
BRANCH  20  31
ATOM     31  O   LIG    1        2.368   3.706  -0.926  0.00  0.00    -0.520 OA
ATOM     32  H   LIG    1        1.834   3.710  -1.733  0.00  0.00    +0.390 HD
ENDBRANCH  20  31
ENDBRANCH   1  20
TORSDOF 7
