REMARK  Name = ZINCrD0000075goV.0
REMARK                            x       y       z     vdW  Elec       q    Type
REMARK                         _______ _______ _______ _____ _____    ______ ____
ROOT
ATOM      1  N   LIG    1        0.002  -0.004   0.002  0.00  0.00    -0.570 N 
ATOM      2  C   LIG    1        1.151  -0.622   0.342  0.00  0.00    +0.520 C 
ATOM      3  O   LIG    1        1.318  -1.790   0.059  0.00  0.00    -0.490 OA
ENDROOT
BRANCH   1   4
ATOM      4  C   LIG    1       -1.038  -0.734  -0.587  0.00  0.00    +0.120 A 
ATOM      5  C   LIG    1       -1.395  -0.494  -1.907  0.00  0.00    +0.050 A 
ATOM      6  C   LIG    1       -2.417  -1.218  -2.488  0.00  0.00    +0.000 A 
ATOM      7  C   LIG    1       -3.094  -2.176  -1.751  0.00  0.00    +0.110 A 
ATOM      8  C   LIG    1       -2.743  -2.413  -0.432  0.00  0.00    +0.000 A 
ATOM      9  F   LIG    1       -4.098  -2.879  -2.319  0.00  0.00    -0.130 F 
ATOM     10  C   LIG    1       -1.717  -1.695   0.150  0.00  0.00    +0.060 A 
ENDBRANCH   1   4
BRANCH   1  11
ATOM     11  C   LIG    1       -0.158   1.431   0.248  0.00  0.00    +0.310 C 
BRANCH  11  12
ATOM     12  C   LIG    1       -0.754   1.646   1.641  0.00  0.00    +0.180 C 
BRANCH  12  14
ATOM     13  N   LIG    1       -1.040   4.201   2.079  0.00  0.00    -0.410 NA
ATOM     14  C   LIG    1       -0.916   3.088   1.888  0.00  0.00    +0.200 C 
ENDBRANCH  12  14
ENDBRANCH  11  12
ENDBRANCH   1  11
BRANCH   2  15
ATOM     15  C   LIG    1        2.227   0.138   1.074  0.00  0.00    +0.270 C 
BRANCH  15  16
ATOM     16  O   LIG    1        3.355  -0.741   1.324  0.00  0.00    -0.330 OA
BRANCH  16  17
ATOM     17  C   LIG    1        4.406  -0.215   1.973  0.00  0.00    +0.470 C 
ATOM     18  O   LIG    1        4.384   0.942   2.319  0.00  0.00    -0.500 OA
BRANCH  17  19
ATOM     19  C   LIG    1        5.613  -1.067   2.268  0.00  0.00    +0.140 C 
BRANCH  19  20
ATOM     20  C   LIG    1        6.659  -0.231   3.009  0.00  0.00    +0.060 C 
BRANCH  20  21
ATOM     21  C   LIG    1        7.866  -1.083   3.304  0.00  0.00    +0.430 C 
ATOM     22  O   LIG    1        7.888  -2.246   2.955  0.00  0.00    -0.450 OA
BRANCH  21  23
ATOM     23  C   LIG    1        8.972  -0.529   3.986  0.00  0.00    -0.320 A 
ATOM     24  C   LIG    1       10.123  -1.199   4.312  0.00  0.00    +0.110 A 
ATOM     25  C   LIG    1       11.036  -0.417   4.975  0.00  0.00    -0.010 A 
ATOM     26  C   LIG    1       10.652   0.849   5.188  0.00  0.00    -0.050 A 
ATOM     27  S   LIG    1        9.096   1.133   4.548  0.00  0.00    +0.230 S 
ENDBRANCH  21  23
ENDBRANCH  20  21
ENDBRANCH  19  20
ENDBRANCH  17  19
ENDBRANCH  16  17
ENDBRANCH  15  16
ENDBRANCH   2  15
TORSDOF 11
