REMARK  Name = ZINCrD00000F5LvZ.0
REMARK                            x       y       z     vdW  Elec       q    Type
REMARK                         _______ _______ _______ _____ _____    ______ ____
ROOT
ATOM      1  N   LIG    1        3.578   0.122   2.510  0.00  0.00    -0.590 N 
ENDROOT
BRANCH   1   5
ATOM      2  C   LIG    1       -0.635  -1.550   4.378  0.00  0.00    +0.110 C 
ATOM      3  C   LIG    1        0.866  -1.592   4.246  0.00  0.00    +0.050 A 
ATOM      4  C   LIG    1        1.522  -0.704   3.438  0.00  0.00    -0.100 A 
ATOM      5  C   LIG    1        2.910  -0.771   3.333  0.00  0.00    +0.440 A 
ATOM      6  N   LIG    1        3.602  -1.675   4.012  0.00  0.00    -0.540 NA
ATOM      7  C   LIG    1        3.010  -2.544   4.806  0.00  0.00    +0.380 A 
ATOM      8  C   LIG    1        1.622  -2.538   4.954  0.00  0.00    -0.150 A 
BRANCH   8   9
ATOM      9  C   LIG    1        0.980  -3.484   5.816  0.00  0.00    +0.260 C 
ATOM     10  N   LIG    1        0.470  -4.234   6.500  0.00  0.00    -0.420 NA
ENDBRANCH   8   9
ENDBRANCH   1   5
BRANCH   1  11
ATOM     11  C   LIG    1        2.823   0.963   1.577  0.00  0.00    +0.290 C 
BRANCH  11  12
ATOM     12  C   LIG    1        2.774   0.286   0.206  0.00  0.00    -0.050 C 
ATOM     13  C   LIG    1        1.961  -1.030   0.280  0.00  0.00    +0.010 C 
ATOM     14  C   LIG    1        1.159  -0.990  -1.046  0.00  0.00    +0.200 C 
ATOM     15  O   LIG    1        0.835   0.408  -1.202  0.00  0.00    -0.370 OA
ATOM     16  C   LIG    1        1.996   1.155  -0.801  0.00  0.00    +0.150 C 
ATOM     17  C   LIG    1        1.567   2.464  -0.135  0.00  0.00    +0.050 C 
ENDBRANCH  11  12
ENDBRANCH   1  11
BRANCH   1  18
ATOM     18  C   LIG    1        5.037   0.227   2.574  0.00  0.00    +0.400 C 
BRANCH  18  19
ATOM     19  C   LIG    1        5.423   1.267   3.594  0.00  0.00    -0.030 A 
ATOM     20  C   LIG    1        5.739   1.020   4.891  0.00  0.00    +0.030 A 
ATOM     21  C   LIG    1        6.037   2.240   5.502  0.00  0.00    -0.020 A 
ATOM     22  C   LIG    1        5.891   3.222   4.539  0.00  0.00    -0.030 A 
ATOM     23  C   LIG    1        6.050   4.620   4.551  0.00  0.00    +0.370 A 
ATOM     24  N   LIG    1        5.836   5.308   3.455  0.00  0.00    -0.490 NA
ATOM     25  C   LIG    1        5.468   4.708   2.317  0.00  0.00    +0.210 A 
ATOM     26  C   LIG    1        5.301   3.374   2.247  0.00  0.00    +0.150 A 
ATOM     27  N   LIG    1        5.515   2.599   3.363  0.00  0.00    -0.330 N 
ENDBRANCH  18  19
ENDBRANCH   1  18
TORSDOF 6
