REMARK  Name = ZINCvU00000007LH.0
REMARK                            x       y       z     vdW  Elec       q    Type
REMARK                         _______ _______ _______ _____ _____    ______ ____
ROOT
ATOM      1  C   LIG    1       -2.208   5.344   3.812  0.00  0.00    +0.140 C 
ATOM      2  N   LIG    1       -2.740   4.649   4.758  0.00  0.00    -0.220 NA
ATOM      3  N   LIG    1       -3.315   5.414   5.771  0.00  0.00    -0.460 N 
ATOM      4  C   LIG    1       -3.147   6.839   5.446  0.00  0.00    +0.260 C 
ATOM      5  C   LIG    1       -3.929   4.927   6.868  0.00  0.00    +0.560 C 
ATOM      6  O   LIG    1       -4.400   5.687   7.687  0.00  0.00    -0.510 OA
ATOM      7  C   LIG    1       -2.389   6.816   4.104  0.00  0.00    +0.110 C 
ENDROOT
BRANCH   4   8
ATOM      8  C   LIG    1       -4.488   7.508   5.286  0.00  0.00    -0.130 A 
ATOM      9  C   LIG    1       -5.617   6.752   5.152  0.00  0.00    +0.120 A 
ATOM     10  C   LIG    1       -6.850   7.418   5.010  0.00  0.00    -0.090 A 
ATOM     11  C   LIG    1       -8.053   6.707   4.874  0.00  0.00    +0.030 A 
ATOM     12  C   LIG    1       -9.224   7.387   4.735  0.00  0.00    +0.030 A 
ATOM     13  C   LIG    1       -9.246   8.780   4.728  0.00  0.00    +0.040 A 
ATOM     14  C   LIG    1       -8.098   9.501   4.857  0.00  0.00    -0.050 A 
ATOM     15  C   LIG    1       -8.146  11.007   4.846  0.00  0.00    +0.110 C 
ATOM     16  C   LIG    1       -6.869   8.835   5.002  0.00  0.00    +0.140 A 
ATOM     17  N   LIG    1       -5.726   9.517   5.133  0.00  0.00    -0.450 NA
ATOM     18  C   LIG    1       -4.576   8.900   5.270  0.00  0.00    +0.220 A 
ATOM     19 CL   LIG    1       -3.127   9.841   5.435  0.00  0.00    -0.020 Cl
ENDBRANCH   4   8
BRANCH   1  24
ATOM     20  C   LIG    1       -0.787   2.892   1.346  0.00  0.00    +0.130 A 
ATOM     21  C   LIG    1       -0.257   3.750   0.392  0.00  0.00    -0.060 A 
ATOM     22  C   LIG    1       -0.362   5.119   0.551  0.00  0.00    +0.050 A 
ATOM     23  C   LIG    1       -0.995   5.643   1.659  0.00  0.00    +0.000 A 
ATOM     24  C   LIG    1       -1.531   4.788   2.626  0.00  0.00    +0.000 A 
ATOM     25  C   LIG    1       -1.429   3.406   2.461  0.00  0.00    +0.030 A 
BRANCH  20  27
ATOM     26  C   LIG    1       -0.013   1.086   0.008  0.00  0.00    +0.250 C 
ATOM     27  O   LIG    1       -0.682   1.547   1.184  0.00  0.00    -0.310 OA
ENDBRANCH  20  27
ENDBRANCH   1  24
BRANCH   5  28
ATOM     28  C   LIG    1       -4.030   3.438   7.076  0.00  0.00    -0.070 C 
ATOM     29  C   LIG    1       -2.625   2.835   7.141  0.00  0.00    +0.060 C 
ATOM     30  C   LIG    1       -4.800   2.811   5.912  0.00  0.00    +0.060 C 
ATOM     31  C   LIG    1       -4.767   3.155   8.387  0.00  0.00    +0.060 C 
ENDBRANCH   5  28
TORSDOF 4
