REMARK  Name = ZINCAx0000000eT6.0
REMARK                            x       y       z     vdW  Elec       q    Type
REMARK                         _______ _______ _______ _____ _____    ______ ____
ROOT
ATOM      1  O   LIG    1       -2.452   1.576   6.696  0.00  0.00    -0.330 OA
ENDROOT
BRANCH   1   2
ATOM      2  C   LIG    1       -3.333   2.572   6.478  0.00  0.00    +0.520 C 
ATOM      3  O   LIG    1       -4.295   2.703   7.209  0.00  0.00    -0.480 OA
BRANCH   2   4
ATOM      4  C   LIG    1       -3.130   3.503   5.351  0.00  0.00    -0.180 A 
ATOM      5  C   LIG    1       -2.026   3.356   4.509  0.00  0.00    +0.240 A 
ATOM      6  C   LIG    1       -1.843   4.229   3.458  0.00  0.00    -0.710 A 
ATOM      7  C   LIG    1       -2.746   5.255   3.238  0.00  0.00    +0.210 A 
ATOM      8  C   LIG    1       -3.845   5.406   4.063  0.00  0.00    -0.020 A 
ATOM      9  C   LIG    1       -4.043   4.538   5.121  0.00  0.00    +0.220 A 
ATOM     10  F   LIG    1       -5.115   4.689   5.930  0.00  0.00    -0.100 F 
BRANCH   6  11
ATOM     11  S   LIG    1       -0.449   4.044   2.395  0.00  0.00    +2.690 S 
ATOM     12  O   LIG    1       -0.218   5.318   1.811  0.00  0.00    -0.940 OA
ATOM     13  O   LIG    1        0.534   3.341   3.142  0.00  0.00    -0.940 OA
BRANCH  11  14
ATOM     14  N   LIG    1       -0.905   3.039   1.160  0.00  0.00    -1.000 NA
ATOM     15  C   LIG    1       -0.732   1.581   1.268  0.00  0.00    +0.270 C 
ATOM     16  C   LIG    1       -0.013   1.086   0.008  0.00  0.00    +0.220 C 
ATOM     17  O   LIG    1       -0.706   1.560  -1.149  0.00  0.00    -0.380 OA
ATOM     18  C   LIG    1       -0.736   2.985  -1.270  0.00  0.00    +0.220 C 
ATOM     19  C   LIG    1       -1.493   3.577  -0.076  0.00  0.00    +0.270 C 
ENDBRANCH  11  14
ENDBRANCH   6  11
ENDBRANCH   2   4
ENDBRANCH   1   2
BRANCH   1  20
ATOM     20  C   LIG    1       -2.715   0.698   7.822  0.00  0.00    +0.300 C 
BRANCH  20  23
ATOM     21  N   LIG    1       -1.669  -1.276   8.884  0.00  0.00    -0.620 N 
ATOM     22  H   LIG    1       -2.392  -1.272   9.530  0.00  0.00    +0.430 HD
ATOM     23  C   LIG    1       -1.633  -0.346   7.909  0.00  0.00    +0.520 C 
ATOM     24  O   LIG    1       -0.728  -0.350   7.100  0.00  0.00    -0.470 OA
BRANCH  21  28
ATOM     25  C   LIG    1        0.423  -4.011   9.776  0.00  0.00    +0.140 A 
ATOM     26  C   LIG    1        1.281  -3.775   8.768  0.00  0.00    -0.110 A 
ATOM     27  S   LIG    1        0.702  -2.375   7.869  0.00  0.00    +0.210 S 
ATOM     28  C   LIG    1       -0.671  -2.239   8.963  0.00  0.00    +0.270 A 
ATOM     29  N   LIG    1       -0.601  -3.175   9.858  0.00  0.00    -0.500 NA
BRANCH  25  33
ATOM     30  C   LIG    1        0.973  -7.210  12.526  0.00  0.00    +0.140 A 
ATOM     31  C   LIG    1       -0.123  -6.367  12.654  0.00  0.00    -0.020 A 
ATOM     32  C   LIG    1       -0.303  -5.329  11.764  0.00  0.00    +0.090 A 
ATOM     33  C   LIG    1        0.615  -5.127  10.735  0.00  0.00    -0.060 A 
ATOM     34  C   LIG    1        1.711  -5.979  10.606  0.00  0.00    +0.070 A 
ATOM     35  C   LIG    1        1.889  -7.011  11.503  0.00  0.00    -0.080 A 
BRANCH  30  37
ATOM     36  C   LIG    1        2.296  -9.061  13.215  0.00  0.00    +0.250 C 
ATOM     37  O   LIG    1        1.148  -8.232  13.405  0.00  0.00    -0.320 OA
ENDBRANCH  30  37
ENDBRANCH  25  33
ENDBRANCH  21  28
ENDBRANCH  20  23
ENDBRANCH   1  20
TORSDOF 9
