REMARK  Name = ZINCvU00000008mH.0
REMARK                            x       y       z     vdW  Elec       q    Type
REMARK                         _______ _______ _______ _____ _____    ______ ____
ROOT
ATOM      1  N   LIG    1        4.809   0.116  -0.045  0.00  0.00    -0.530 N 
ATOM      2  C   LIG    1        3.699  -0.658  -0.038  0.00  0.00    +0.560 A 
ATOM      3  C   LIG    1        2.396   0.021  -0.021  0.00  0.00    -0.200 A 
ATOM      4  C   LIG    1        1.197  -0.689  -0.013  0.00  0.00    +0.100 A 
ATOM      5  C   LIG    1        0.002  -0.004   0.002  0.00  0.00    -0.010 A 
ATOM      6  C   LIG    1       -0.017   1.385   0.010  0.00  0.00    +0.070 A 
ATOM      7  C   LIG    1        1.155   2.106   0.002  0.00  0.00    +0.030 A 
ATOM      8  C   LIG    1        2.381   1.435  -0.013  0.00  0.00    +0.170 A 
ATOM      9  N   LIG    1        3.556   2.107  -0.021  0.00  0.00    -0.530 NA
ATOM     10  O   LIG    1        3.777  -1.873  -0.046  0.00  0.00    -0.500 OA
ATOM     11  C   LIG    1        4.705   1.477  -0.036  0.00  0.00    +0.370 A 
ENDROOT
BRANCH   1  12
ATOM     12  C   LIG    1        6.133  -0.512  -0.062  0.00  0.00    +0.300 C 
BRANCH  12  13
ATOM     13  C   LIG    1        6.607  -0.740   1.374  0.00  0.00    +0.020 C 
BRANCH  13  14
ATOM     14  C   LIG    1        7.990  -1.396   1.357  0.00  0.00    +0.170 C 
BRANCH  14  15
ATOM     15  O   LIG    1        8.433  -1.608   2.698  0.00  0.00    -0.380 OA
BRANCH  15  17
ATOM     16  C   LIG    1       10.800  -1.134   2.831  0.00  0.00    +0.010 C 
ATOM     17  C   LIG    1        9.721  -2.219   2.795  0.00  0.00    +0.140 C 
ATOM     18  C   LIG    1        9.795  -3.054   4.074  0.00  0.00    +0.040 C 
ENDBRANCH  15  17
ENDBRANCH  14  15
ENDBRANCH  13  14
ENDBRANCH  12  13
ENDBRANCH   1  12
BRANCH  11  19
ATOM     19  S   LIG    1        6.186   2.432  -0.046  0.00  0.00    +0.010 S 
BRANCH  19  20
ATOM     20  C   LIG    1        5.484   4.101  -0.029  0.00  0.00    +0.180 C 
BRANCH  20  21
ATOM     21  C   LIG    1        6.599   5.114  -0.035  0.00  0.00    -0.030 A 
ATOM     22  C   LIG    1        7.092   5.580  -1.214  0.00  0.00    +0.040 A 
ATOM     23  C   LIG    1        8.124   6.520  -1.242  0.00  0.00    +0.110 A 
ATOM     24  C   LIG    1        8.667   6.995  -0.085  0.00  0.00    +0.030 A 
ATOM     25  C   LIG    1        8.182   6.535   1.149  0.00  0.00    -0.080 A 
ATOM     26  C   LIG    1        8.714   7.002   2.366  0.00  0.00    +0.080 A 
ATOM     27  C   LIG    1        8.192   6.511   3.529  0.00  0.00    -0.020 A 
ATOM     28  C   LIG    1        7.162   5.574   3.487  0.00  0.00    +0.300 A 
ATOM     29  N   LIG    1        6.668   5.142   2.352  0.00  0.00    -0.460 NA
ATOM     30  F   LIG    1        8.591   6.962  -2.430  0.00  0.00    -0.130 F 
ATOM     31  C   LIG    1        7.129   5.587   1.179  0.00  0.00    +0.130 A 
ENDBRANCH  20  21
ENDBRANCH  19  20
ENDBRANCH  11  19
TORSDOF 8
