REMARK  Name = ZINCnE000001IVOS.0
REMARK                            x       y       z     vdW  Elec       q    Type
REMARK                         _______ _______ _______ _____ _____    ______ ____
ROOT
ATOM      1  C   LIG    1        4.388  -0.834   1.218  0.00  0.00    +0.310 C 
ATOM      2  N   LIG    1        3.675  -0.585  -0.037  0.00  0.00    -0.950 N 
ENDROOT
BRANCH   2   3
ATOM      3  C   LIG    1        2.442   0.063  -0.021  0.00  0.00    +0.150 A 
ATOM      4  C   LIG    1        2.380   1.440  -0.014  0.00  0.00    +0.030 A 
ATOM      5  C   LIG    1        1.153   2.097   0.002  0.00  0.00    +0.020 A 
ATOM      6  C   LIG    1       -0.017   1.401   0.010  0.00  0.00    +0.030 A 
ATOM      7  C   LIG    1        0.002  -0.004   0.002  0.00  0.00    -0.050 A 
ATOM      8  C   LIG    1       -1.190  -0.749   0.010  0.00  0.00    +0.020 A 
ATOM      9  C   LIG    1       -1.135  -2.109   0.003  0.00  0.00    +0.000 A 
ATOM     10  C   LIG    1        0.088  -2.777  -0.012  0.00  0.00    +0.010 A 
ATOM     11  C   LIG    1        1.262  -2.087  -0.020  0.00  0.00    +0.020 A 
ATOM     12  C   LIG    1        1.245  -0.684  -0.013  0.00  0.00    -0.030 A 
ENDBRANCH   2   3
BRANCH   2  13
ATOM     13  S   LIG    1        4.336  -1.073  -1.475  0.00  0.00    +2.710 S 
ATOM     14  O   LIG    1        3.255  -1.213  -2.386  0.00  0.00    -0.940 OA
ATOM     15  O   LIG    1        5.234  -2.130  -1.166  0.00  0.00    -0.950 OA
BRANCH  13  16
ATOM     16  C   LIG    1        5.322   0.259  -2.075  0.00  0.00    -0.830 A 
ATOM     17  C   LIG    1        6.609   0.429  -1.798  0.00  0.00    +0.220 A 
ATOM     18  C   LIG    1        7.172   1.605  -2.422  0.00  0.00    -0.180 A 
ATOM     19  C   LIG    1        6.265   2.299  -3.166  0.00  0.00    +0.000 A 
ATOM     20  S   LIG    1        4.740   1.538  -3.125  0.00  0.00    +0.210 S 
BRANCH  18  21
ATOM     21  C   LIG    1        8.574   2.010  -2.270  0.00  0.00    +0.540 C 
ATOM     22  O   LIG    1        8.984   3.019  -2.827  0.00  0.00    -0.680 OA
ATOM     23  O   LIG    1        9.335   1.337  -1.585  0.00  0.00    -0.680 OA
ENDBRANCH  18  21
ENDBRANCH  13  16
ENDBRANCH   2  13
TORSDOF 4
