REMARK  Name = ZINCrD000000fZCf.0
REMARK                            x       y       z     vdW  Elec       q    Type
REMARK                         _______ _______ _______ _____ _____    ______ ____
ROOT
ATOM      1  C   LIG    1       -6.255  -0.838  -4.138  0.00  0.00    +0.190 A 
ATOM      2  N   LIG    1       -6.284  -1.345  -2.941  0.00  0.00    -0.370 NA
ATOM      3  O   LIG    1       -5.435  -0.834  -2.242  0.00  0.00    +0.090 OA
ATOM      4  C   LIG    1       -4.763   0.089  -2.947  0.00  0.00    +0.260 A 
ATOM      5  N   LIG    1       -5.283   0.087  -4.164  0.00  0.00    -0.460 NA
ENDROOT
BRANCH   4   6
ATOM      6  C   LIG    1       -3.657   0.937  -2.462  0.00  0.00    -0.150 A 
ATOM      7  C   LIG    1       -2.964   1.872  -3.171  0.00  0.00    +0.300 A 
ATOM      8  O   LIG    1       -2.044   2.416  -2.367  0.00  0.00    -0.160 OA
ATOM      9  C   LIG    1       -2.100   1.873  -1.141  0.00  0.00    -0.030 A 
ATOM     10  C   LIG    1       -3.068   0.944  -1.116  0.00  0.00    +0.040 A 
BRANCH   9  11
ATOM     11  C   LIG    1       -1.213   2.242   0.020  0.00  0.00    +0.460 C 
BRANCH  11  12
ATOM     12  N   LIG    1       -0.017   1.397   0.010  0.00  0.00    -0.380 N 
ATOM     13  C   LIG    1        1.261   1.829  -0.000  0.00  0.00    +0.240 A 
ATOM     14  C   LIG    1        2.065   0.741  -0.014  0.00  0.00    -0.120 A 
ATOM     15  C   LIG    1        1.250  -0.396  -0.012  0.00  0.00    +0.230 A 
ATOM     16  N   LIG    1        0.002  -0.004   0.002  0.00  0.00    -0.290 NA
ENDBRANCH  11  12
ENDBRANCH   9  11
ENDBRANCH   4   6
BRANCH   1  17
ATOM     17  C   LIG    1       -7.149  -1.220  -5.289  0.00  0.00    +0.000 C 
ATOM     18  C   LIG    1       -8.350  -0.277  -5.476  0.00  0.00    +0.080 C 
ATOM     19  C   LIG    1       -9.188  -1.530  -5.778  0.00  0.00    +0.040 C 
ATOM     20  C   LIG    1       -8.168  -2.318  -4.939  0.00  0.00    +0.080 C 
BRANCH  17  21
ATOM     21  C   LIG    1       -6.386  -1.488  -6.560  0.00  0.00    +0.500 C 
ATOM     22  O   LIG    1       -6.584  -2.505  -7.181  0.00  0.00    -0.490 OA
BRANCH  21  23
ATOM     23  O   LIG    1       -5.486  -0.596  -7.003  0.00  0.00    -0.330 OA
BRANCH  23  25
ATOM     24  C   LIG    1       -5.802  -1.077  -9.369  0.00  0.00    +0.030 C 
ATOM     25  C   LIG    1       -4.787  -0.919  -8.234  0.00  0.00    +0.120 C 
ATOM     26  C   LIG    1       -4.016  -2.228  -8.054  0.00  0.00    +0.030 C 
ATOM     27  C   LIG    1       -3.810   0.206  -8.577  0.00  0.00    +0.080 C 
ENDBRANCH  23  25
ENDBRANCH  21  23
ENDBRANCH  17  21
ENDBRANCH   1  17
TORSDOF 7
