REMARK  Name = ZINCrg00000BydZu.1
REMARK                            x       y       z     vdW  Elec       q    Type
REMARK                         _______ _______ _______ _____ _____    ______ ____
ROOT
ATOM      1  C   LIG    1        0.009   0.010  -0.045  0.00  0.00    +0.280 C 
ATOM      2  C   LIG    1       -1.198  -0.713   0.555  0.00  0.00    -0.050 C 
ATOM      3  C   LIG    1       -1.026  -2.188   0.980  0.00  0.00    +0.320 C 
ATOM      4  N   LIG    1       -1.315  -2.966  -0.247  0.00  0.00    -0.610 N 
ATOM      5  C   LIG    1       -0.686  -2.182  -1.335  0.00  0.00    +0.310 C 
ATOM      6  C   LIG    1       -1.996  -4.125  -0.350  0.00  0.00    +0.580 C 
ATOM      7  O   LIG    1       -2.379  -4.694   0.650  0.00  0.00    -0.510 OA
ATOM      8  C   LIG    1       -0.975  -0.710  -0.970  0.00  0.00    -0.050 C 
ENDROOT
BRANCH   1  11
ATOM      9  O   LIG    1        2.205   1.574  -0.087  0.00  0.00    -0.500 OA
ATOM     10  C   LIG    1        1.144   2.166  -0.067  0.00  0.00    +0.570 C 
ATOM     11  N   LIG    1       -0.013   1.475  -0.045  0.00  0.00    -0.700 N 
ATOM     12  H   LIG    1       -0.860   1.947  -0.033  0.00  0.00    +0.400 HD
BRANCH  10  13
ATOM     13  C   LIG    1        1.122   3.644  -0.067  0.00  0.00    -0.110 A 
ATOM     14  C   LIG    1       -0.087   4.346  -0.050  0.00  0.00    +0.040 A 
ATOM     15  C   LIG    1       -0.062   5.727  -0.045  0.00  0.00    +0.160 A 
ATOM     16  N   LIG    1        1.081   6.386  -0.067  0.00  0.00    -0.440 NA
ATOM     17  C   LIG    1        2.244   5.771  -0.089  0.00  0.00    +0.280 A 
ATOM     18 CL   LIG    1       -1.557   6.609  -0.018  0.00  0.00    -0.010 Cl
ATOM     19  C   LIG    1        2.315   4.384  -0.089  0.00  0.00    +0.130 A 
BRANCH  19  20
ATOM     20  O   LIG    1        3.517   3.755  -0.111  0.00  0.00    -0.470 OA
ATOM     21  H   LIG    1        3.849   3.571  -1.001  0.00  0.00    +0.400 HD
ENDBRANCH  19  20
ENDBRANCH  10  13
ENDBRANCH   1  11
BRANCH   6  22
ATOM     22  C   LIG    1       -2.280  -4.714  -1.708  0.00  0.00    +0.080 C 
ATOM     23  C   LIG    1       -2.022  -6.210  -1.897  0.00  0.00    +0.090 C 
ATOM     24  C   LIG    1       -1.085  -5.184  -2.539  0.00  0.00    +0.090 C 
BRANCH  22  25
ATOM     25  N   LIG    1       -3.414  -4.126  -2.425  0.00  0.00    -0.340 N 
ATOM     26  C   LIG    1       -4.627  -3.849  -1.903  0.00  0.00    +0.230 A 
ATOM     27  C   LIG    1       -5.388  -3.315  -2.886  0.00  0.00    -0.120 A 
ATOM     28  C   LIG    1       -4.616  -3.273  -4.053  0.00  0.00    +0.240 A 
ATOM     29  N   LIG    1       -3.433  -3.759  -3.777  0.00  0.00    -0.290 NA
ENDBRANCH  22  25
ENDBRANCH   6  22
TORSDOF 5
