REMARK  Name = ZINCrH000004mReC.0
REMARK                            x       y       z     vdW  Elec       q    Type
REMARK                         _______ _______ _______ _____ _____    ______ ____
ROOT
ATOM      1  C   LIG    1       -1.205  -2.274   0.581  0.00  0.00    -0.080 A 
ATOM      2  C   LIG    1        0.031  -2.911   0.460  0.00  0.00    +0.030 A 
ATOM      3  C   LIG    1        0.096  -4.289   0.462  0.00  0.00    +0.130 A 
ATOM      4  C   LIG    1       -1.061  -5.040   0.574  0.00  0.00    -0.650 A 
ATOM      5  C   LIG    1       -2.290  -4.414   0.689  0.00  0.00    +0.130 A 
ATOM      6  C   LIG    1       -2.369  -3.037   0.693  0.00  0.00    +0.070 A 
ENDROOT
BRANCH   1   9
ATOM      7  N   LIG    1       -0.156  -0.064   0.477  0.00  0.00    -0.660 N 
ATOM      8  H   LIG    1        0.695  -0.502   0.321  0.00  0.00    +0.410 HD
ATOM      9  C   LIG    1       -1.282  -0.798   0.585  0.00  0.00    +0.550 C 
ATOM     10  O   LIG    1       -2.360  -0.246   0.685  0.00  0.00    -0.510 OA
BRANCH   7  14
ATOM     11  C   LIG    1       -0.334   4.088   0.811  0.00  0.00    +0.120 A 
ATOM     12  C   LIG    1       -1.201   3.295   1.549  0.00  0.00    +0.010 A 
ATOM     13  C   LIG    1       -1.143   1.920   1.439  0.00  0.00    +0.060 A 
ATOM     14  C   LIG    1       -0.216   1.330   0.589  0.00  0.00    +0.100 A 
ATOM     15  C   LIG    1        0.655   2.124  -0.145  0.00  0.00    +0.030 A 
ATOM     16  C   LIG    1        0.592   3.500  -0.038  0.00  0.00    -0.060 A 
BRANCH  11  18
ATOM     17  C   LIG    1        0.531   6.196   0.133  0.00  0.00    +0.250 C 
ATOM     18  O   LIG    1       -0.392   5.442   0.921  0.00  0.00    -0.320 OA
ENDBRANCH  11  18
ENDBRANCH   7  14
ENDBRANCH   1   9
BRANCH   4  19
ATOM     19  S   LIG    1       -0.969  -6.799   0.569  0.00  0.00    +2.690 S 
ATOM     20  O   LIG    1       -2.187  -7.266   1.133  0.00  0.00    -0.950 OA
ATOM     21  O   LIG    1        0.308  -7.136   1.091  0.00  0.00    -0.940 OA
BRANCH  19  22
ATOM     22  N   LIG    1       -0.970  -7.286  -1.014  0.00  0.00    -1.060 N 
ATOM     23  H   LIG    1       -1.714  -7.803  -1.362  0.00  0.00    +0.430 HD
BRANCH  22  24
ATOM     24  C   LIG    1        0.099  -6.951  -1.848  0.00  0.00    +0.120 A 
ATOM     25  C   LIG    1       -0.052  -5.961  -2.811  0.00  0.00    +0.020 A 
ATOM     26  C   LIG    1        1.009  -5.630  -3.631  0.00  0.00    +0.020 A 
ATOM     27  C   LIG    1        2.217  -6.290  -3.501  0.00  0.00    +0.020 A 
ATOM     28  C   LIG    1        2.369  -7.279  -2.547  0.00  0.00    +0.020 A 
ATOM     29  C   LIG    1        1.314  -7.612  -1.721  0.00  0.00    +0.040 A 
ENDBRANCH  22  24
ENDBRANCH  19  22
ENDBRANCH   4  19
TORSDOF 6
