REMARK  Name = ZINCqH0000005iYN.0
REMARK                            x       y       z     vdW  Elec       q    Type
REMARK                         _______ _______ _______ _____ _____    ______ ____
ROOT
ATOM      1  C   LIG    1        3.823   6.343  -0.001  0.00  0.00    +0.290 C 
ATOM      2  N   LIG    1        4.997   5.467  -0.016  0.00  0.00    -0.610 N 
ATOM      3  C   LIG    1        4.838   4.129  -0.021  0.00  0.00    +0.520 C 
ATOM      4  O   LIG    1        5.810   3.403  -0.034  0.00  0.00    -0.510 OA
ENDROOT
BRANCH   3   5
ATOM      5  C   LIG    1        3.454   3.534  -0.012  0.00  0.00    +0.230 C 
BRANCH   5   6
ATOM      6  O   LIG    1        3.548   2.108  -0.020  0.00  0.00    -0.280 OA
BRANCH   6   7
ATOM      7  C   LIG    1        2.380   1.412  -0.013  0.00  0.00    +0.090 A 
ATOM      8  C   LIG    1        1.170   2.087   0.002  0.00  0.00    -0.050 A 
ATOM      9  C   LIG    1       -0.017   1.378   0.010  0.00  0.00    +0.040 A 
ATOM     10  C   LIG    1        0.002  -0.004   0.002  0.00  0.00    +0.010 A 
ATOM     11  C   LIG    1        1.208  -0.682  -0.013  0.00  0.00    +0.020 A 
ATOM     12  C   LIG    1        2.397   0.023  -0.020  0.00  0.00    +0.070 A 
ATOM     13  F   LIG    1        3.575  -0.639  -0.035  0.00  0.00    -0.130 F 
ENDBRANCH   6   7
ENDBRANCH   5   6
ENDBRANCH   3   5
BRANCH   2  14
ATOM     14  C   LIG    1        6.343   6.045  -0.025  0.00  0.00    +0.380 C 
BRANCH  14  15
ATOM     15  C   LIG    1        6.792   6.251  -1.449  0.00  0.00    -0.240 A 
ATOM     16  C   LIG    1        6.597   7.365  -2.192  0.00  0.00    +0.250 A 
ATOM     17  N   LIG    1        7.148   7.150  -3.408  0.00  0.00    -0.320 N 
ATOM     18  N   LIG    1        7.698   5.861  -3.410  0.00  0.00    -0.290 NA
ATOM     19  C   LIG    1        7.489   5.326  -2.234  0.00  0.00    +0.280 A 
BRANCH  17  20
ATOM     20  C   LIG    1        7.164   8.055  -4.478  0.00  0.00    +0.180 A 
ATOM     21  C   LIG    1        7.768   7.703  -5.678  0.00  0.00    +0.030 A 
ATOM     22  C   LIG    1        7.783   8.597  -6.731  0.00  0.00    +0.060 A 
ATOM     23  C   LIG    1        7.198   9.841  -6.592  0.00  0.00    +0.020 A 
ATOM     24  C   LIG    1        6.595  10.196  -5.397  0.00  0.00    -0.010 A 
ATOM     25 CL   LIG    1        5.860  11.759  -5.227  0.00  0.00    -0.050 Cl
ATOM     26  C   LIG    1        6.572   9.303  -4.342  0.00  0.00    +0.000 A 
ENDBRANCH  17  20
ENDBRANCH  14  15
ENDBRANCH   2  14
TORSDOF 6
