REMARK  Name = ZINCpe000000WQKA.0
REMARK                            x       y       z     vdW  Elec       q    Type
REMARK                         _______ _______ _______ _____ _____    ______ ____
ROOT
ATOM      1  C   LIG    1        0.998   6.063  -2.132  0.00  0.00    +0.190 C 
ATOM      2  C   LIG    1        0.171   5.764  -3.387  0.00  0.00    +0.250 C 
ATOM      3  O   LIG    1       -0.902   6.711  -3.461  0.00  0.00    -0.360 OA
ATOM      4  C   LIG    1       -1.878   6.529  -2.433  0.00  0.00    +0.290 C 
ATOM      5  C   LIG    1       -1.198   6.429  -1.096  0.00  0.00    +0.490 C 
ATOM      6  O   LIG    1       -1.862   6.565  -0.090  0.00  0.00    -0.520 OA
ATOM      7  N   LIG    1        0.114   6.194  -0.976  0.00  0.00    -0.580 N 
ENDROOT
BRANCH   1  10
ATOM      8  N   LIG    1        3.199   4.977  -2.444  0.00  0.00    -0.720 N 
ATOM      9  H   LIG    1        3.459   5.734  -2.991  0.00  0.00    +0.400 HD
ATOM     10  C   LIG    1        1.968   4.934  -1.895  0.00  0.00    +0.510 C 
ATOM     11  O   LIG    1        1.642   3.988  -1.211  0.00  0.00    -0.510 OA
BRANCH   8  13
ATOM     12  C   LIG    1        3.887   2.766  -3.231  0.00  0.00    +0.040 C 
ATOM     13  C   LIG    1        4.142   3.880  -2.213  0.00  0.00    +0.230 C 
BRANCH  13  14
ATOM     14  C   LIG    1        5.573   4.397  -2.371  0.00  0.00    +0.310 C 
BRANCH  14  15
ATOM     15  N   LIG    1        5.856   5.378  -1.321  0.00  0.00    -0.460 N 
ATOM     16  C   LIG    1        6.377   5.116  -0.083  0.00  0.00    +0.120 A 
ATOM     17  C   LIG    1        6.473   6.297   0.558  0.00  0.00    +0.150 A 
ATOM     18  N   LIG    1        6.024   7.254  -0.267  0.00  0.00    -0.490 NA
ATOM     19  C   LIG    1        5.658   6.712  -1.396  0.00  0.00    +0.380 A 
ENDBRANCH  14  15
ENDBRANCH  13  14
ENDBRANCH   8  13
ENDBRANCH   1  10
BRANCH   7  20
ATOM     20  C   LIG    1        0.688   6.069   0.366  0.00  0.00    +0.330 C 
BRANCH  20  21
ATOM     21  C   LIG    1        1.063   7.435   0.881  0.00  0.00    -0.110 A 
ATOM     22  C   LIG    1        0.187   8.133   1.691  0.00  0.00    +0.040 A 
ATOM     23  C   LIG    1        0.531   9.385   2.164  0.00  0.00    +0.000 A 
ATOM     24  C   LIG    1        1.752   9.940   1.827  0.00  0.00    +0.000 A 
ATOM     25  C   LIG    1        2.626   9.244   1.012  0.00  0.00    +0.000 A 
ATOM     26  C   LIG    1        2.283   7.990   0.543  0.00  0.00    +0.010 A 
ENDBRANCH  20  21
ENDBRANCH   7  20
TORSDOF 6
