REMARK  Name = ZINCrD000000Aj4s.0
REMARK                            x       y       z     vdW  Elec       q    Type
REMARK                         _______ _______ _______ _____ _____    ______ ____
ROOT
ATOM      1  O   LIG    1        1.239   8.126  -0.677  0.00  0.00    -0.530 OA
ATOM      2  C   LIG    1        1.086   7.355  -1.601  0.00  0.00    +0.520 C 
ATOM      3  N   LIG    1        0.847   6.051  -1.358  0.00  0.00    -0.730 N 
ATOM      4  H   LIG    1        0.725   5.435  -2.097  0.00  0.00    +0.400 HD
ENDROOT
BRANCH   3   5
ATOM      5  C   LIG    1        0.771   5.565   0.022  0.00  0.00    +0.330 C 
BRANCH   5   6
ATOM      6  C   LIG    1        0.496   4.083   0.018  0.00  0.00    -0.100 A 
ATOM      7  C   LIG    1       -0.808   3.624   0.028  0.00  0.00    +0.050 A 
ATOM      8  C   LIG    1       -1.065   2.265   0.019  0.00  0.00    +0.040 A 
ATOM      9  C   LIG    1       -0.016   1.361   0.009  0.00  0.00    +0.040 A 
ATOM     10  O   LIG    1        0.002  -0.004   0.002  0.00  0.00    -0.310 OA
ATOM     11  C   LIG    1        1.336  -0.373   0.399  0.00  0.00    +0.430 C 
ATOM     12  O   LIG    1        2.139   0.749  -0.014  0.00  0.00    -0.310 OA
ATOM     13  C   LIG    1        1.297   1.824  -0.001  0.00  0.00    +0.030 A 
ATOM     14  C   LIG    1        1.548   3.186   0.004  0.00  0.00    +0.060 A 
ENDBRANCH   5   6
ENDBRANCH   3   5
BRANCH   2  15
ATOM     15  C   LIG    1        1.164   7.855  -3.020  0.00  0.00    +0.070 C 
BRANCH  15  16
ATOM     16  C   LIG    1        1.444   9.360  -3.016  0.00  0.00    +0.220 C 
BRANCH  16  17
ATOM     17  C   LIG    1        1.522   9.860  -4.435  0.00  0.00    +0.190 A 
ATOM     18  N   LIG    1        0.526  10.310  -5.157  0.00  0.00    -0.470 NA
ATOM     19  C   LIG    1        1.065  10.642  -6.352  0.00  0.00    +0.210 A 
ATOM     20  N   LIG    1        2.344  10.377  -6.286  0.00  0.00    -0.370 NA
ATOM     21  O   LIG    1        2.621   9.932  -5.192  0.00  0.00    +0.090 OA
BRANCH  19  22
ATOM     22  C   LIG    1        0.341  11.204  -7.520  0.00  0.00    -0.020 A 
ATOM     23  C   LIG    1       -1.032  11.431  -7.447  0.00  0.00    +0.090 A 
ATOM     24  C   LIG    1       -1.700  11.958  -8.534  0.00  0.00    +0.030 A 
ATOM     25  C   LIG    1       -1.010  12.250  -9.698  0.00  0.00    -0.020 A 
ATOM     26  C   LIG    1        0.353  12.021  -9.777  0.00  0.00    +0.030 A 
ATOM     27 CL   LIG    1       -1.857  12.907 -11.064  0.00  0.00    -0.060 Cl
ATOM     28  C   LIG    1        1.031  11.499  -8.694  0.00  0.00    +0.070 A 
ENDBRANCH  19  22
ENDBRANCH  16  17
ENDBRANCH  15  16
ENDBRANCH   2  15
TORSDOF 6
