REMARK  Name = ZINCbu0000000GLd.0
REMARK                            x       y       z     vdW  Elec       q    Type
REMARK                         _______ _______ _______ _____ _____    ______ ____
ROOT
ATOM      1  C   LIG    1       -0.013   1.086   0.008  0.00  0.00    +0.220 C 
ENDROOT
BRANCH   1   2
ATOM      2  C   LIG    1       -0.718   1.572   1.248  0.00  0.00    -0.150 A 
ATOM      3  C   LIG    1       -0.511   2.861   1.700  0.00  0.00    +0.020 A 
ATOM      4  C   LIG    1       -1.161   3.309   2.835  0.00  0.00    +0.060 A 
ATOM      5  C   LIG    1       -2.011   2.465   3.523  0.00  0.00    +0.090 A 
ATOM      6  C   LIG    1       -2.215   1.172   3.074  0.00  0.00    -0.080 A 
ATOM      7 BR   LIG    1       -3.378   0.016   4.015  0.00  0.00    -0.010 Br
ATOM      8  C   LIG    1       -1.568   0.726   1.936  0.00  0.00    +0.090 A 
ENDBRANCH   1   2
BRANCH   1   9
ATOM      9  N   LIG    1        1.365   1.594  -0.002  0.00  0.00    -0.640 N 
ATOM     10  H   LIG    1        1.838   1.269  -0.833  0.00  0.00    +0.440 HD
ATOM     11  H   LIG    1        1.853   1.260   0.815  0.00  0.00    +0.440 HD
ATOM     12  H   LIG    1        1.352   2.603   0.003  0.00  0.00    +0.430 HD
ENDBRANCH   1   9
BRANCH   1  13
ATOM     13  C   LIG    1       -0.753   1.593  -1.232  0.00  0.00    +0.280 C 
ATOM     14  F   LIG    1       -0.098   1.141  -2.382  0.00  0.00    -0.200 F 
ENDBRANCH   1  13
TORSDOF 3
