REMARK  Name = ZINCrD00000l5nSv.0
REMARK                            x       y       z     vdW  Elec       q    Type
REMARK                         _______ _______ _______ _____ _____    ______ ____
ROOT
ATOM      1  C   LIG    1       -2.972  -1.160  -0.130  0.00  0.00    +0.570 A 
ATOM      2  N   LIG    1       -3.769  -2.155   0.193  0.00  0.00    -0.550 NA
ATOM      3  C   LIG    1       -4.867  -1.687   0.811  0.00  0.00    +0.570 A 
ATOM      4  N   LIG    1       -5.931  -2.302   1.310  0.00  0.00    -0.530 NA
ATOM      5  C   LIG    1       -6.909  -1.624   1.900  0.00  0.00    +0.260 A 
ATOM      6  C   LIG    1       -6.845  -0.263   1.998  0.00  0.00    -0.160 A 
ATOM      7  C   LIG    1       -5.725   0.404   1.470  0.00  0.00    +0.540 A 
ATOM      8  O   LIG    1       -5.634   1.619   1.539  0.00  0.00    -0.530 OA
ATOM      9  N   LIG    1       -4.755  -0.325   0.886  0.00  0.00    -0.360 N 
ATOM     10  N   LIG    1       -3.539   0.013   0.277  0.00  0.00    -0.370 N 
ENDROOT
BRANCH   5  11
ATOM     11  C   LIG    1       -8.099  -2.360   2.459  0.00  0.00    +0.000 C 
ATOM     12  C   LIG    1       -8.026  -3.887   2.508  0.00  0.00    +0.060 C 
ATOM     13  C   LIG    1       -8.933  -3.196   1.487  0.00  0.00    +0.050 C 
ENDBRANCH   5  11
BRANCH   1  15
ATOM     14  C   LIG    1       -1.359  -2.622  -1.109  0.00  0.00    +0.320 C 
ATOM     15  O   LIG    1       -1.787  -1.280  -0.760  0.00  0.00    -0.280 OA
ENDBRANCH   1  15
BRANCH  10  16
ATOM     16  C   LIG    1       -2.984   1.358   0.113  0.00  0.00    +0.410 C 
BRANCH  16  17
ATOM     17  C   LIG    1       -2.416   1.830   1.427  0.00  0.00    -0.130 A 
ATOM     18  C   LIG    1       -2.938   2.952   2.043  0.00  0.00    -0.030 A 
ATOM     19  C   LIG    1       -2.421   3.382   3.250  0.00  0.00    -0.090 A 
ATOM     20  C   LIG    1       -1.377   2.692   3.840  0.00  0.00    -0.060 A 
ATOM     21  C   LIG    1       -0.851   1.574   3.221  0.00  0.00    -0.100 A 
ATOM     22  C   LIG    1        0.287   0.823   3.863  0.00  0.00    +0.090 C 
ATOM     23  C   LIG    1       -0.813   3.161   5.156  0.00  0.00    +0.090 C 
ATOM     24  C   LIG    1       -2.994   4.601   3.925  0.00  0.00    +0.090 C 
ATOM     25  C   LIG    1       -4.076   3.703   1.400  0.00  0.00    +0.100 C 
ATOM     26  C   LIG    1       -1.369   1.144   2.013  0.00  0.00    -0.060 A 
ATOM     27  C   LIG    1       -0.795  -0.075   1.339  0.00  0.00    +0.090 C 
ENDBRANCH  16  17
ENDBRANCH  10  16
TORSDOF 4
