REMARK  Name = ZINCqH0000003Psv.0
REMARK                            x       y       z     vdW  Elec       q    Type
REMARK                         _______ _______ _______ _____ _____    ______ ____
ROOT
ATOM      1  N   LIG    1       -0.561   1.284   3.711  0.00  0.00    -0.720 N 
ATOM      2  H   LIG    1       -1.318   1.883   3.806  0.00  0.00    +0.400 HD
ATOM      3  C   LIG    1       -0.088   0.986   2.485  0.00  0.00    +0.520 C 
ATOM      4  O   LIG    1        0.858   0.236   2.365  0.00  0.00    -0.520 OA
ENDROOT
BRANCH   1   5
ATOM      5  C   LIG    1        0.068   0.703   4.900  0.00  0.00    +0.290 C 
ATOM      6  C   LIG    1        1.265   1.561   5.313  0.00  0.00    +0.040 C 
BRANCH   5  11
ATOM      7  C   LIG    1       -1.901  -0.477   7.901  0.00  0.00    +0.140 A 
ATOM      8  C   LIG    1       -2.771   0.586   8.094  0.00  0.00    -0.080 A 
ATOM      9  C   LIG    1       -2.719   1.681   7.253  0.00  0.00    +0.060 A 
ATOM     10  C   LIG    1       -1.801   1.718   6.221  0.00  0.00    -0.030 A 
ATOM     11  C   LIG    1       -0.932   0.660   6.027  0.00  0.00    -0.050 A 
ATOM     12  C   LIG    1       -0.984  -0.440   6.861  0.00  0.00    -0.010 A 
BRANCH   7  13
ATOM     13  O   LIG    1       -1.951  -1.555   8.727  0.00  0.00    -0.310 OA
BRANCH  13  15
ATOM     14  C   LIG    1       -2.829  -2.816  10.592  0.00  0.00    +0.070 C 
ATOM     15  C   LIG    1       -2.924  -1.527   9.773  0.00  0.00    +0.170 C 
ENDBRANCH  13  15
ENDBRANCH   7  13
ENDBRANCH   5  11
ENDBRANCH   1   5
BRANCH   3  16
ATOM     16  C   LIG    1       -0.736   1.583   1.262  0.00  0.00    +0.080 C 
BRANCH  16  17
ATOM     17  C   LIG    1       -0.013   1.086   0.008  0.00  0.00    +0.080 C 
ATOM     18  S   LIG    1        1.691   1.719  -0.005  0.00  0.00    -0.040 S 
ATOM     19  C   LIG    1        1.443   3.412  -0.442  0.00  0.00    -0.150 A 
ATOM     20  C   LIG    1        2.319   4.381   0.018  0.00  0.00    +0.080 A 
ATOM     21  C   LIG    1        2.127   5.706  -0.331  0.00  0.00    +0.000 A 
ATOM     22  C   LIG    1        1.061   6.058  -1.137  0.00  0.00    +0.050 A 
ATOM     23  C   LIG    1        0.183   5.096  -1.596  0.00  0.00    -0.010 A 
ATOM     24  C   LIG    1        0.362   3.760  -1.250  0.00  0.00    +0.160 A 
ATOM     25  N   LIG    1       -0.550   2.814  -1.708  0.00  0.00    -0.650 N 
ATOM     26  H   LIG    1       -1.114   3.073  -2.454  0.00  0.00    +0.410 HD
ATOM     27  C   LIG    1       -0.723   1.589  -1.222  0.00  0.00    +0.530 C 
ATOM     28  O   LIG    1       -1.487   0.841  -1.795  0.00  0.00    -0.510 OA
ENDBRANCH  16  17
ENDBRANCH   3  16
TORSDOF 6
