REMARK  Name = ZINCqH0000007vwA.0
REMARK                            x       y       z     vdW  Elec       q    Type
REMARK                         _______ _______ _______ _____ _____    ______ ____
ROOT
ATOM      1  C   LIG    1       -2.476  -0.888   0.017  0.00  0.00    +0.610 C 
ATOM      2  N   LIG    1       -3.286  -1.965   0.023  0.00  0.00    -0.660 N 
ATOM      3  H   LIG    1       -2.909  -2.856  -0.056  0.00  0.00    +0.420 HD
ATOM      4  O   LIG    1       -2.953   0.231   0.033  0.00  0.00    -0.500 OA
ENDROOT
BRANCH   1  12
ATOM      5  C   LIG    1        1.177   2.082  -0.023  0.00  0.00    +0.110 A 
ATOM      6  C   LIG    1        2.388   1.395  -0.047  0.00  0.00    -0.020 A 
ATOM      7  C   LIG    1        2.418   0.029  -0.057  0.00  0.00    +0.060 A 
ATOM      8  C   LIG    1        1.229  -0.693  -0.042  0.00  0.00    +0.030 A 
ATOM      9  N   LIG    1        0.913  -2.028  -0.046  0.00  0.00    -0.400 N 
ATOM     10  H   LIG    1        1.566  -2.745  -0.062  0.00  0.00    +0.450 HD
ATOM     11  N   LIG    1       -0.358  -2.205  -0.027  0.00  0.00    -0.190 NA
ATOM     12  C   LIG    1       -1.014  -1.065  -0.008  0.00  0.00    -0.010 A 
ATOM     13  C   LIG    1        0.001  -0.003  -0.018  0.00  0.00    -0.070 A 
ATOM     14  C   LIG    1       -0.018   1.388  -0.008  0.00  0.00    +0.060 A 
BRANCH   5  16
ATOM     15  C   LIG    1        2.440   4.097  -0.031  0.00  0.00    +0.250 C 
ATOM     16  O   LIG    1        1.170   3.442  -0.014  0.00  0.00    -0.310 OA
ENDBRANCH   5  16
ENDBRANCH   1  12
BRANCH   2  17
ATOM     17  C   LIG    1       -4.669  -1.800   0.143  0.00  0.00    +0.140 A 
ATOM     18  C   LIG    1       -5.289  -0.704  -0.435  0.00  0.00    +0.090 A 
ATOM     19  C   LIG    1       -6.669  -0.543  -0.312  0.00  0.00    -0.010 A 
ATOM     20  C   LIG    1       -7.417  -1.488   0.392  0.00  0.00    +0.030 A 
ATOM     21  C   LIG    1       -6.790  -2.577   0.964  0.00  0.00    +0.040 A 
ATOM     22  C   LIG    1       -5.424  -2.739   0.838  0.00  0.00    -0.090 A 
ATOM     23  C   LIG    1       -4.748  -3.933   1.460  0.00  0.00    +0.100 C 
BRANCH  19  24
ATOM     24  C   LIG    1       -7.338   0.623  -0.927  0.00  0.00    +0.230 A 
ATOM     25  N   LIG    1       -6.745   1.577  -1.606  0.00  0.00    -0.470 NA
ATOM     26  C   LIG    1       -7.673   2.458  -2.008  0.00  0.00    +0.150 A 
ATOM     27  C   LIG    1       -8.867   2.035  -1.555  0.00  0.00    +0.150 A 
ATOM     28  O   LIG    1       -8.655   0.888  -0.879  0.00  0.00    -0.200 OA
ENDBRANCH  19  24
ENDBRANCH   2  17
TORSDOF 4
