REMARK  Name = ZINCpe000000U8d2.0
REMARK                            x       y       z     vdW  Elec       q    Type
REMARK                         _______ _______ _______ _____ _____    ______ ____
ROOT
ATOM      1  C   LIG    1       -3.164  -2.607   1.042  0.00  0.00    -0.200 A 
ATOM      2  C   LIG    1       -2.067  -3.250   1.622  0.00  0.00    +0.090 A 
ATOM      3  C   LIG    1       -2.054  -4.622   1.730  0.00  0.00    -0.080 A 
ATOM      4  C   LIG    1       -3.127  -5.370   1.254  0.00  0.00    +0.250 A 
ATOM      5  C   LIG    1       -4.219  -4.732   0.671  0.00  0.00    -0.070 A 
ATOM      6  C   LIG    1       -4.241  -3.360   0.565  0.00  0.00    +0.130 A 
ENDROOT
BRANCH   1   9
ATOM      7  N   LIG    1       -2.145  -0.411   1.390  0.00  0.00    -0.720 N 
ATOM      8  H   LIG    1       -1.385  -0.856   1.796  0.00  0.00    +0.400 HD
ATOM      9  C   LIG    1       -3.183  -1.136   0.929  0.00  0.00    +0.570 C 
ATOM     10  O   LIG    1       -4.136  -0.578   0.420  0.00  0.00    -0.550 OA
BRANCH   7  11
ATOM     11  CA  LIG    1       -2.164   1.050   1.278  0.00  0.00    +0.250 C 
BRANCH  11  13
ATOM     12  C   LIG    1       -0.013   1.086   0.008  0.00  0.00    +0.020 C 
ATOM     13  C   LIG    1       -0.729   1.579   1.267  0.00  0.00    +0.030 C 
ENDBRANCH  11  13
BRANCH  11  14
ATOM     14  C   LIG    1       -2.918   1.643   2.470  0.00  0.00    +0.160 C 
BRANCH  14  15
ATOM     15  O   LIG    1       -2.199   1.366   3.673  0.00  0.00    -0.570 OA
ATOM     16  H   LIG    1       -2.620   1.714   4.472  0.00  0.00    +0.380 HD
ENDBRANCH  14  15
ENDBRANCH  11  14
ENDBRANCH   7  11
ENDBRANCH   1   9
BRANCH   4  17
ATOM     17  N   LIG    1       -3.108  -6.756   1.359  0.00  0.00    -0.730 N 
ATOM     18  H   LIG    1       -3.856  -7.278   1.027  0.00  0.00    +0.410 HD
BRANCH  17  19
ATOM     19  C   LIG    1       -1.960  -7.428   1.971  0.00  0.00    +0.290 C 
BRANCH  19  20
ATOM     20  C   LIG    1       -2.187  -8.918   1.963  0.00  0.00    +0.510 C 
ATOM     21  N   LIG    1       -1.256  -9.745   2.479  0.00  0.00    -0.610 N 
ATOM     22  C   LIG    1       -0.010  -9.216   3.056  0.00  0.00    +0.260 C 
ATOM     23  C   LIG    1        0.179  -9.833   4.446  0.00  0.00    +0.220 C 
ATOM     24  O   LIG    1        0.079 -11.256   4.348  0.00  0.00    -0.370 OA
ATOM     25  C   LIG    1       -1.196 -11.723   3.901  0.00  0.00    +0.130 C 
ATOM     26  C   LIG    1       -1.206 -13.253   3.893  0.00  0.00    +0.070 C 
ATOM     27  C   LIG    1       -1.458 -11.202   2.487  0.00  0.00    +0.260 C 
ATOM     28  O   LIG    1       -3.208  -9.373   1.492  0.00  0.00    -0.530 OA
ENDBRANCH  19  20
ENDBRANCH  17  19
ENDBRANCH   4  17
TORSDOF 8
