REMARK  Name = ZINCqH0000007njG.0
REMARK                            x       y       z     vdW  Elec       q    Type
REMARK                         _______ _______ _______ _____ _____    ______ ____
ROOT
ATOM      1  N   LIG    1        1.870   6.525  -0.206  0.00  0.00    -1.110 NA
ATOM      2  H   LIG    1        2.130   7.425   0.046  0.00  0.00    +0.420 HD
ENDROOT
BRANCH   1   3
ATOM      3  S   LIG    1        0.306   6.208  -0.648  0.00  0.00    +2.700 S 
ATOM      4  O   LIG    1       -0.402   7.434  -0.523  0.00  0.00    -0.950 OA
ATOM      5  O   LIG    1        0.373   5.469  -1.860  0.00  0.00    -0.950 OA
BRANCH   3   9
ATOM      6  C   LIG    1       -1.427   3.412   2.469  0.00  0.00    +0.160 A 
ATOM      7  C   LIG    1       -1.532   4.783   2.630  0.00  0.00    -0.050 A 
ATOM      8  C   LIG    1       -1.003   5.634   1.677  0.00  0.00    +0.140 A 
ATOM      9  C   LIG    1       -0.368   5.119   0.562  0.00  0.00    -0.680 A 
ATOM     10  C   LIG    1       -0.254   3.750   0.398  0.00  0.00    +0.070 A 
ATOM     11  C   LIG    1       -0.787   2.893   1.346  0.00  0.00    +0.080 A 
BRANCH   6  13
ATOM     12  C   LIG    1       -2.588   3.177   4.530  0.00  0.00    +0.250 C 
ATOM     13  O   LIG    1       -1.946   2.574   3.405  0.00  0.00    -0.300 OA
ENDBRANCH   6  13
BRANCH  11  14
ATOM     14  O   LIG    1       -0.682   1.547   1.184  0.00  0.00    -0.300 OA
ATOM     15  C   LIG    1       -0.013   1.086   0.008  0.00  0.00    +0.250 C 
ENDBRANCH  11  14
ENDBRANCH   3   9
ENDBRANCH   1   3
BRANCH   1  16
ATOM     16  C   LIG    1        2.861   5.446  -0.196  0.00  0.00    +0.300 C 
ATOM     17  C   LIG    1        2.966   4.863   1.215  0.00  0.00    +0.050 C 
BRANCH  16  18
ATOM     18  C   LIG    1        4.202   5.992  -0.615  0.00  0.00    -0.060 A 
ATOM     19  C   LIG    1        4.610   7.237  -0.174  0.00  0.00    +0.030 A 
ATOM     20  C   LIG    1        5.842   7.735  -0.554  0.00  0.00    +0.070 A 
ATOM     21  C   LIG    1        6.662   6.993  -1.383  0.00  0.00    -0.180 A 
ATOM     22  C   LIG    1        6.252   5.750  -1.829  0.00  0.00    +0.080 A 
ATOM     23  C   LIG    1        5.021   5.250  -1.444  0.00  0.00    +0.030 A 
BRANCH  21  24
ATOM     24  C   LIG    1        8.003   7.538  -1.802  0.00  0.00    +0.510 C 
ATOM     25  F   LIG    1        8.892   6.478  -2.011  0.00  0.00    -0.180 F 
ATOM     26  F   LIG    1        8.501   8.373  -0.796  0.00  0.00    -0.180 F 
ATOM     27  F   LIG    1        7.861   8.268  -2.986  0.00  0.00    -0.180 F 
ENDBRANCH  21  24
ENDBRANCH  16  18
ENDBRANCH   1  16
TORSDOF 7
