REMARK  Name = ZINCpe00000yhdI8.0
REMARK                            x       y       z     vdW  Elec       q    Type
REMARK                         _______ _______ _______ _____ _____    ______ ____
ROOT
ATOM      1  C   LIG    1        4.546   1.195  -3.310  0.00  0.00    +0.510 C 
ATOM      2  N   LIG    1        5.404   1.804  -2.467  0.00  0.00    -0.580 N 
ATOM      3  C   LIG    1        5.490   3.271  -2.418  0.00  0.00    +0.290 C 
ATOM      4  C   LIG    1        5.259   3.727  -0.973  0.00  0.00    +0.270 C 
ATOM      5  N   LIG    1        6.125   2.937  -0.086  0.00  0.00    -0.610 N 
ATOM      6  C   LIG    1        6.039   1.470  -0.136  0.00  0.00    +0.250 C 
ATOM      7  C   LIG    1        4.652   1.022   0.329  0.00  0.00    +0.030 C 
ATOM      8  C   LIG    1        6.982   3.546   0.756  0.00  0.00    +0.570 C 
ATOM      9  O   LIG    1        7.757   2.883   1.419  0.00  0.00    -0.530 OA
ATOM     10  C   LIG    1        6.266   1.014  -1.577  0.00  0.00    +0.290 C 
ATOM     11  O   LIG    1        4.399  -0.008  -3.261  0.00  0.00    -0.520 OA
ENDROOT
BRANCH   8  12
ATOM     12  C   LIG    1        6.980   5.017   0.875  0.00  0.00    -0.170 A 
ATOM     13  C   LIG    1        5.772   5.709   0.990  0.00  0.00    +0.080 A 
ATOM     14  C   LIG    1        5.775   7.081   1.106  0.00  0.00    -0.070 A 
ATOM     15  C   LIG    1        6.977   7.779   1.099  0.00  0.00    +0.150 A 
ATOM     16  C   LIG    1        8.181   7.094   0.980  0.00  0.00    -0.120 A 
ATOM     17  C   LIG    1        9.481   7.856   0.971  0.00  0.00    +0.100 C 
ATOM     18  C   LIG    1        8.187   5.722   0.868  0.00  0.00    +0.110 A 
BRANCH  15  19
ATOM     19  O   LIG    1        6.975   9.131   1.208  0.00  0.00    -0.310 OA
ATOM     20  C   LIG    1        5.702   9.771   1.327  0.00  0.00    +0.240 C 
ENDBRANCH  15  19
ENDBRANCH   8  12
BRANCH   1  23
ATOM     21  N   LIG    1        2.818   1.417  -5.050  0.00  0.00    -0.700 N 
ATOM     22  H   LIG    1        2.628   0.472  -4.941  0.00  0.00    +0.410 HD
ATOM     23  C   LIG    1        3.776   2.002  -4.304  0.00  0.00    +0.510 C 
ATOM     24  O   LIG    1        4.013   3.184  -4.441  0.00  0.00    -0.510 OA
BRANCH  21  26
ATOM     25  C   LIG    1        1.053   1.308  -6.739  0.00  0.00    +0.050 C 
ATOM     26  C   LIG    1        2.067   2.206  -6.029  0.00  0.00    +0.270 C 
ENDBRANCH  21  26
ENDBRANCH   1  23
TORSDOF 4
