REMARK  Name = ZINCtV00000tRTY3.0
REMARK                            x       y       z     vdW  Elec       q    Type
REMARK                         _______ _______ _______ _____ _____    ______ ____
ROOT
ATOM      1  C   LIG    1        3.506   6.130  -0.208  0.00  0.00    +0.320 A 
ATOM      2  C   LIG    1        2.398   5.345  -0.124  0.00  0.00    -0.380 A 
ATOM      3  S   LIG    1        0.938   6.315  -0.117  0.00  0.00    +0.200 S 
ATOM      4  C   LIG    1        1.844   7.818  -0.238  0.00  0.00    +0.090 A 
ATOM      5  N   LIG    1        1.410   9.078  -0.288  0.00  0.00    -0.450 NA
ATOM      6  C   LIG    1        2.242  10.098  -0.381  0.00  0.00    +0.230 A 
ATOM      7  C   LIG    1        3.631   9.903  -0.432  0.00  0.00    -0.130 A 
ATOM      8  C   LIG    1        4.516  11.116  -0.552  0.00  0.00    +0.090 C 
ATOM      9  C   LIG    1        5.952  10.773  -0.160  0.00  0.00    +0.030 C 
ATOM     10  C   LIG    1        6.383   9.525  -0.940  0.00  0.00    +0.030 C 
ATOM     11  C   LIG    1        5.594   8.329  -0.409  0.00  0.00    +0.080 C 
ATOM     12  C   LIG    1        4.123   8.640  -0.378  0.00  0.00    +0.030 A 
ATOM     13  C   LIG    1        3.217   7.552  -0.280  0.00  0.00    -0.170 A 
ENDROOT
BRANCH   6  14
ATOM     14  C   LIG    1        1.699  11.476  -0.433  0.00  0.00    -0.050 A 
ATOM     15  C   LIG    1        0.688  11.864   0.445  0.00  0.00    +0.050 A 
ATOM     16  C   LIG    1        0.190  13.150   0.396  0.00  0.00    +0.010 A 
ATOM     17  C   LIG    1        0.684  14.051  -0.531  0.00  0.00    +0.030 A 
ATOM     18  C   LIG    1        1.683  13.670  -1.409  0.00  0.00    +0.010 A 
ATOM     19  C   LIG    1        2.193  12.389  -1.365  0.00  0.00    +0.030 A 
ENDBRANCH   6  14
BRANCH   1  20
ATOM     20  N   LIG    1        4.794   5.620  -0.227  0.00  0.00    -0.830 N 
ATOM     21  H   LIG    1        5.538   6.171   0.059  0.00  0.00    +0.400 HD
ATOM     22  H   LIG    1        4.950   4.711  -0.527  0.00  0.00    +0.420 HD
ENDBRANCH   1  20
BRANCH   2  23
ATOM     23  C   LIG    1        2.421   3.933  -0.046  0.00  0.00    +0.480 C 
ATOM     24  O   LIG    1        3.483   3.346   0.065  0.00  0.00    -0.470 OA
BRANCH  23  25
ATOM     25  C   LIG    1        1.156   3.168  -0.098  0.00  0.00    -0.140 A 
ATOM     26  C   LIG    1        1.053   1.938   0.555  0.00  0.00    +0.080 A 
ATOM     27  C   LIG    1       -0.129   1.230   0.502  0.00  0.00    +0.040 A 
ATOM     28  C   LIG    1       -1.211   1.734  -0.200  0.00  0.00    -0.070 A 
ATOM     29  C   LIG    1       -1.117   2.956  -0.845  0.00  0.00    +0.050 A 
ATOM     30 BR   LIG    1       -2.826   0.753  -0.273  0.00  0.00    -0.040 Br
ATOM     31  C   LIG    1        0.060   3.673  -0.800  0.00  0.00    +0.070 A 
ENDBRANCH  23  25
ENDBRANCH   2  23
TORSDOF 4
