REMARK  Name = ZINCrH00000tj17H.0
REMARK                            x       y       z     vdW  Elec       q    Type
REMARK                         _______ _______ _______ _____ _____    ______ ____
ROOT
ATOM      1  C   LIG    1       -1.573   1.585  -1.302  0.00  0.00    -0.260 C 
ATOM      2  C   LIG    1       -2.754   0.964  -1.513  0.00  0.00    +0.250 C 
ATOM      3  N   LIG    1       -3.748   1.002  -0.576  0.00  0.00    -0.500 N 
ATOM      4  C   LIG    1       -3.638   1.639   0.597  0.00  0.00    +0.700 C 
ATOM      5  N   LIG    1       -2.520   2.304   0.950  0.00  0.00    -0.600 N 
ATOM      6  C   LIG    1       -2.433   2.991   2.241  0.00  0.00    +0.340 C 
ATOM      7  O   LIG    1       -4.578   1.618   1.368  0.00  0.00    -0.540 OA
ATOM      8  C   LIG    1       -2.979   0.218  -2.803  0.00  0.00    +0.160 C 
ATOM      9  C   LIG    1       -1.389   2.324   0.008  0.00  0.00    +0.350 C 
ENDROOT
BRANCH   3  10
ATOM     10  C   LIG    1       -4.948   0.337  -0.857  0.00  0.00    +0.130 A 
ATOM     11  C   LIG    1       -5.170  -0.939  -0.357  0.00  0.00    +0.100 A 
ATOM     12  C   LIG    1       -6.355  -1.593  -0.636  0.00  0.00    +0.060 A 
ATOM     13  C   LIG    1       -7.319  -0.977  -1.413  0.00  0.00    +0.120 A 
ATOM     14  C   LIG    1       -7.101   0.294  -1.913  0.00  0.00    -0.030 A 
ATOM     15  C   LIG    1       -5.920   0.955  -1.632  0.00  0.00    +0.120 A 
BRANCH  14  16
ATOM     16  N   LIG    1       -8.135   0.950  -2.744  0.00  0.00    +0.030 N 
ATOM     17  O   LIG    1       -7.943   2.069  -3.184  0.00  0.00    -0.150 OA
ATOM     18  O   LIG    1       -9.178   0.369  -2.987  0.00  0.00    -0.150 OA
ENDBRANCH  14  16
ENDBRANCH   3  10
BRANCH   9  19
ATOM     19  C   LIG    1       -0.191   1.736   0.708  0.00  0.00    -0.120 A 
ATOM     20  C   LIG    1       -0.251   0.597   1.400  0.00  0.00    -0.040 A 
ATOM     21  S   LIG    1        1.334   0.226   2.064  0.00  0.00    +0.100 S 
ATOM     22  C   LIG    1        2.010   1.682   1.345  0.00  0.00    -0.040 A 
ATOM     23  C   LIG    1        1.057   2.335   0.678  0.00  0.00    +0.040 A 
ENDBRANCH   9  19
BRANCH   1  24
ATOM     24  C   LIG    1       -0.543   1.546  -2.271  0.00  0.00    +0.530 C 
ATOM     25  O   LIG    1       -0.747   1.035  -3.356  0.00  0.00    -0.510 OA
BRANCH  24  27
ATOM     26  C   LIG    1        1.659   2.002  -3.017  0.00  0.00    +0.260 C 
ATOM     27  O   LIG    1        0.666   2.076  -1.992  0.00  0.00    -0.340 OA
ENDBRANCH  24  27
ENDBRANCH   1  24
TORSDOF 5
