REMARK  Name = ZINCqH0000005Y9H.0
REMARK                            x       y       z     vdW  Elec       q    Type
REMARK                         _______ _______ _______ _____ _____    ______ ____
ROOT
ATOM      1  C   LIG    1        0.534   3.530   2.099  0.00  0.00    +0.530 C 
ATOM      2  N   LIG    1       -0.526   3.000   1.458  0.00  0.00    -0.560 N 
ATOM      3  C   LIG    1       -0.659   1.542   1.289  0.00  0.00    +0.300 C 
ATOM      4  C   LIG    1       -0.013   1.086   0.008  0.00  0.00    +0.030 C 
ATOM      5  C   LIG    1       -0.690   1.561  -1.268  0.00  0.00    +0.030 C 
ATOM      6  S   LIG    1       -0.417   3.341  -1.498  0.00  0.00    -0.150 S 
ATOM      7  C   LIG    1       -1.654   4.043  -0.431  0.00  0.00    -0.100 A 
ATOM      8  C   LIG    1       -2.693   4.788  -0.949  0.00  0.00    +0.080 A 
ATOM      9  C   LIG    1       -3.622   5.346  -0.085  0.00  0.00    +0.030 A 
ATOM     10  C   LIG    1       -3.492   5.159   1.279  0.00  0.00    +0.040 A 
ATOM     11  C   LIG    1       -2.456   4.403   1.794  0.00  0.00    +0.010 A 
ATOM     12  C   LIG    1       -0.111   0.800  -2.462  0.00  0.00    +0.080 C 
ATOM     13  C   LIG    1       -1.531   3.819   0.935  0.00  0.00    +0.140 A 
ATOM     14  O   LIG    1        1.397   2.805   2.547  0.00  0.00    -0.500 OA
ENDROOT
BRANCH   1  15
ATOM     15  C   LIG    1        0.647   5.024   2.260  0.00  0.00    +0.240 C 
BRANCH  15  16
ATOM     16  O   LIG    1        1.848   5.338   2.969  0.00  0.00    -0.280 OA
BRANCH  16  20
ATOM     17  C   LIG    1        2.622   9.331   3.669  0.00  0.00    -0.170 A 
ATOM     18  C   LIG    1        3.516   8.355   4.118  0.00  0.00    +0.140 A 
ATOM     19  C   LIG    1        3.254   7.024   3.883  0.00  0.00    -0.010 A 
ATOM     20  C   LIG    1        2.102   6.651   3.199  0.00  0.00    +0.170 A 
ATOM     21  C   LIG    1        1.214   7.619   2.745  0.00  0.00    -0.090 A 
ATOM     22  C   LIG    1        1.465   8.952   2.982  0.00  0.00    +0.120 A 
BRANCH  17  23
ATOM     23  C   LIG    1        2.899  10.758   3.918  0.00  0.00    +0.510 C 
ATOM     24  O   LIG    1        3.905  11.086   4.515  0.00  0.00    -0.510 OA
BRANCH  23  26
ATOM     25  C   LIG    1        2.373  13.082   3.765  0.00  0.00    +0.260 C 
ATOM     26  O   LIG    1        2.036  11.698   3.485  0.00  0.00    -0.360 OA
ENDBRANCH  23  26
ENDBRANCH  17  23
ENDBRANCH  16  20
ENDBRANCH  15  16
ENDBRANCH   1  15
TORSDOF 5
