REMARK  Name = ZINCtV00000L6jXu.0
REMARK                            x       y       z     vdW  Elec       q    Type
REMARK                         _______ _______ _______ _____ _____    ______ ____
ROOT
ATOM      1  C   LIG    1       -0.753   1.593  -1.232  0.00  0.00    -0.060 C 
ATOM      2  C   LIG    1       -2.188   1.063  -1.221  0.00  0.00    +0.040 C 
ATOM      3  C   LIG    1       -2.904   1.556   0.038  0.00  0.00    +0.000 C 
ATOM      4  C   LIG    1       -2.164   1.050   1.278  0.00  0.00    +0.030 C 
ATOM      5  C   LIG    1       -0.729   1.579   1.267  0.00  0.00    +0.000 C 
ATOM      6  C   LIG    1       -0.750   3.109   1.275  0.00  0.00    +0.030 C 
ATOM      7  C   LIG    1       -1.490   3.616   0.036  0.00  0.00    -0.010 C 
ATOM      8  C   LIG    1       -2.925   3.086   0.047  0.00  0.00    +0.040 C 
ATOM      9  C   LIG    1       -0.773   3.123  -1.223  0.00  0.00    +0.060 C 
ATOM     10  C   LIG    1       -0.013   1.086   0.008  0.00  0.00    +0.040 C 
ENDROOT
BRANCH   7  11
ATOM     11  C   LIG    1       -1.510   5.123   0.044  0.00  0.00    -0.070 A 
ATOM     12  C   LIG    1       -0.916   5.816   1.082  0.00  0.00    +0.010 A 
ATOM     13  C   LIG    1       -0.931   7.199   1.087  0.00  0.00    +0.000 A 
ATOM     14  C   LIG    1       -1.548   7.887   0.060  0.00  0.00    +0.000 A 
ATOM     15  C   LIG    1       -2.147   7.194  -0.976  0.00  0.00    +0.000 A 
ATOM     16  C   LIG    1       -2.128   5.811  -0.983  0.00  0.00    +0.010 A 
ENDBRANCH   7  11
BRANCH   1  18
ATOM     17  O   LIG    1        0.395   1.905  -3.270  0.00  0.00    -0.460 OA
ATOM     18  C   LIG    1       -0.047   1.107  -2.471  0.00  0.00    +0.520 C 
ATOM     19  N   LIG    1        0.092  -0.215  -2.693  0.00  0.00    -0.630 N 
ATOM     20  H   LIG    1       -0.262  -0.854  -2.055  0.00  0.00    +0.420 HD
BRANCH  19  21
ATOM     21  C   LIG    1        0.740  -0.662  -3.833  0.00  0.00    +0.350 A 
ATOM     22  N   LIG    1        1.239   0.101  -4.742  0.00  0.00    -0.470 NA
ATOM     23  C   LIG    1        1.846  -0.483  -5.794  0.00  0.00    +0.130 A 
ATOM     24  C   LIG    1        2.467   0.125  -6.905  0.00  0.00    +0.090 A 
ATOM     25  C   LIG    1        3.033  -0.642  -7.892  0.00  0.00    +0.080 A 
ATOM     26  C   LIG    1        3.003  -2.027  -7.814  0.00  0.00    -0.080 A 
ATOM     27  C   LIG    1        2.402  -2.643  -6.738  0.00  0.00    +0.110 A 
ATOM     28 BR   LIG    1        3.787  -3.069  -9.184  0.00  0.00    -0.030 Br
ATOM     29  C   LIG    1        1.823  -1.880  -5.727  0.00  0.00    -0.180 A 
ATOM     30  S   LIG    1        0.992  -2.352  -4.247  0.00  0.00    +0.080 S 
ENDBRANCH  19  21
ENDBRANCH   1  18
TORSDOF 3
