REMARK  Name = ZINCqH0000003a5F.0
REMARK                            x       y       z     vdW  Elec       q    Type
REMARK                         _______ _______ _______ _____ _____    ______ ____
ROOT
ATOM      1  C   LIG    1       -2.707   6.925   5.330  0.00  0.00    -0.220 A 
ATOM      2  C   LIG    1       -3.092   6.067   6.371  0.00  0.00    +0.140 A 
ATOM      3  C   LIG    1       -3.073   4.707   6.140  0.00  0.00    -0.040 A 
ATOM      4  C   LIG    1       -2.665   4.234   4.897  0.00  0.00    +0.340 A 
ATOM      5  N   LIG    1       -2.307   5.069   3.934  0.00  0.00    -0.530 NA
ATOM      6  C   LIG    1       -2.315   6.374   4.109  0.00  0.00    +0.370 A 
ENDROOT
BRANCH   1  12
ATOM      7  N   LIG    1       -5.972  10.235   7.128  0.00  0.00    -0.540 NA
ATOM      8  C   LIG    1       -6.038   8.840   6.674  0.00  0.00    +0.170 C 
ATOM      9  C   LIG    1       -4.696   8.152   6.949  0.00  0.00    +0.280 C 
ATOM     10  N   LIG    1       -3.626   8.956   6.338  0.00  0.00    -0.610 N 
ATOM     11  C   LIG    1       -3.575  10.393   6.643  0.00  0.00    +0.300 C 
ATOM     12  C   LIG    1       -2.714   8.388   5.524  0.00  0.00    +0.570 C 
ATOM     13  O   LIG    1       -1.898   9.082   4.948  0.00  0.00    -0.530 OA
ATOM     14  C   LIG    1       -4.964  10.993   6.376  0.00  0.00    +0.170 C 
BRANCH   7  16
ATOM     15  C   LIG    1       -7.138  12.383   7.281  0.00  0.00    +0.030 C 
ATOM     16  C   LIG    1       -7.289  10.880   7.042  0.00  0.00    +0.160 C 
ENDBRANCH   7  16
ENDBRANCH   1  12
BRANCH   4  17
ATOM     17  O   LIG    1       -2.639   2.898   4.667  0.00  0.00    -0.240 OA
BRANCH  17  18
ATOM     18  C   LIG    1       -2.124   2.465   3.487  0.00  0.00    +0.080 A 
ATOM     19  C   LIG    1       -0.761   2.565   3.245  0.00  0.00    +0.010 A 
ATOM     20  C   LIG    1       -0.239   2.123   2.045  0.00  0.00    +0.030 A 
ATOM     21  C   LIG    1       -1.074   1.580   1.085  0.00  0.00    -0.070 A 
ATOM     22  C   LIG    1       -2.433   1.484   1.321  0.00  0.00    +0.030 A 
ATOM     23  C   LIG    1       -2.959   1.920   2.522  0.00  0.00    +0.020 A 
BRANCH  21  24
ATOM     24  C   LIG    1       -0.502   1.099  -0.224  0.00  0.00    +0.020 C 
ATOM     25  C   LIG    1       -0.797  -0.393  -0.392  0.00  0.00    +0.030 C 
ATOM     26  C   LIG    1       -1.140   1.878  -1.376  0.00  0.00    +0.030 C 
ENDBRANCH  21  24
ENDBRANCH  17  18
ENDBRANCH   4  17
TORSDOF 5
