REMARK  Name = ZINCAx0000000cWZ.0
REMARK                            x       y       z     vdW  Elec       q    Type
REMARK                         _______ _______ _______ _____ _____    ______ ____
ROOT
ATOM      1  C   LIG    1       -3.550  -2.401   4.052  0.00  0.00    -0.140 A 
ATOM      2  C   LIG    1       -4.031  -1.229   3.460  0.00  0.00    +0.120 A 
ATOM      3  C   LIG    1       -4.852  -0.391   4.170  0.00  0.00    +0.000 A 
ATOM      4  C   LIG    1       -5.199  -0.701   5.482  0.00  0.00    +0.180 A 
ATOM      5  C   LIG    1       -4.718  -1.865   6.077  0.00  0.00    +0.000 A 
ATOM      6  C   LIG    1       -3.900  -2.709   5.371  0.00  0.00    +0.110 A 
ENDROOT
BRANCH   1   8
ATOM      7  O   LIG    1       -2.250  -4.322   3.808  0.00  0.00    -0.500 OA
ATOM      8  C   LIG    1       -2.671  -3.307   3.291  0.00  0.00    +0.510 C 
BRANCH   8   9
ATOM      9  O   LIG    1       -2.335  -3.008   2.020  0.00  0.00    -0.340 OA
BRANCH   9  10
ATOM     10  C   LIG    1       -1.466  -3.945   1.331  0.00  0.00    +0.230 C 
BRANCH  10  11
ATOM     11  C   LIG    1       -1.197  -3.442  -0.089  0.00  0.00    +0.340 C 
BRANCH  11  12
ATOM     12  N   LIG    1       -0.443  -2.188  -0.027  0.00  0.00    -0.580 N 
ATOM     13  C   LIG    1       -1.001  -0.965   0.028  0.00  0.00    +0.580 C 
ATOM     14  C   LIG    1        0.077   0.044   0.081  0.00  0.00    -0.140 A 
ATOM     15  C   LIG    1        0.106   1.427   0.146  0.00  0.00    +0.100 A 
ATOM     16  C   LIG    1        1.324   2.089   0.183  0.00  0.00    +0.050 A 
ATOM     17  C   LIG    1        2.508   1.378   0.156  0.00  0.00    +0.040 A 
ATOM     18  C   LIG    1        2.495  -0.007   0.090  0.00  0.00    +0.100 A 
ATOM     19  C   LIG    1        1.286  -0.681   0.052  0.00  0.00    -0.140 A 
ATOM     20  O   LIG    1       -2.193  -0.730   0.035  0.00  0.00    -0.440 OA
ATOM     21  C   LIG    1        0.900  -2.107  -0.017  0.00  0.00    +0.570 C 
ATOM     22  O   LIG    1        1.667  -3.047  -0.058  0.00  0.00    -0.460 OA
ENDBRANCH  11  12
ENDBRANCH  10  11
ENDBRANCH   9  10
ENDBRANCH   8   9
ENDBRANCH   1   8
BRANCH   4  23
ATOM     23  N   LIG    1       -6.027   0.153   6.201  0.00  0.00    -1.060 N 
ATOM     24  H   LIG    1       -6.770  -0.206   6.711  0.00  0.00    +0.430 HD
BRANCH  23  25
ATOM     25  S   LIG    1       -5.745   1.785   6.187  0.00  0.00    +2.700 S 
ATOM     26  O   LIG    1       -6.676   2.361   7.094  0.00  0.00    -0.940 OA
ATOM     27  O   LIG    1       -5.655   2.165   4.821  0.00  0.00    -0.940 OA
BRANCH  25  28
ATOM     28  C   LIG    1       -4.147   2.045   6.882  0.00  0.00    -0.680 A 
ATOM     29  C   LIG    1       -3.998   2.140   8.253  0.00  0.00    +0.140 A 
ATOM     30  C   LIG    1       -2.745   2.339   8.802  0.00  0.00    +0.020 A 
ATOM     31  C   LIG    1       -1.636   2.456   7.978  0.00  0.00    +0.110 A 
ATOM     32  O   LIG    1       -0.411   2.662   8.533  0.00  0.00    -0.300 OA
ATOM     33  C   LIG    1        0.724   2.400   7.701  0.00  0.00    +0.230 C 
ATOM     34  C   LIG    1        0.475   3.046   6.332  0.00  0.00    +0.230 C 
ATOM     35  O   LIG    1       -0.711   2.471   5.773  0.00  0.00    -0.300 OA
ATOM     36  C   LIG    1       -1.787   2.365   6.599  0.00  0.00    +0.030 A 
ATOM     37  C   LIG    1       -3.045   2.159   6.055  0.00  0.00    +0.140 A 
ENDBRANCH  25  28
ENDBRANCH  23  25
ENDBRANCH   4  23
TORSDOF 8
