REMARK  Name = ZINCvU00000009ny.0
REMARK                            x       y       z     vdW  Elec       q    Type
REMARK                         _______ _______ _______ _____ _____    ______ ____
ROOT
ATOM      1  N   LIG    1        4.576   5.633   0.130  0.00  0.00    -0.520 N 
ATOM      2  C   LIG    1        4.299   6.383  -0.968  0.00  0.00    +0.600 A 
ATOM      3  N   LIG    1        4.043   7.655  -0.882  0.00  0.00    -0.500 NA
ATOM      4  C   LIG    1        4.050   8.303   0.303  0.00  0.00    +0.070 A 
ATOM      5  C   LIG    1        4.332   7.597   1.467  0.00  0.00    -0.220 A 
ATOM      6  C   LIG    1        4.296   8.448   2.648  0.00  0.00    +0.010 A 
ATOM      7  C   LIG    1        4.005   9.725   2.399  0.00  0.00    -0.040 A 
ATOM      8  S   LIG    1        3.749   9.993   0.685  0.00  0.00    +0.220 S 
ATOM      9  C   LIG    1        4.604   6.200   1.352  0.00  0.00    +0.560 A 
ATOM     10  O   LIG    1        4.857   5.533   2.340  0.00  0.00    -0.500 OA
ENDROOT
BRANCH   6  11
ATOM     11  C   LIG    1        4.562   7.937   4.014  0.00  0.00    -0.050 A 
ATOM     12  C   LIG    1        3.896   6.804   4.479  0.00  0.00    +0.060 A 
ATOM     13  C   LIG    1        4.150   6.330   5.750  0.00  0.00    +0.000 A 
ATOM     14  C   LIG    1        5.057   6.983   6.566  0.00  0.00    -0.080 A 
ATOM     15  C   LIG    1        5.717   8.111   6.112  0.00  0.00    -0.010 A 
ATOM     16  C   LIG    1        5.327   6.464   7.954  0.00  0.00    +0.090 C 
ATOM     17  C   LIG    1        5.474   8.591   4.841  0.00  0.00    +0.020 A 
ENDBRANCH   6  11
BRANCH   1  18
ATOM     18  C   LIG    1        4.853   4.202  -0.016  0.00  0.00    +0.350 C 
BRANCH  18  21
ATOM     19  N   LIG    1        3.575   2.084  -0.007  0.00  0.00    -0.670 N 
ATOM     20  H   LIG    1        4.418   1.609  -0.074  0.00  0.00    +0.410 HD
ATOM     21  C   LIG    1        3.565   3.428   0.097  0.00  0.00    +0.500 C 
ATOM     22  O   LIG    1        2.519   4.014   0.281  0.00  0.00    -0.500 OA
BRANCH  19  28
ATOM     23  C   LIG    1        2.297   0.116   0.566  0.00  0.00    -0.100 A 
ATOM     24  C   LIG    1        1.106  -0.582   0.552  0.00  0.00    +0.030 A 
ATOM     25  C   LIG    1       -0.014  -0.030  -0.043  0.00  0.00    -0.010 A 
ATOM     26  C   LIG    1        0.055   1.221  -0.626  0.00  0.00    +0.020 A 
ATOM     27  C   LIG    1        1.244   1.925  -0.616  0.00  0.00    +0.010 A 
ATOM     28  C   LIG    1        2.370   1.374  -0.019  0.00  0.00    +0.150 A 
BRANCH  23  29
ATOM     29  C   LIG    1        3.517  -0.485   1.215  0.00  0.00    +0.020 C 
ATOM     30  C   LIG    1        3.272  -0.639   2.717  0.00  0.00    +0.030 C 
BRANCH  29  32
ATOM     31  C   LIG    1        5.103  -2.415   1.170  0.00  0.00    +0.010 C 
ATOM     32  C   LIG    1        3.796  -1.859   0.601  0.00  0.00    +0.010 C 
ENDBRANCH  29  32
ENDBRANCH  23  29
ENDBRANCH  19  28
ENDBRANCH  18  21
ENDBRANCH   1  18
TORSDOF 6
