REMARK  Name = ZINCpk000000oePU.0
REMARK                            x       y       z     vdW  Elec       q    Type
REMARK                         _______ _______ _______ _____ _____    ______ ____
ROOT
ATOM      1  C   LIG    1       -0.761   4.997   4.266  0.00  0.00    +0.470 C 
ENDROOT
BRANCH   1   2
ATOM      2  N   LIG    1       -1.900   4.107   4.026  0.00  0.00    -0.570 N 
ATOM      3  C   LIG    1       -2.316   3.729   2.811  0.00  0.00    +0.710 C 
ATOM      4  N   LIG    1       -3.383   2.909   2.865  0.00  0.00    -0.720 N 
ATOM      5  H   LIG    1       -3.850   2.512   2.114  0.00  0.00    +0.440 HD
ATOM      6  C   LIG    1       -3.699   2.732   4.289  0.00  0.00    +0.130 C 
ATOM      7  C   LIG    1       -3.569   1.266   4.687  0.00  0.00    +0.050 C 
ATOM      8  C   LIG    1       -4.607   0.436   3.927  0.00  0.00    +0.030 C 
ATOM      9  C   LIG    1       -6.010   0.950   4.258  0.00  0.00    +0.010 C 
ATOM     10  C   LIG    1       -6.132   2.414   3.834  0.00  0.00    +0.010 C 
ATOM     11  C   LIG    1       -5.100   3.252   4.593  0.00  0.00    +0.050 C 
ATOM     12  O   LIG    1       -1.790   4.085   1.775  0.00  0.00    -0.530 OA
ATOM     13  C   LIG    1       -2.660   3.567   5.002  0.00  0.00    +0.530 C 
ATOM     14  O   LIG    1       -2.536   3.720   6.198  0.00  0.00    -0.460 OA
ENDBRANCH   1   2
BRANCH   1  15
ATOM     15  N   LIG    1       -1.176   6.390   4.057  0.00  0.00    -0.530 NA
BRANCH  15  16
ATOM     16  C   LIG    1       -0.042   7.218   3.626  0.00  0.00    +0.220 C 
ATOM     17  C   LIG    1        0.399   6.795   2.214  0.00  0.00    +0.090 C 
ATOM     18  C   LIG    1        1.777   7.461   1.962  0.00  0.00    -0.300 C 
ATOM     19  S   LIG    1        2.639   7.212   3.560  0.00  0.00    +2.390 S 
ATOM     20  O   LIG    1        3.312   8.409   3.924  0.00  0.00    -0.930 OA
ATOM     21  O   LIG    1        3.347   5.980   3.526  0.00  0.00    -0.930 OA
ATOM     22  C   LIG    1        1.143   7.018   4.592  0.00  0.00    -0.360 C 
ENDBRANCH  15  16
BRANCH  15  23
ATOM     23  C   LIG    1       -1.800   6.941   5.268  0.00  0.00    +0.180 C 
BRANCH  23  24
ATOM     24  C   LIG    1       -2.439   8.293   4.943  0.00  0.00    +0.020 C 
BRANCH  24  26
ATOM     25  C   LIG    1       -3.727  10.218   5.879  0.00  0.00    +0.010 C 
ATOM     26  C   LIG    1       -3.088   8.866   6.204  0.00  0.00    +0.000 C 
ENDBRANCH  24  26
ENDBRANCH  23  24
ENDBRANCH  15  23
ENDBRANCH   1  15
TORSDOF 6
