REMARK  Name = ZINCqH0000036bnH.0
REMARK                            x       y       z     vdW  Elec       q    Type
REMARK                         _______ _______ _______ _____ _____    ______ ____
ROOT
ATOM      1  C   LIG    1       10.362  -2.959   5.072  0.00  0.00    +0.150 A 
ATOM      2  C   LIG    1       10.356  -1.611   4.742  0.00  0.00    -0.090 A 
ATOM      3  C   LIG    1        9.984  -1.210   3.472  0.00  0.00    +0.080 A 
ATOM      4  C   LIG    1        9.619  -2.156   2.535  0.00  0.00    -0.150 A 
ATOM      5  C   LIG    1        9.263  -1.730   1.124  0.00  0.00    +0.270 C 
ATOM      6  N   LIG    1        7.836  -1.987   0.899  0.00  0.00    -0.540 NA
ATOM      7  C   LIG    1        7.572  -3.365   0.492  0.00  0.00    +0.170 C 
ATOM      8  C   LIG    1        7.819  -4.378   1.589  0.00  0.00    +0.250 C 
ATOM      9  O   LIG    1        9.208  -4.418   1.939  0.00  0.00    -0.320 OA
ATOM     10  C   LIG    1        9.602  -3.499   2.863  0.00  0.00    +0.150 A 
ATOM     11  C   LIG    1        9.984  -3.907   4.132  0.00  0.00    -0.030 A 
ENDROOT
BRANCH   1  13
ATOM     12  C   LIG    1       11.115  -2.323   7.235  0.00  0.00    +0.250 C 
ATOM     13  O   LIG    1       10.738  -3.351   6.317  0.00  0.00    -0.320 OA
ENDBRANCH   1  13
BRANCH   6  14
ATOM     14  C   LIG    1        7.276  -1.036  -0.071  0.00  0.00    +0.310 C 
ATOM     15  C   LIG    1        7.796  -1.369  -1.471  0.00  0.00    +0.040 C 
BRANCH  14  16
ATOM     16  C   LIG    1        5.772  -1.131  -0.058  0.00  0.00    +0.200 A 
ATOM     17  N   LIG    1        4.929  -0.129  -0.051  0.00  0.00    -0.470 NA
ATOM     18  C   LIG    1        3.699  -0.689  -0.036  0.00  0.00    +0.220 A 
ATOM     19  N   LIG    1        3.865  -1.986  -0.045  0.00  0.00    -0.380 NA
ATOM     20  O   LIG    1        5.048  -2.255  -0.057  0.00  0.00    +0.080 OA
BRANCH  18  21
ATOM     21  C   LIG    1        2.402   0.033  -0.021  0.00  0.00    -0.030 A 
ATOM     22  C   LIG    1        1.205  -0.680  -0.013  0.00  0.00    +0.050 A 
ATOM     23  C   LIG    1        0.002  -0.004   0.002  0.00  0.00    +0.010 A 
ATOM     24  C   LIG    1       -0.017   1.379   0.010  0.00  0.00    +0.030 A 
ATOM     25  C   LIG    1        1.169   2.092   0.002  0.00  0.00    +0.010 A 
ATOM     26  C   LIG    1        2.377   1.426  -0.013  0.00  0.00    +0.070 A 
ENDBRANCH  18  21
ENDBRANCH  14  16
ENDBRANCH   6  14
TORSDOF 4
