REMARK  Name = ZINCbw0000001gRN.0
REMARK                            x       y       z     vdW  Elec       q    Type
REMARK                         _______ _______ _______ _____ _____    ______ ____
ROOT
ATOM      1  C   LIG    1       -0.013   1.086   0.008  0.00  0.00    +0.150 C 
ATOM      2  C   LIG    1       -0.718   1.572   1.248  0.00  0.00    +0.010 A 
ATOM      3  C   LIG    1       -2.086   1.795   1.243  0.00  0.00    +0.040 A 
ATOM      4  C   LIG    1       -2.707   2.236   2.402  0.00  0.00    +0.200 A 
ATOM      5  N   LIG    1       -2.014   2.456   3.499  0.00  0.00    -0.440 NA
ATOM      6  C   LIG    1       -0.700   2.260   3.544  0.00  0.00    +0.260 A 
ATOM      7 CL   LIG    1       -4.421   2.510   2.403  0.00  0.00    +0.000 Cl
ATOM      8  C   LIG    1       -0.012   1.811   2.417  0.00  0.00    -0.110 A 
ATOM      9 BR   LIG    1        1.857   1.532   2.483  0.00  0.00    +0.010 Br
ENDROOT
BRANCH   6  10
ATOM     10  C   LIG    1        0.014   2.512   4.760  0.00  0.00    +0.250 C 
ATOM     11  N   LIG    1        0.581   2.712   5.723  0.00  0.00    -0.350 NA
ENDBRANCH   6  10
TORSDOF 1
