REMARK  Name = ZINCpk00000y6yIJ.0
REMARK                            x       y       z     vdW  Elec       q    Type
REMARK                         _______ _______ _______ _____ _____    ______ ____
ROOT
ATOM      1  N   LIG    1       -1.022  -2.599   0.882  0.00  0.00    -1.110 NA
ATOM      2  H   LIG    1       -1.500  -2.127   0.182  0.00  0.00    +0.420 HD
ENDROOT
BRANCH   1   3
ATOM      3  C   LIG    1        0.228  -2.050   1.413  0.00  0.00    +0.240 C 
ATOM      4  C   LIG    1        1.398  -2.476   0.520  0.00  0.00    +0.010 C 
ATOM      5  C   LIG    1        1.204  -1.884  -0.878  0.00  0.00    +0.210 C 
ATOM      6  O   LIG    1        1.106  -0.461  -0.782  0.00  0.00    -0.360 OA
ATOM      7  C   LIG    1        0.002  -0.004   0.002  0.00  0.00    +0.240 C 
ATOM      8  C   LIG    1        0.148  -0.521   1.436  0.00  0.00    +0.030 C 
BRANCH   7   9
ATOM      9  C   LIG    1       -0.018   1.503   0.010  0.00  0.00    -0.040 A 
ATOM     10  C   LIG    1        1.052   2.320   0.004  0.00  0.00    +0.180 A 
ATOM     11  N   LIG    1        0.608   3.586   0.015  0.00  0.00    -0.490 NA
ATOM     12  C   LIG    1       -0.697   3.583   0.027  0.00  0.00    +0.400 A 
ATOM     13  N   LIG    1       -1.128   2.304   0.019  0.00  0.00    -0.460 N 
ATOM     14  C   LIG    1       -2.523   1.856   0.022  0.00  0.00    +0.320 C 
ENDBRANCH   7   9
ENDBRANCH   1   3
BRANCH   1  15
ATOM     15  S   LIG    1       -1.618  -4.025   1.476  0.00  0.00    +2.700 S 
ATOM     16  O   LIG    1       -0.534  -4.944   1.477  0.00  0.00    -0.950 OA
ATOM     17  O   LIG    1       -2.840  -4.265   0.790  0.00  0.00    -0.950 OA
BRANCH  15  21
ATOM     18  C   LIG    1       -2.616  -3.352   5.794  0.00  0.00    +0.380 A 
ATOM     19  C   LIG    1       -3.603  -3.115   4.846  0.00  0.00    -0.060 A 
ATOM     20  C   LIG    1       -3.313  -3.317   3.508  0.00  0.00    +0.220 A 
ATOM     21  C   LIG    1       -2.040  -3.751   3.164  0.00  0.00    -0.780 A 
ATOM     22  C   LIG    1       -1.110  -3.972   4.161  0.00  0.00    +0.430 A 
ATOM     23  N   LIG    1       -1.414  -3.765   5.428  0.00  0.00    -0.550 NA
BRANCH  18  24
ATOM     24  O   LIG    1       -2.887  -3.157   7.109  0.00  0.00    -0.300 OA
BRANCH  24  26
ATOM     25  C   LIG    1       -2.321  -3.145   9.459  0.00  0.00    +0.060 C 
ATOM     26  C   LIG    1       -1.831  -3.418   8.035  0.00  0.00    +0.200 C 
ENDBRANCH  24  26
ENDBRANCH  18  24
ENDBRANCH  15  21
ENDBRANCH   1  15
TORSDOF 6
