REMARK  Name = ZINCkj000005lone.1
REMARK                            x       y       z     vdW  Elec       q    Type
REMARK                         _______ _______ _______ _____ _____    ______ ____
ROOT
ATOM      1  C   LIG    1        1.443  -4.628  -2.864  0.00  0.00    -0.010 C 
ATOM      2  C   LIG    1        0.157  -4.239  -3.599  0.00  0.00    +0.050 C 
ATOM      3  C   LIG    1       -0.026  -2.721  -3.519  0.00  0.00    +0.060 C 
ATOM      4  C   LIG    1       -0.046  -2.292  -2.050  0.00  0.00    +0.250 C 
ATOM      5  N   LIG    1        1.220  -2.668  -1.409  0.00  0.00    -0.380 N 
ATOM      6  H   LIG    1        1.988  -2.251  -1.914  0.00  0.00    +0.420 HD
ATOM      7  C   LIG    1        1.369  -4.129  -1.419  0.00  0.00    +0.280 C 
ENDROOT
BRANCH   1   8
ATOM      8  C   LIG    1        1.595  -6.150  -2.871  0.00  0.00    +0.290 C 
BRANCH   8   9
ATOM      9  N   LIG    1        1.781  -6.616  -4.247  0.00  0.00    -1.130 NA
ATOM     10  H   LIG    1        1.578  -6.027  -4.990  0.00  0.00    +0.420 HD
BRANCH   9  11
ATOM     11  S   LIG    1        2.337  -8.149  -4.535  0.00  0.00    +2.800 S 
ATOM     12  O   LIG    1        3.476  -8.325  -3.704  0.00  0.00    -0.970 OA
ATOM     13  O   LIG    1        2.374  -8.304  -5.947  0.00  0.00    -0.970 OA
BRANCH  11  14
ATOM     14  N   LIG    1        1.186  -9.201  -3.979  0.00  0.00    -1.260 NA
ATOM     15  H   LIG    1        0.621  -8.951  -3.231  0.00  0.00    +0.410 HD
ATOM     16  H   LIG    1        1.076 -10.067  -4.401  0.00  0.00    +0.430 HD
ENDBRANCH  11  14
ENDBRANCH   9  11
ENDBRANCH   8   9
ENDBRANCH   1   8
BRANCH   5  17
ATOM     17  C   LIG    1        1.228  -2.186  -0.022  0.00  0.00    +0.330 C 
BRANCH  17  18
ATOM     18  C   LIG    1        1.208  -0.679  -0.014  0.00  0.00    -0.150 A 
ATOM     19  C   LIG    1        0.002  -0.004   0.002  0.00  0.00    +0.050 A 
ATOM     20  C   LIG    1       -0.017   1.378   0.010  0.00  0.00    +0.050 A 
ATOM     21  C   LIG    1        1.170   2.086   0.002  0.00  0.00    +0.070 A 
ATOM     22  C   LIG    1        2.378   1.410  -0.013  0.00  0.00    -0.030 A 
ATOM     23 CL   LIG    1        3.870   2.298  -0.023  0.00  0.00    -0.040 Cl
ATOM     24  C   LIG    1        2.396   0.027  -0.021  0.00  0.00    +0.050 A 
ENDBRANCH  17  18
ENDBRANCH   5  17
TORSDOF 6
