REMARK  Name = ZINCkj000005lone.0
REMARK                            x       y       z     vdW  Elec       q    Type
REMARK                         _______ _______ _______ _____ _____    ______ ____
ROOT
ATOM      1  C   LIG    1        2.079  -0.029  -1.297  0.00  0.00    -0.010 C 
ATOM      2  C   LIG    1        2.130   1.502  -1.262  0.00  0.00    +0.050 C 
ATOM      3  C   LIG    1        1.416   1.997  -0.001  0.00  0.00    +0.060 C 
ATOM      4  C   LIG    1       -0.018   1.464   0.010  0.00  0.00    +0.250 C 
ATOM      5  N   LIG    1        0.002  -0.004   0.002  0.00  0.00    -0.380 N 
ATOM      6  H   LIG    1       -0.943  -0.353   0.063  0.00  0.00    +0.430 HD
ATOM      7  C   LIG    1        0.621  -0.487  -1.238  0.00  0.00    +0.280 C 
ENDROOT
BRANCH   1   8
ATOM      8  C   LIG    1        2.721  -0.531  -2.592  0.00  0.00    +0.300 C 
BRANCH   8   9
ATOM      9  N   LIG    1        4.147  -0.195  -2.593  0.00  0.00    -1.130 NA
ATOM     10  H   LIG    1        4.493   0.454  -1.961  0.00  0.00    +0.420 HD
BRANCH   9  11
ATOM     11  S   LIG    1        5.169  -0.924  -3.673  0.00  0.00    +2.800 S 
ATOM     12  O   LIG    1        4.900  -2.318  -3.601  0.00  0.00    -0.980 OA
ATOM     13  O   LIG    1        6.457  -0.368  -3.445  0.00  0.00    -0.970 OA
BRANCH  11  14
ATOM     14  N   LIG    1        4.710  -0.437  -5.188  0.00  0.00    -1.260 NA
ATOM     15  H   LIG    1        5.191  -0.758  -5.967  0.00  0.00    +0.430 HD
ATOM     16  H   LIG    1        3.961   0.169  -5.296  0.00  0.00    +0.410 HD
ENDBRANCH  11  14
ENDBRANCH   9  11
ENDBRANCH   8   9
ENDBRANCH   1   8
BRANCH   5  17
ATOM     17  C   LIG    1        0.775  -0.488   1.154  0.00  0.00    +0.310 C 
BRANCH  17  18
ATOM     18  C   LIG    1        0.069  -0.105   2.429  0.00  0.00    -0.150 A 
ATOM     19  C   LIG    1       -0.862  -0.961   2.987  0.00  0.00    +0.050 A 
ATOM     20  C   LIG    1       -1.510  -0.611   4.157  0.00  0.00    +0.050 A 
ATOM     21  C   LIG    1       -1.227   0.596   4.769  0.00  0.00    +0.070 A 
ATOM     22  C   LIG    1       -0.295   1.453   4.211  0.00  0.00    -0.030 A 
ATOM     23 CL   LIG    1        0.060   2.969   4.979  0.00  0.00    -0.040 Cl
ATOM     24  C   LIG    1        0.357   1.099   3.043  0.00  0.00    +0.050 A 
ENDBRANCH  17  18
ENDBRANCH   5  17
TORSDOF 6
