REMARK  Name = ZINCvU00000005R7.0
REMARK                            x       y       z     vdW  Elec       q    Type
REMARK                         _______ _______ _______ _____ _____    ______ ____
ROOT
ATOM      1  C   LIG    1        5.615  -1.625  -0.685  0.00  0.00    +0.270 A 
ATOM      2  N   LIG    1        5.571  -1.609   0.628  0.00  0.00    -0.260 NA
ATOM      3  N   LIG    1        4.431  -1.150   1.008  0.00  0.00    -0.240 NA
ATOM      4  C   LIG    1        3.705  -0.866  -0.035  0.00  0.00    +0.160 A 
ATOM      5  O   LIG    1        4.432  -1.155  -1.129  0.00  0.00    -0.210 OA
ENDROOT
BRANCH   1   8
ATOM      6  C   LIG    1        5.777  -1.705  -3.870  0.00  0.00    +0.210 C 
ATOM      7  C   LIG    1        6.839  -2.119  -2.883  0.00  0.00    +0.040 A 
ATOM      8  C   LIG    1        6.748  -2.076  -1.518  0.00  0.00    -0.160 A 
ATOM      9  C   LIG    1        8.059  -2.598  -1.083  0.00  0.00    +0.120 A 
ATOM     10  N   LIG    1        8.709  -2.857  -2.191  0.00  0.00    -0.340 NA
ATOM     11  O   LIG    1        8.055  -2.596  -3.171  0.00  0.00    +0.110 OA
BRANCH   9  12
ATOM     12  C   LIG    1        8.537  -2.789   0.308  0.00  0.00    -0.040 A 
ATOM     13  C   LIG    1        8.162  -1.891   1.305  0.00  0.00    +0.070 A 
ATOM     14  C   LIG    1        8.605  -2.077   2.599  0.00  0.00    +0.010 A 
ATOM     15  C   LIG    1        9.429  -3.145   2.904  0.00  0.00    +0.030 A 
ATOM     16  C   LIG    1        9.809  -4.036   1.917  0.00  0.00    +0.000 A 
ATOM     17  C   LIG    1        9.367  -3.864   0.621  0.00  0.00    +0.050 A 
ENDBRANCH   9  12
ENDBRANCH   1   8
BRANCH   4  18
ATOM     18  C   LIG    1        2.305  -0.308  -0.020  0.00  0.00    +0.390 C 
BRANCH  18  19
ATOM     19  O   LIG    1        2.361   1.120  -0.014  0.00  0.00    -0.290 OA
BRANCH  19  20
ATOM     20  C   LIG    1        1.178   1.783   0.000  0.00  0.00    +0.190 A 
ATOM     21  C   LIG    1       -0.013   1.076   0.008  0.00  0.00    -0.050 A 
ATOM     22  C   LIG    1       -1.218   1.748   0.017  0.00  0.00    +0.080 A 
ATOM     23  C   LIG    1       -1.246   3.135   0.030  0.00  0.00    +0.070 A 
ATOM     24  C   LIG    1       -0.068   3.858   0.022  0.00  0.00    -0.040 A 
ATOM     25  C   LIG    1        0.167   5.350   0.028  0.00  0.00    +0.060 C 
ATOM     26  C   LIG    1       -0.433   5.972   1.290  0.00  0.00    +0.050 C 
ATOM     27  C   LIG    1        1.689   5.545   0.015  0.00  0.00    +0.060 C 
ATOM     28  C   LIG    1        2.270   4.152   0.002  0.00  0.00    +0.410 C 
ATOM     29  O   LIG    1        3.451   3.873  -0.010  0.00  0.00    -0.430 OA
ATOM     30  F   LIG    1       -2.431   3.783   0.044  0.00  0.00    -0.130 F 
ATOM     31  C   LIG    1        1.159   3.192   0.008  0.00  0.00    -0.190 A 
ENDBRANCH  19  20
ENDBRANCH  18  19
ENDBRANCH   4  18
TORSDOF 5
