REMARK  Name = ZINCrH000004kf4R.0
REMARK                            x       y       z     vdW  Elec       q    Type
REMARK                         _______ _______ _______ _____ _____    ______ ____
ROOT
ATOM      1  N   LIG    1        6.559  -2.809  -0.080  0.00  0.00    -1.050 N 
ATOM      2  H   LIG    1        6.271  -3.519  -0.675  0.00  0.00    +0.430 HD
ENDROOT
BRANCH   1   3
ATOM      3  C   LIG    1        5.877  -1.587  -0.065  0.00  0.00    +0.120 A 
ATOM      4  C   LIG    1        4.492  -1.567  -0.050  0.00  0.00    +0.070 A 
ATOM      5  C   LIG    1        3.822  -0.349  -0.037  0.00  0.00    -0.100 A 
ATOM      6  C   LIG    1        4.540   0.855  -0.037  0.00  0.00    +0.080 A 
ATOM      7  O   LIG    1        3.658   1.880  -0.023  0.00  0.00    -0.200 OA
ATOM      8  C   LIG    1        2.382   1.437  -0.013  0.00  0.00    +0.090 A 
ATOM      9  C   LIG    1        1.160   2.100   0.002  0.00  0.00    +0.030 A 
ATOM     10  C   LIG    1       -0.017   1.382   0.010  0.00  0.00    +0.060 A 
ATOM     11  C   LIG    1        0.002  -0.004   0.002  0.00  0.00    -0.010 A 
ATOM     12  C   LIG    1        1.204  -0.680  -0.013  0.00  0.00    +0.070 A 
ATOM     13  C   LIG    1        5.929   0.817  -0.051  0.00  0.00    +0.060 A 
ATOM     14  C   LIG    1        2.397   0.035  -0.021  0.00  0.00    -0.120 A 
ATOM     15  C   LIG    1        6.590  -0.392  -0.065  0.00  0.00    +0.050 A 
ENDBRANCH   1   3
BRANCH   1  16
ATOM     16  S   LIG    1        7.859  -3.044   0.919  0.00  0.00    +2.690 S 
ATOM     17  O   LIG    1        8.698  -1.908   0.759  0.00  0.00    -0.940 OA
ATOM     18  O   LIG    1        8.303  -4.375   0.695  0.00  0.00    -0.940 OA
BRANCH  16  22
ATOM     19  C   LIG    1        6.320  -2.909   5.178  0.00  0.00    -0.080 A 
ATOM     20  C   LIG    1        6.367  -4.121   4.488  0.00  0.00    +0.070 A 
ATOM     21  C   LIG    1        6.837  -4.155   3.192  0.00  0.00    +0.130 A 
ATOM     22  C   LIG    1        7.261  -2.991   2.575  0.00  0.00    -0.660 A 
ATOM     23  C   LIG    1        7.222  -1.787   3.256  0.00  0.00    +0.130 A 
ATOM     24  C   LIG    1        6.749  -1.738   4.551  0.00  0.00    +0.030 A 
BRANCH  19  28
ATOM     25  C   LIG    1        5.276  -1.649   8.610  0.00  0.00    +0.280 C 
ATOM     26  N   LIG    1        5.774  -1.693   7.232  0.00  0.00    -0.730 N 
ATOM     27  H   LIG    1        6.071  -0.878   6.798  0.00  0.00    +0.400 HD
ATOM     28  C   LIG    1        5.818  -2.865   6.569  0.00  0.00    +0.550 C 
ATOM     29  O   LIG    1        5.445  -3.886   7.113  0.00  0.00    -0.520 OA
ENDBRANCH  19  28
ENDBRANCH  16  22
ENDBRANCH   1  16
TORSDOF 4
