REMARK  Name = ZINCrg000000pNQo.0
REMARK                            x       y       z     vdW  Elec       q    Type
REMARK                         _______ _______ _______ _____ _____    ______ ____
ROOT
ATOM      1  C   LIG    1       -1.172   2.354   0.020  0.00  0.00    +0.090 C 
ATOM      2  C   LIG    1       -0.506   3.739   0.030  0.00  0.00    +0.340 C 
ATOM      3  N   LIG    1        0.935   3.473   0.005  0.00  0.00    -0.520 N 
ATOM      4  C   LIG    1        1.168   2.096  -0.013  0.00  0.00    +0.150 A 
ATOM      5  C   LIG    1        2.380   1.403  -0.040  0.00  0.00    +0.010 A 
ATOM      6  C   LIG    1        2.393   0.025  -0.054  0.00  0.00    +0.050 A 
ATOM      7  C   LIG    1        1.205  -0.682  -0.043  0.00  0.00    +0.000 A 
ATOM      8  C   LIG    1        0.000  -0.004  -0.018  0.00  0.00    +0.080 A 
ATOM      9  C   LIG    1        1.895   4.418   0.000  0.00  0.00    +0.520 C 
ATOM     10  O   LIG    1        3.064   4.097   0.072  0.00  0.00    -0.490 OA
ATOM     11  C   LIG    1       -0.018   1.377  -0.002  0.00  0.00    -0.130 A 
ENDROOT
BRANCH   9  12
ATOM     12  C   LIG    1        1.522   5.861  -0.094  0.00  0.00    +0.510 C 
ATOM     13  N   LIG    1        2.483   6.800  -0.201  0.00  0.00    -0.640 N 
ATOM     14  H   LIG    1        3.413   6.535  -0.285  0.00  0.00    +0.430 HD
ATOM     15  O   LIG    1        0.354   6.188  -0.073  0.00  0.00    -0.480 OA
BRANCH  13  16
ATOM     16  C   LIG    1        2.140   8.154  -0.192  0.00  0.00    +0.130 A 
ATOM     17  C   LIG    1        2.986   9.081   0.407  0.00  0.00    +0.030 A 
ATOM     18  C   LIG    1        2.651  10.422   0.418  0.00  0.00    +0.030 A 
ATOM     19  C   LIG    1        1.476  10.850  -0.164  0.00  0.00    +0.040 A 
ATOM     20  C   LIG    1        0.620   9.928  -0.768  0.00  0.00    -0.120 A 
ATOM     21  C   LIG    1        0.960   8.575  -0.785  0.00  0.00    +0.090 A 
BRANCH  20  22
ATOM     22  C   LIG    1       -0.640  10.384  -1.394  0.00  0.00    +0.560 C 
ATOM     23  O   LIG    1       -1.384   9.579  -1.919  0.00  0.00    -0.530 OA
ATOM     24  N   LIG    1       -0.963  11.692  -1.381  0.00  0.00    -0.850 N 
ATOM     25  H   LIG    1       -1.790  11.991  -1.792  0.00  0.00    +0.410 HD
ATOM     26  H   LIG    1       -0.369  12.334  -0.962  0.00  0.00    +0.400 HD
ENDBRANCH  20  22
ENDBRANCH  13  16
ENDBRANCH   9  12
BRANCH   1  27
ATOM     27  C   LIG    1       -1.999   2.162   1.265  0.00  0.00    +0.480 C 
ATOM     28  O   LIG    1       -2.111   3.064   2.061  0.00  0.00    -0.500 OA
BRANCH  27  30
ATOM     29  C   LIG    1       -3.392   0.875   2.708  0.00  0.00    +0.270 C 
ATOM     30  O   LIG    1       -2.612   0.989   1.489  0.00  0.00    -0.350 OA
ENDBRANCH  27  30
ENDBRANCH   1  27
TORSDOF 5
