REMARK  Name = ZINCpe00000bFplS.0
REMARK                            x       y       z     vdW  Elec       q    Type
REMARK                         _______ _______ _______ _____ _____    ______ ____
ROOT
ATOM      1  C   LIG    1        0.635  -0.192   2.001  0.00  0.00    +0.250 C 
ATOM      2  C   LIG    1        2.073   0.325   1.919  0.00  0.00    +0.020 C 
ATOM      3  C   LIG    1        2.107   1.803   2.312  0.00  0.00    +0.000 C 
ATOM      4  C   LIG    1        1.222   2.605   1.356  0.00  0.00    +0.010 C 
ATOM      5  C   LIG    1       -0.216   2.089   1.438  0.00  0.00    +0.020 C 
ATOM      6  C   LIG    1       -0.251   0.610   1.046  0.00  0.00    -0.060 C 
ATOM      7  C   LIG    1        0.267   0.450  -0.386  0.00  0.00    +0.030 C 
ATOM      8  C   LIG    1       -0.603   1.278  -1.336  0.00  0.00    +0.270 C 
ATOM      9  N   LIG    1       -2.007   0.887  -1.156  0.00  0.00    -0.600 N 
ATOM     10  C   LIG    1       -2.581   0.919   0.197  0.00  0.00    +0.270 C 
ATOM     11  C   LIG    1       -2.755   0.505  -2.210  0.00  0.00    +0.520 C 
ATOM     12  O   LIG    1       -2.300   0.573  -3.332  0.00  0.00    -0.530 OA
ATOM     13  C   LIG    1       -1.690   0.094   1.130  0.00  0.00    +0.020 C 
ENDROOT
BRANCH   1  15
ATOM     14  C   LIG    1        0.397  -0.991   4.290  0.00  0.00    +0.510 C 
ATOM     15  N   LIG    1        0.139  -0.040   3.371  0.00  0.00    -0.720 N 
ATOM     16  H   LIG    1       -0.375   0.746   3.616  0.00  0.00    +0.400 HD
ATOM     17  O   LIG    1        1.040  -1.972   3.984  0.00  0.00    -0.510 OA
BRANCH  14  18
ATOM     18  C   LIG    1       -0.114  -0.834   5.700  0.00  0.00    +0.200 C 
BRANCH  18  20
ATOM     19  C   LIG    1       -0.149  -1.914   7.839  0.00  0.00    +0.200 C 
ATOM     20  O   LIG    1        0.286  -1.963   6.479  0.00  0.00    -0.370 OA
ENDBRANCH  18  20
ENDBRANCH  14  18
ENDBRANCH   1  15
BRANCH  11  21
ATOM     21  C   LIG    1       -4.157  -0.005  -1.994  0.00  0.00    +0.230 C 
ATOM     22  C   LIG    1       -5.117   1.180  -1.871  0.00  0.00    +0.060 C 
BRANCH  21  23
ATOM     23  N   LIG    1       -4.553  -0.839  -3.132  0.00  0.00    -0.720 N 
ATOM     24  H   LIG    1       -4.136  -0.708  -3.997  0.00  0.00    +0.410 HD
ATOM     25  C   LIG    1       -5.498  -1.787  -2.975  0.00  0.00    +0.520 C 
ATOM     26  O   LIG    1       -6.020  -1.950  -1.892  0.00  0.00    -0.550 OA
ATOM     27  C   LIG    1       -5.906  -2.645  -4.145  0.00  0.00    +0.110 C 
ENDBRANCH  21  23
ENDBRANCH  11  21
TORSDOF 5
