REMARK  Name = ZINCpk00000KfLF4.0
REMARK                            x       y       z     vdW  Elec       q    Type
REMARK                         _______ _______ _______ _____ _____    ______ ____
ROOT
ATOM      1  N   LIG    1       -2.512   3.777   2.668  0.00  0.00    -0.520 NA
ATOM      2  C   LIG    1       -1.211   4.453   2.563  0.00  0.00    +0.180 C 
ATOM      3  C   LIG    1       -0.469   3.935   1.328  0.00  0.00    +0.190 C 
ATOM      4  N   LIG    1       -0.296   2.480   1.438  0.00  0.00    -0.530 NA
ATOM      5  C   LIG    1       -1.596   1.804   1.544  0.00  0.00    +0.190 C 
ATOM      6  C   LIG    1       -2.339   2.322   2.778  0.00  0.00    +0.200 C 
ENDROOT
BRANCH   1   7
ATOM      7  C   LIG    1       -3.288   4.302   3.800  0.00  0.00    +0.250 C 
ATOM      8  C   LIG    1       -4.673   3.653   3.813  0.00  0.00    +0.080 C 
BRANCH   7  13
ATOM      9  C   LIG    1       -3.385   9.245   4.755  0.00  0.00    +0.240 C 
ATOM     10  C   LIG    1       -3.476   7.907   4.067  0.00  0.00    +0.160 A 
ATOM     11  N   LIG    1       -3.800   7.701   2.822  0.00  0.00    -0.290 NA
ATOM     12  N   LIG    1       -3.775   6.438   2.578  0.00  0.00    -0.260 NA
ATOM     13  C   LIG    1       -3.434   5.795   3.659  0.00  0.00    +0.160 A 
ATOM     14  O   LIG    1       -3.242   6.708   4.626  0.00  0.00    -0.230 OA
ENDBRANCH   7  13
ENDBRANCH   1   7
BRANCH   4  15
ATOM     15  C   LIG    1        0.480   1.955   0.307  0.00  0.00    +0.160 C 
BRANCH  15  16
ATOM     16  C   LIG    1        1.958   2.303   0.497  0.00  0.00    +0.230 C 
BRANCH  16  17
ATOM     17  O   LIG    1        2.452   1.659   1.673  0.00  0.00    -0.540 OA
ATOM     18  H   LIG    1        2.386   0.694   1.649  0.00  0.00    +0.370 HD
ENDBRANCH  16  17
BRANCH  16  19
ATOM     19  C   LIG    1        2.755   1.826  -0.719  0.00  0.00    +0.170 C 
BRANCH  19  20
ATOM     20  O   LIG    1        4.113   2.252  -0.596  0.00  0.00    -0.300 OA
BRANCH  20  21
ATOM     21  C   LIG    1        4.961   1.908  -1.601  0.00  0.00    +0.130 A 
ATOM     22  C   LIG    1        4.497   1.170  -2.679  0.00  0.00    -0.080 A 
ATOM     23  C   LIG    1        5.360   0.826  -3.702  0.00  0.00    +0.040 A 
ATOM     24  C   LIG    1        6.688   1.207  -3.645  0.00  0.00    -0.040 A 
ATOM     25  C   LIG    1        7.154   1.938  -2.568  0.00  0.00    +0.050 A 
ATOM     26  C   LIG    1        6.294   2.289  -1.546  0.00  0.00    -0.020 A 
ENDBRANCH  20  21
ENDBRANCH  19  20
ENDBRANCH  16  19
ENDBRANCH  15  16
ENDBRANCH   4  15
TORSDOF 8
