REMARK  Name = ZINCqH0000000psS.0
REMARK                            x       y       z     vdW  Elec       q    Type
REMARK                         _______ _______ _______ _____ _____    ______ ____
ROOT
ATOM      1  C   LIG    1       -2.785   4.149  -0.081  0.00  0.00    +0.520 C 
ATOM      2  N   LIG    1       -3.108   5.388  -0.501  0.00  0.00    -0.670 N 
ATOM      3  H   LIG    1       -2.506   5.874  -1.087  0.00  0.00    +0.410 HD
ATOM      4  O   LIG    1       -3.579   3.503   0.569  0.00  0.00    -0.480 OA
ENDROOT
BRANCH   1   9
ATOM      5  C   LIG    1        1.916   5.986  -0.485  0.00  0.00    +0.120 C 
ATOM      6  C   LIG    1        2.037   4.488  -0.363  0.00  0.00    +0.520 C 
ATOM      7  N   LIG    1        0.955   3.749  -0.049  0.00  0.00    -0.560 N 
ATOM      8  C   LIG    1       -0.336   4.383   0.270  0.00  0.00    +0.290 C 
ATOM      9  C   LIG    1       -1.437   3.566  -0.419  0.00  0.00    +0.170 C 
ATOM     10  O   LIG    1       -1.369   2.216   0.046  0.00  0.00    -0.280 OA
ATOM     11  C   LIG    1       -0.157   1.601   0.028  0.00  0.00    +0.090 A 
ATOM     12  C   LIG    1       -0.089   0.216   0.055  0.00  0.00    +0.020 A 
ATOM     13  C   LIG    1        1.139  -0.417   0.045  0.00  0.00    +0.030 A 
ATOM     14  C   LIG    1        2.306   0.324   0.008  0.00  0.00    +0.000 A 
ATOM     15  C   LIG    1        2.248   1.705  -0.021  0.00  0.00    +0.050 A 
ATOM     16  C   LIG    1        1.019   2.345  -0.012  0.00  0.00    +0.070 A 
ATOM     17  O   LIG    1        3.107   3.949  -0.549  0.00  0.00    -0.510 OA
ENDBRANCH   1   9
BRANCH   2  18
ATOM     18  C   LIG    1       -4.312   5.973  -0.094  0.00  0.00    +0.140 A 
ATOM     19  C   LIG    1       -5.005   6.812  -0.957  0.00  0.00    -0.010 A 
ATOM     20  C   LIG    1       -6.195   7.385  -0.552  0.00  0.00    +0.030 A 
ATOM     21  C   LIG    1       -6.691   7.132   0.714  0.00  0.00    -0.080 A 
ATOM     22  C   LIG    1       -6.000   6.302   1.577  0.00  0.00    +0.040 A 
ATOM     23  C   LIG    1       -4.812   5.722   1.177  0.00  0.00    +0.020 A 
BRANCH  21  24
ATOM     24  C   LIG    1       -7.987   7.763   1.153  0.00  0.00    -0.030 C 
ATOM     25  C   LIG    1       -8.996   6.667   1.500  0.00  0.00    +0.040 C 
ATOM     26  C   LIG    1       -8.543   8.629   0.021  0.00  0.00    +0.030 C 
ATOM     27  C   LIG    1       -7.738   8.635   2.386  0.00  0.00    +0.040 C 
ENDBRANCH  21  24
ENDBRANCH   2  18
TORSDOF 3
