REMARK  Name = ZINCkj00000y7Nla.1
REMARK                            x       y       z     vdW  Elec       q    Type
REMARK                         _______ _______ _______ _____ _____    ______ ____
ROOT
ATOM      1  C   LIG    1       -2.000  -2.665   1.174  0.00  0.00    +0.080 C 
ATOM      2  C   LIG    1       -3.395  -2.039   1.094  0.00  0.00    +0.060 C 
ATOM      3  C   LIG    1       -3.280  -0.517   1.198  0.00  0.00    +0.040 C 
ATOM      4  C   LIG    1       -2.446   0.009   0.025  0.00  0.00    +0.280 C 
ATOM      5  N   LIG    1       -1.156  -0.694   0.009  0.00  0.00    -0.600 N 
ATOM      6  C   LIG    1        0.002  -0.004   0.002  0.00  0.00    +0.660 C 
ATOM      7  O   LIG    1        1.062  -0.597  -0.011  0.00  0.00    -0.560 OA
ATOM      8  C   LIG    1       -1.152  -2.163  -0.005  0.00  0.00    +0.340 C 
ENDROOT
BRANCH   1  13
ATOM      9  C   LIG    1       -1.067  -7.611   1.683  0.00  0.00    +0.430 C 
ATOM     10  N   LIG    1       -1.698  -6.336   1.333  0.00  0.00    -0.400 NA
ATOM     11  N   LIG    1       -1.212  -5.046   1.608  0.00  0.00    -0.460 N 
ATOM     12  H   LIG    1       -0.388  -4.826   2.070  0.00  0.00    +0.470 HD
ATOM     13  C   LIG    1       -2.118  -4.166   1.104  0.00  0.00    +0.450 C 
ATOM     14  N   LIG    1       -3.104  -4.817   0.557  0.00  0.00    -0.520 NA
ATOM     15  C   LIG    1       -2.895  -6.154   0.664  0.00  0.00    +0.630 C 
BRANCH  15  16
ATOM     16  N   LIG    1       -3.684  -7.098   0.221  0.00  0.00    -0.730 NA
ATOM     17  H   LIG    1       -4.506  -6.867  -0.238  0.00  0.00    +0.460 HD
ATOM     18  H   LIG    1       -3.446  -8.030   0.351  0.00  0.00    +0.440 HD
ENDBRANCH  15  16
ENDBRANCH   1  13
BRANCH   6  19
ATOM     19  O   LIG    1       -0.016   1.342   0.009  0.00  0.00    -0.360 OA
BRANCH  19  20
ATOM     20  C   LIG    1        1.268   2.019   0.001  0.00  0.00    +0.140 C 
ATOM     21  C   LIG    1        2.068   1.612   1.240  0.00  0.00    +0.040 C 
ATOM     22  C   LIG    1        1.047   3.533   0.011  0.00  0.00    +0.090 C 
ATOM     23  C   LIG    1        2.044   1.625  -1.258  0.00  0.00    +0.030 C 
ENDBRANCH  19  20
ENDBRANCH   6  19
TORSDOF 4
