REMARK  Name = ZINCqH0000038bHl.0
REMARK                            x       y       z     vdW  Elec       q    Type
REMARK                         _______ _______ _______ _____ _____    ______ ____
ROOT
ATOM      1  N   LIG    1        0.016  -0.004  -0.005  0.00  0.00    -0.990 NA
ATOM      2  C   LIG    1        1.419  -0.456  -0.059  0.00  0.00    +0.270 C 
ATOM      3  C   LIG    1        2.237   0.720   0.530  0.00  0.00    +0.040 C 
ATOM      4  C   LIG    1        1.462   1.946  -0.020  0.00  0.00    +0.060 C 
ATOM      5  C   LIG    1       -0.005   1.467   0.003  0.00  0.00    +0.260 C 
ENDROOT
BRANCH   5   6
ATOM      6  C   LIG    1       -0.730   1.976  -1.216  0.00  0.00    +0.490 C 
ATOM      7  N   LIG    1       -0.869   3.302  -1.413  0.00  0.00    -0.660 N 
ATOM      8  H   LIG    1       -0.574   3.927  -0.732  0.00  0.00    +0.410 HD
ATOM      9  O   LIG    1       -1.188   1.192  -2.020  0.00  0.00    -0.500 OA
BRANCH   7  10
ATOM     10  C   LIG    1       -1.439   3.777  -2.599  0.00  0.00    +0.150 A 
ATOM     11  C   LIG    1       -1.391   3.005  -3.752  0.00  0.00    +0.050 A 
ATOM     12  C   LIG    1       -1.958   3.475  -4.921  0.00  0.00    +0.040 A 
ATOM     13  C   LIG    1       -2.565   4.718  -4.945  0.00  0.00    -0.050 A 
ATOM     14  C   LIG    1       -2.609   5.492  -3.799  0.00  0.00    +0.050 A 
ATOM     15 CL   LIG    1       -3.272   5.309  -6.417  0.00  0.00    -0.070 Cl
ATOM     16  C   LIG    1       -2.048   5.025  -2.627  0.00  0.00    -0.100 A 
ATOM     17  C   LIG    1       -2.097   5.868  -1.379  0.00  0.00    +0.110 C 
ENDBRANCH   7  10
ENDBRANCH   5   6
BRANCH   1  18
ATOM     18  S   LIG    1       -1.314  -0.988   0.037  0.00  0.00    +2.710 S 
ATOM     19  O   LIG    1       -2.360  -0.225   0.623  0.00  0.00    -0.960 OA
ATOM     20  O   LIG    1       -0.875  -2.234   0.559  0.00  0.00    -0.950 OA
BRANCH  18  25
ATOM     21  C   LIG    1       -2.955  -2.021  -5.677  0.00  0.00    +0.100 C 
ATOM     22  C   LIG    1       -2.545  -1.763  -4.250  0.00  0.00    -0.030 A 
ATOM     23  C   LIG    1       -1.646  -2.607  -3.626  0.00  0.00    -0.020 A 
ATOM     24  C   LIG    1       -1.270  -2.370  -2.317  0.00  0.00    +0.110 A 
ATOM     25  C   LIG    1       -1.793  -1.290  -1.632  0.00  0.00    -0.670 A 
ATOM     26  C   LIG    1       -2.697  -0.448  -2.255  0.00  0.00    +0.180 A 
ATOM     27  C   LIG    1       -3.069  -0.682  -3.565  0.00  0.00    -0.030 A 
ENDBRANCH  18  25
ENDBRANCH   1  18
TORSDOF 4
