REMARK  Name = ZINCtV00000vFyZ9.0
REMARK                            x       y       z     vdW  Elec       q    Type
REMARK                         _______ _______ _______ _____ _____    ______ ____
ROOT
ATOM      1  C   LIG    1        1.243  -4.793  -0.865  0.00  0.00    +0.250 C 
ATOM      2  C   LIG    1        0.486  -5.922  -1.586  0.00  0.00    +0.020 C 
ATOM      3  C   LIG    1       -0.931  -5.961  -0.977  0.00  0.00    +0.020 C 
ATOM      4  C   LIG    1       -1.139  -4.536  -0.407  0.00  0.00    +0.030 C 
ATOM      5  C   LIG    1        0.260  -4.186   0.158  0.00  0.00    +0.040 C 
ENDROOT
BRANCH   5   6
ATOM      6  C   LIG    1        0.438  -2.692   0.237  0.00  0.00    -0.030 A 
ATOM      7  C   LIG    1       -0.589  -1.852  -0.153  0.00  0.00    +0.020 A 
ATOM      8  C   LIG    1       -0.426  -0.481  -0.080  0.00  0.00    +0.070 A 
ATOM      9  C   LIG    1        0.763   0.050   0.385  0.00  0.00    -0.180 A 
ATOM     10  C   LIG    1        1.791  -0.790   0.771  0.00  0.00    +0.070 A 
ATOM     11  C   LIG    1        1.627  -2.161   0.701  0.00  0.00    +0.010 A 
BRANCH   9  12
ATOM     12  C   LIG    1        0.940   1.544   0.466  0.00  0.00    +0.510 C 
ATOM     13  F   LIG    1        0.177   2.159  -0.532  0.00  0.00    -0.180 F 
ATOM     14  F   LIG    1        2.290   1.864   0.284  0.00  0.00    -0.180 F 
ATOM     15  F   LIG    1        0.518   1.997   1.721  0.00  0.00    -0.180 F 
ENDBRANCH   9  12
ENDBRANCH   5   6
BRANCH   1  17
ATOM     16  C   LIG    1        0.681  -3.201  -2.759  0.00  0.00    +0.330 C 
ATOM     17  N   LIG    1        1.659  -3.771  -1.829  0.00  0.00    -0.550 N 
BRANCH  17  18
ATOM     18  C   LIG    1        2.966  -3.348  -1.861  0.00  0.00    +0.440 A 
ATOM     19  N   LIG    1        3.479  -2.445  -2.674  0.00  0.00    -0.530 NA
ATOM     20  C   LIG    1        4.785  -2.358  -2.339  0.00  0.00    +0.240 A 
ATOM     21  N   LIG    1        4.992  -3.204  -1.362  0.00  0.00    -0.390 NA
ATOM     22  O   LIG    1        3.964  -3.779  -1.076  0.00  0.00    +0.040 OA
BRANCH  20  23
ATOM     23  C   LIG    1        5.798  -1.473  -2.965  0.00  0.00    -0.020 A 
ATOM     24  C   LIG    1        5.433  -0.622  -4.007  0.00  0.00    +0.080 A 
ATOM     25  C   LIG    1        6.377   0.203  -4.584  0.00  0.00    +0.030 A 
ATOM     26  C   LIG    1        7.687   0.178  -4.136  0.00  0.00    -0.020 A 
ATOM     27  C   LIG    1        8.055  -0.668  -3.104  0.00  0.00    +0.030 A 
ATOM     28 CL   LIG    1        8.872   1.213  -4.870  0.00  0.00    -0.060 Cl
ATOM     29  C   LIG    1        7.117  -1.493  -2.518  0.00  0.00    +0.070 A 
ENDBRANCH  20  23
ENDBRANCH  17  18
ENDBRANCH   1  17
TORSDOF 5
