REMARK  Name = ZINCpe000000SyRC.0
REMARK                            x       y       z     vdW  Elec       q    Type
REMARK                         _______ _______ _______ _____ _____    ______ ____
ROOT
ATOM      1  C   LIG    1        2.898   4.512   1.436  0.00  0.00    +0.060 C 
ENDROOT
BRANCH   1  10
ATOM      2  C   LIG    1        6.388   4.499   6.747  0.00  0.00    +0.100 C 
ATOM      3  C   LIG    1        7.127   4.456   5.434  0.00  0.00    +0.510 C 
ATOM      4  N   LIG    1        6.462   4.176   4.295  0.00  0.00    -0.600 N 
ATOM      5  C   LIG    1        7.127   4.127   3.040  0.00  0.00    +0.250 C 
ATOM      6  C   LIG    1        7.306   5.515   2.344  0.00  0.00    +0.010 C 
ATOM      7  C   LIG    1        6.011   6.338   2.616  0.00  0.00    +0.250 C 
ATOM      8  N   LIG    1        4.806   5.586   2.587  0.00  0.00    -0.600 N 
ATOM      9  C   LIG    1        4.279   5.104   3.890  0.00  0.00    +0.270 C 
ATOM     10  C   LIG    1        4.171   5.318   1.429  0.00  0.00    +0.520 C 
ATOM     11  O   LIG    1        4.625   5.725   0.380  0.00  0.00    -0.530 OA
ATOM     12  C   LIG    1        5.001   3.904   4.297  0.00  0.00    +0.260 C 
ATOM     13  O   LIG    1        8.319   4.673   5.401  0.00  0.00    -0.530 OA
ENDBRANCH   1  10
BRANCH   1  14
ATOM     14  C   LIG    1        2.387   4.353   0.003  0.00  0.00    +0.130 C 
BRANCH  14  15
ATOM     15  C   LIG    1        1.113   3.547   0.010  0.00  0.00    -0.210 A 
ATOM     16  C   LIG    1       -0.087   4.178   0.024  0.00  0.00    +0.210 A 
ATOM     17  N   LIG    1       -1.248   3.480   0.032  0.00  0.00    -0.600 N 
ATOM     18  H   LIG    1       -2.093   3.957   0.042  0.00  0.00    +0.420 HD
ATOM     19  C   LIG    1       -1.249   2.133   0.019  0.00  0.00    +0.540 A 
ATOM     20  C   LIG    1       -0.017   1.428   0.010  0.00  0.00    -0.180 A 
ATOM     21  O   LIG    1       -2.304   1.522   0.021  0.00  0.00    -0.530 OA
ATOM     22  C   LIG    1       -0.131   5.685   0.032  0.00  0.00    +0.150 C 
ATOM     23  C   LIG    1        1.172   2.153   0.002  0.00  0.00    +0.100 A 
ATOM     24  C   LIG    1        2.501   1.442  -0.014  0.00  0.00    +0.120 C 
BRANCH  20  25
ATOM     25  C   LIG    1        0.002  -0.004   0.002  0.00  0.00    +0.280 C 
ATOM     26  N   LIG    1        0.018  -1.140  -0.004  0.00  0.00    -0.410 NA
ENDBRANCH  20  25
ENDBRANCH  14  15
ENDBRANCH   1  14
TORSDOF 4
