REMARK  Name = ZINCpk000000oFfV.0
REMARK                            x       y       z     vdW  Elec       q    Type
REMARK                         _______ _______ _______ _____ _____    ______ ____
ROOT
ATOM      1  N   LIG    1        4.333   5.161  -2.909  0.00  0.00    -0.630 N 
ATOM      2  C   LIG    1        3.962   4.918  -1.636  0.00  0.00    +0.710 C 
ATOM      3  N   LIG    1        2.838   4.219  -1.383  0.00  0.00    -0.740 N 
ATOM      4  H   LIG    1        2.296   3.891  -2.118  0.00  0.00    +0.400 HD
ATOM      5  O   LIG    1        4.642   5.330  -0.716  0.00  0.00    -0.580 OA
ENDROOT
BRANCH   1   7
ATOM      6  C   LIG    1        2.469   5.719  -4.391  0.00  0.00    +0.020 C 
ATOM      7  C   LIG    1        3.514   4.665  -4.018  0.00  0.00    +0.250 C 
ENDBRANCH   1   7
BRANCH   3   8
ATOM      8  C   LIG    1        2.435   3.955   0.000  0.00  0.00    +0.340 C 
BRANCH   8   9
ATOM      9  C   LIG    1        1.154   3.162   0.008  0.00  0.00    -0.040 A 
ATOM     10  C   LIG    1        1.179   1.774   0.000  0.00  0.00    -0.040 A 
ATOM     11  C   LIG    1       -0.013   1.076   0.008  0.00  0.00    +0.290 A 
ATOM     12  N   LIG    1       -1.169   1.711   0.017  0.00  0.00    -0.510 NA
ATOM     13  C   LIG    1       -1.234   3.034   0.029  0.00  0.00    +0.310 A 
ATOM     14  C   LIG    1       -0.073   3.800   0.022  0.00  0.00    -0.030 A 
BRANCH  13  15
ATOM     15  N   LIG    1       -2.474   3.662   0.044  0.00  0.00    -0.480 N 
ATOM     16  C   LIG    1       -2.590   4.573   1.192  0.00  0.00    +0.180 C 
ATOM     17  C   LIG    1       -3.943   5.286   1.137  0.00  0.00    +0.230 C 
ATOM     18  O   LIG    1       -4.989   4.312   1.111  0.00  0.00    -0.380 OA
ATOM     19  C   LIG    1       -4.908   3.409   0.005  0.00  0.00    +0.230 C 
ATOM     20  C   LIG    1       -3.564   2.676   0.049  0.00  0.00    +0.190 C 
ENDBRANCH  13  15
ENDBRANCH   8   9
ENDBRANCH   3   8
BRANCH   1  21
ATOM     21  C   LIG    1        5.555   5.921  -3.184  0.00  0.00    +0.310 C 
BRANCH  21  22
ATOM     22  C   LIG    1        6.740   4.959  -3.293  0.00  0.00    -0.050 C 
ATOM     23  C   LIG    1        8.069   5.736  -3.459  0.00  0.00    +0.010 C 
ATOM     24  C   LIG    1        8.851   4.926  -4.511  0.00  0.00    +0.190 C 
ATOM     25  O   LIG    1        8.049   3.783  -4.853  0.00  0.00    -0.380 OA
ATOM     26  C   LIG    1        6.673   4.145  -4.610  0.00  0.00    +0.200 C 
ENDBRANCH  21  22
ENDBRANCH   1  21
TORSDOF 6
