REMARK  Name = ZINCrg00001JduTH.0
REMARK                            x       y       z     vdW  Elec       q    Type
REMARK                         _______ _______ _______ _____ _____    ______ ____
ROOT
ATOM      1  C   LIG    1       -0.172  -0.677  -7.359  0.00  0.00    +0.240 C 
ATOM      2  C   LIG    1        0.203  -1.235  -8.748  0.00  0.00    +0.200 C 
ATOM      3  C   LIG    1       -0.310  -0.132  -9.713  0.00  0.00    +0.140 C 
ATOM      4  C   LIG    1       -0.039   1.154  -8.893  0.00  0.00    +0.240 C 
ATOM      5  N   LIG    1       -0.326   0.778  -7.497  0.00  0.00    -0.600 N 
ATOM      6  C   LIG    1       -0.672   1.628  -6.510  0.00  0.00    +0.620 C 
ATOM      7  O   LIG    1       -0.901   1.203  -5.393  0.00  0.00    -0.540 OA
ENDROOT
BRANCH   6   8
ATOM      8  C   LIG    1       -0.773   3.072  -6.783  0.00  0.00    -0.240 A 
ATOM      9  C   LIG    1       -1.247   4.037  -5.938  0.00  0.00    +0.110 A 
ATOM     10  N   LIG    1       -1.171   5.226  -6.566  0.00  0.00    -0.440 N 
ATOM     11  C   LIG    1       -0.651   5.068  -7.818  0.00  0.00    +0.160 A 
ATOM     12  C   LIG    1       -1.586   6.506  -5.987  0.00  0.00    +0.320 C 
ATOM     13  C   LIG    1       -1.767   3.809  -4.542  0.00  0.00    +0.150 C 
ATOM     14  C   LIG    1       -0.378   3.766  -8.014  0.00  0.00    -0.030 A 
ENDBRANCH   6   8
BRANCH   3  15
ATOM     15  O   LIG    1       -1.707  -0.289  -9.971  0.00  0.00    -0.540 OA
ATOM     16  H   LIG    1       -2.095   0.429 -10.490  0.00  0.00    +0.380 HD
ENDBRANCH   3  15
BRANCH   2  17
ATOM     17  O   LIG    1       -0.463  -2.475  -8.992  0.00  0.00    -0.540 OA
ATOM     18  H   LIG    1       -0.261  -2.868  -9.852  0.00  0.00    +0.390 HD
ENDBRANCH   2  17
BRANCH   1  19
ATOM     19  C   LIG    1        0.939  -0.990  -6.354  0.00  0.00    +0.250 C 
BRANCH  19  21
ATOM     20  C   LIG    1        1.284  -0.859  -3.946  0.00  0.00    +0.520 C 
ATOM     21  N   LIG    1        0.438  -0.788  -4.993  0.00  0.00    -0.710 N 
ATOM     22  H   LIG    1       -0.502  -0.603  -4.845  0.00  0.00    +0.410 HD
ATOM     23  O   LIG    1        2.460  -1.090  -4.131  0.00  0.00    -0.550 OA
BRANCH  20  24
ATOM     24  C   LIG    1        0.768  -0.650  -2.545  0.00  0.00    +0.050 C 
BRANCH  24  25
ATOM     25  C   LIG    1        1.887  -0.939  -1.542  0.00  0.00    +0.020 C 
BRANCH  25  26
ATOM     26  C   LIG    1        1.418  -0.566  -0.134  0.00  0.00    -0.020 C 
ATOM     27  C   LIG    1        2.537  -0.855   0.869  0.00  0.00    +0.010 C 
ATOM     28  C   LIG    1        1.067   0.922  -0.092  0.00  0.00    +0.010 C 
ENDBRANCH  25  26
BRANCH  25  30
ATOM     29  C   LIG    1        1.035  -3.249  -1.118  0.00  0.00    +0.000 C 
ATOM     30  C   LIG    1        2.238  -2.428  -1.585  0.00  0.00    +0.010 C 
ENDBRANCH  25  30
ENDBRANCH  24  25
ENDBRANCH  20  24
ENDBRANCH  19  21
ENDBRANCH   1  19
TORSDOF 9
