REMARK  Name = ZINCkj00000y7Fi9.0
REMARK                            x       y       z     vdW  Elec       q    Type
REMARK                         _______ _______ _______ _____ _____    ______ ____
ROOT
ATOM      1  C   LIG    1        3.587   2.347  -0.212  0.00  0.00    +0.050 C 
ATOM      2  C   LIG    1        4.179   2.397   1.206  0.00  0.00    +0.150 C 
ATOM      3  C   LIG    1        4.624   3.833   0.885  0.00  0.00    +0.140 C 
ATOM      4  C   LIG    1        3.473   3.878  -0.134  0.00  0.00    +0.150 C 
ENDROOT
BRANCH   1   5
ATOM      5  C   LIG    1        2.255   1.645  -0.286  0.00  0.00    -0.100 A 
ATOM      6  C   LIG    1        1.946   0.652   0.625  0.00  0.00    +0.030 A 
ATOM      7  C   LIG    1        0.724   0.009   0.557  0.00  0.00    +0.020 A 
ATOM      8  C   LIG    1       -0.188   0.358  -0.421  0.00  0.00    +0.030 A 
ATOM      9  C   LIG    1        0.122   1.351  -1.332  0.00  0.00    +0.020 A 
ATOM     10  C   LIG    1        1.343   1.994  -1.264  0.00  0.00    +0.020 A 
ENDBRANCH   1   5
BRANCH   3  11
ATOM     11  N   LIG    1        5.956   3.913   0.270  0.00  0.00    -0.480 N 
ATOM     12  H   LIG    1        5.998   4.715  -0.340  0.00  0.00    +0.430 HD
ATOM     13  H   LIG    1        6.131   3.075  -0.264  0.00  0.00    +0.420 HD
BRANCH  11  14
ATOM     14  C   LIG    1        6.973   4.045   1.322  0.00  0.00    +0.010 C 
ATOM     15  C   LIG    1        8.384   4.148   0.701  0.00  0.00    +0.060 C 
ATOM     16  C   LIG    1        9.130   2.915   1.257  0.00  0.00    +0.230 C 
ATOM     17  O   LIG    1        8.436   2.583   2.479  0.00  0.00    -0.330 OA
ATOM     18  C   LIG    1        7.034   2.761   2.180  0.00  0.00    +0.250 C 
BRANCH  14  19
ATOM     19  C   LIG    1        6.681   5.263   2.200  0.00  0.00    +0.220 C 
BRANCH  19  20
ATOM     20  O   LIG    1        7.681   5.371   3.214  0.00  0.00    -0.540 OA
ATOM     21  H   LIG    1        7.559   6.124   3.809  0.00  0.00    +0.410 HD
ENDBRANCH  19  20
ENDBRANCH  14  19
ENDBRANCH  11  14
ENDBRANCH   3  11
BRANCH   1  23
ATOM     22  N   LIG    1        5.270   1.516  -2.022  0.00  0.00    -0.370 NA
ATOM     23  C   LIG    1        4.537   1.878  -1.234  0.00  0.00    +0.180 C 
ENDBRANCH   1  23
TORSDOF 6
