REMARK  Name = ZINCpk000000nEbm.0
REMARK                            x       y       z     vdW  Elec       q    Type
REMARK                         _______ _______ _______ _____ _____    ______ ____
ROOT
ATOM      1  C   LIG    1       -1.187   1.623   0.032  0.00  0.00    +0.580 C 
ATOM      2  N   LIG    1       -0.011   0.964   0.040  0.00  0.00    -0.710 N 
ATOM      3  H   LIG    1        0.002  -0.006   0.042  0.00  0.00    +0.400 HD
ATOM      4  O   LIG    1       -1.202   2.838   0.029  0.00  0.00    -0.530 OA
ENDROOT
BRANCH   1  10
ATOM      5  C   LIG    1       -3.685   1.538   0.133  0.00  0.00    +0.460 A 
ATOM      6  N   LIG    1       -4.820   0.856   0.128  0.00  0.00    -0.550 NA
ATOM      7  C   LIG    1       -4.839  -0.459   0.022  0.00  0.00    +0.350 A 
ATOM      8  C   LIG    1       -3.668  -1.187  -0.087  0.00  0.00    -0.110 A 
ATOM      9  C   LIG    1       -2.453  -0.526  -0.093  0.00  0.00    +0.140 A 
ATOM     10  C   LIG    1       -2.454   0.869   0.026  0.00  0.00    -0.280 A 
BRANCH   5  11
ATOM     11  N   LIG    1       -3.711   2.916   0.246  0.00  0.00    -0.690 N 
ATOM     12  H   LIG    1       -2.889   3.424   0.173  0.00  0.00    +0.420 HD
BRANCH  11  14
ATOM     13  C   LIG    1       -4.716   4.949   1.163  0.00  0.00    +0.030 C 
ATOM     14  C   LIG    1       -4.982   3.608   0.476  0.00  0.00    +0.230 C 
ATOM     15  C   LIG    1       -5.680   3.851  -0.864  0.00  0.00    +0.010 C 
ENDBRANCH  11  14
ENDBRANCH   5  11
ENDBRANCH   1  10
BRANCH   2  16
ATOM     16  C   LIG    1        1.248   1.713   0.040  0.00  0.00    +0.240 C 
ATOM     17  C   LIG    1        2.395   0.844  -0.527  0.00  0.00    +0.060 C 
ATOM     18  C   LIG    1        2.995   0.239   0.766  0.00  0.00    +0.250 C 
ATOM     19  N   LIG    1        2.662   1.188   1.835  0.00  0.00    -0.620 N 
ATOM     20  C   LIG    1        1.680   2.024   1.456  0.00  0.00    +0.510 C 
ATOM     21  O   LIG    1        1.208   2.900   2.149  0.00  0.00    -0.500 OA
BRANCH  19  22
ATOM     22  C   LIG    1        3.314   1.219   3.146  0.00  0.00    +0.250 C 
ATOM     23  C   LIG    1        2.271   0.990   4.243  0.00  0.00    -0.010 C 
ATOM     24  C   LIG    1        2.948   1.105   5.612  0.00  0.00    +0.220 C 
ATOM     25  O   LIG    1        3.567   2.388   5.731  0.00  0.00    -0.380 OA
ATOM     26  C   LIG    1        4.585   2.637   4.760  0.00  0.00    +0.220 C 
ATOM     27  C   LIG    1        3.973   2.586   3.357  0.00  0.00    -0.000 C 
ENDBRANCH  19  22
ENDBRANCH   2  16
TORSDOF 5
