REMARK  Name = ZINCrH000004nW0X.0
REMARK                            x       y       z     vdW  Elec       q    Type
REMARK                         _______ _______ _______ _____ _____    ______ ____
ROOT
ATOM      1  C   LIG    1        2.354   1.091   0.099  0.00  0.00    +0.390 C 
ENDROOT
BRANCH   1   2
ATOM      2  C   LIG    1        3.361   2.054  -0.475  0.00  0.00    +0.170 A 
ATOM      3  N   LIG    1        4.344   1.758  -1.289  0.00  0.00    -0.420 NA
ATOM      4  C   LIG    1        4.975   2.928  -1.536  0.00  0.00    +0.260 A 
ATOM      5  N   LIG    1        4.350   3.855  -0.859  0.00  0.00    -0.340 NA
ATOM      6  O   LIG    1        3.422   3.369  -0.246  0.00  0.00    +0.100 OA
BRANCH   4   7
ATOM      7  C   LIG    1        6.160   3.122  -2.409  0.00  0.00    +0.300 A 
ATOM      8  N   LIG    1        6.765   4.267  -2.636  0.00  0.00    -0.270 NA
ATOM      9  N   LIG    1        7.828   3.995  -3.513  0.00  0.00    -0.470 N 
ATOM     10  H   LIG    1        8.465   4.634  -3.869  0.00  0.00    +0.450 HD
ATOM     11  C   LIG    1        7.791   2.673  -3.761  0.00  0.00    +0.510 A 
ATOM     12  N   LIG    1        6.793   2.158  -3.092  0.00  0.00    -0.510 NA
ENDBRANCH   4   7
ENDBRANCH   1   2
BRANCH   1  14
ATOM     13  C   LIG    1       -0.072   0.875   0.030  0.00  0.00    +0.570 C 
ATOM     14  N   LIG    1        1.013   1.674   0.006  0.00  0.00    -0.730 N 
ATOM     15  H   LIG    1        0.906   2.635  -0.073  0.00  0.00    +0.410 HD
ATOM     16  O   LIG    1        0.063  -0.333   0.036  0.00  0.00    -0.500 OA
BRANCH  13  21
ATOM     17  C   LIG    1       -2.857   3.402   0.048  0.00  0.00    -0.090 A 
ATOM     18  C   LIG    1       -3.973   2.571   0.066  0.00  0.00    +0.040 A 
ATOM     19  C   LIG    1       -3.817   1.198   0.073  0.00  0.00    +0.050 A 
ATOM     20  C   LIG    1       -2.553   0.641   0.061  0.00  0.00    +0.010 A 
ATOM     21  C   LIG    1       -1.426   1.467   0.042  0.00  0.00    -0.110 A 
ATOM     22 CL   LIG    1       -2.364  -1.085   0.071  0.00  0.00    -0.020 Cl
ATOM     23  C   LIG    1       -1.584   2.853   0.041  0.00  0.00    +0.080 A 
BRANCH  17  25
ATOM     24  C   LIG    1       -4.866   5.351   0.060  0.00  0.00    +0.140 C 
ATOM     25  S   LIG    1       -3.063   5.152   0.040  0.00  0.00    -0.100 S 
ENDBRANCH  17  25
ENDBRANCH  13  21
ENDBRANCH   1  14
BRANCH   1  26
ATOM     26  C   LIG    1        2.690   0.818   1.567  0.00  0.00    +0.050 C 
BRANCH  26  27
ATOM     27  C   LIG    1        4.027   0.079   1.655  0.00  0.00    -0.030 C 
ATOM     28  C   LIG    1        3.886  -1.307   1.023  0.00  0.00    +0.030 C 
ATOM     29  C   LIG    1        4.432  -0.068   3.123  0.00  0.00    +0.020 C 
ENDBRANCH  26  27
ENDBRANCH   1  26
TORSDOF 7
