REMARK  Name = ZINCpk00000eao6P.0
REMARK                            x       y       z     vdW  Elec       q    Type
REMARK                         _______ _______ _______ _____ _____    ______ ____
ROOT
ATOM      1  N   LIG    1       -4.526  -0.844  -0.393  0.00  0.00    -0.660 N 
ATOM      2  H   LIG    1       -5.427  -1.170  -0.244  0.00  0.00    +0.420 HD
ATOM      3  C   LIG    1       -3.874  -1.162  -1.529  0.00  0.00    +0.500 C 
ATOM      4  O   LIG    1       -2.719  -0.822  -1.681  0.00  0.00    -0.510 OA
ENDROOT
BRANCH   1   7
ATOM      5  C   LIG    1       -1.921   0.651   1.737  0.00  0.00    +0.120 A 
ATOM      6  C   LIG    1       -2.535  -0.144   0.782  0.00  0.00    +0.000 A 
ATOM      7  C   LIG    1       -3.902  -0.041   0.572  0.00  0.00    +0.160 A 
ATOM      8  C   LIG    1       -4.654   0.861   1.320  0.00  0.00    +0.080 A 
ATOM      9  C   LIG    1       -4.035   1.653   2.274  0.00  0.00    +0.010 A 
ATOM     10  C   LIG    1       -2.673   1.545   2.486  0.00  0.00    -0.050 A 
ATOM     11 CL   LIG    1       -1.902   2.534   3.687  0.00  0.00    -0.050 Cl
BRANCH   5  13
ATOM     12  C   LIG    1        0.131  -0.395   1.143  0.00  0.00    +0.250 C 
ATOM     13  O   LIG    1       -0.580   0.550   1.945  0.00  0.00    -0.300 OA
ENDBRANCH   5  13
BRANCH   8  14
ATOM     14  O   LIG    1       -5.995   0.964   1.115  0.00  0.00    -0.310 OA
ATOM     15  C   LIG    1       -6.703   1.910   1.919  0.00  0.00    +0.250 C 
ENDBRANCH   8  14
ENDBRANCH   1   7
BRANCH   3  16
ATOM     16  C   LIG    1       -4.579  -1.940  -2.610  0.00  0.00    +0.400 C 
BRANCH  16  17
ATOM     17  N   LIG    1       -3.662  -2.157  -3.732  0.00  0.00    -0.410 N 
ATOM     18  N   LIG    1       -3.607  -1.222  -4.769  0.00  0.00    -0.210 NA
ATOM     19  C   LIG    1       -2.808  -1.362  -5.788  0.00  0.00    +0.340 A 
ATOM     20  C   LIG    1       -1.963  -2.481  -5.894  0.00  0.00    +0.010 A 
ATOM     21  C   LIG    1       -1.980  -3.452  -4.887  0.00  0.00    -0.000 A 
ATOM     22  N   LIG    1       -1.090  -4.401  -5.231  0.00  0.00    -0.440 NA
ATOM     23  C   LIG    1       -0.534  -4.084  -6.366  0.00  0.00    +0.460 A 
ATOM     24  N   LIG    1       -1.042  -2.905  -6.815  0.00  0.00    -0.540 N 
ATOM     25  H   LIG    1       -0.797  -2.449  -7.636  0.00  0.00    +0.430 HD
ATOM     26  C   LIG    1       -2.884  -3.261  -3.755  0.00  0.00    +0.570 A 
ATOM     27  O   LIG    1       -2.935  -4.079  -2.852  0.00  0.00    -0.500 OA
ENDBRANCH  16  17
ENDBRANCH   3  16
TORSDOF 5
