REMARK  Name = ZINCrH000004tMvK.0
REMARK                            x       y       z     vdW  Elec       q    Type
REMARK                         _______ _______ _______ _____ _____    ______ ____
ROOT
ATOM      1  O   LIG    1       -1.204   2.837   0.023  0.00  0.00    -0.510 OA
ATOM      2  C   LIG    1       -1.187   1.624   0.017  0.00  0.00    +0.520 C 
ATOM      3  N   LIG    1       -0.011   0.966   0.007  0.00  0.00    -0.730 N 
ATOM      4  H   LIG    1        0.002  -0.004   0.002  0.00  0.00    +0.400 HD
ENDROOT
BRANCH   3   5
ATOM      5  C   LIG    1        1.248   1.716  -0.001  0.00  0.00    +0.390 C 
BRANCH   5   6
ATOM      6  C   LIG    1        2.332   0.870  -0.616  0.00  0.00    -0.100 A 
ATOM      7  C   LIG    1        2.404  -0.480  -0.326  0.00  0.00    +0.050 A 
ATOM      8  C   LIG    1        3.395  -1.258  -0.894  0.00  0.00    -0.010 A 
ATOM      9  C   LIG    1        4.323  -0.683  -1.745  0.00  0.00    +0.110 A 
ATOM     10  C   LIG    1        4.254   0.670  -2.030  0.00  0.00    -0.010 A 
ATOM     11  F   LIG    1        5.296  -1.441  -2.296  0.00  0.00    -0.140 F 
ATOM     12  C   LIG    1        3.259   1.445  -1.466  0.00  0.00    +0.070 A 
ENDBRANCH   5   6
BRANCH   5  13
ATOM     13  C   LIG    1        1.629   2.071   1.413  0.00  0.00    -0.190 A 
ATOM     14  C   LIG    1        2.152   3.236   1.798  0.00  0.00    +0.020 A 
ATOM     15  C   LIG    1        2.422   3.335   3.152  0.00  0.00    +0.010 A 
ATOM     16  C   LIG    1        2.119   2.251   3.867  0.00  0.00    -0.050 A 
ATOM     17  S   LIG    1        1.446   1.017   2.809  0.00  0.00    +0.100 S 
ENDBRANCH   5  13
ENDBRANCH   3   5
BRANCH   2  18
ATOM     18  C   LIG    1       -2.482   0.853   0.018  0.00  0.00    +0.210 C 
BRANCH  18  19
ATOM     19  N   LIG    1       -3.611   1.792   0.029  0.00  0.00    -0.510 NA
ATOM     20  C   LIG    1       -3.662   2.541   1.293  0.00  0.00    +0.150 C 
ATOM     21  C   LIG    1       -4.814   3.548   1.241  0.00  0.00    +0.230 C 
ATOM     22  O   LIG    1       -6.036   2.856   0.968  0.00  0.00    -0.380 OA
ATOM     23  C   LIG    1       -6.016   2.119  -0.256  0.00  0.00    +0.170 C 
ATOM     24  C   LIG    1       -7.354   1.409  -0.457  0.00  0.00    +0.040 C 
ATOM     25  C   LIG    1       -7.596   0.431   0.694  0.00  0.00    +0.010 C 
ATOM     26  C   LIG    1       -6.469  -0.603   0.727  0.00  0.00    +0.010 C 
ATOM     27  C   LIG    1       -5.133   0.109   0.941  0.00  0.00    -0.020 C 
ATOM     28  C   LIG    1       -4.883   1.090  -0.207  0.00  0.00    +0.150 C 
ENDBRANCH  18  19
ENDBRANCH   2  18
TORSDOF 5
