REMARK  Name = ZINCrH000004v9Pc.0
REMARK                            x       y       z     vdW  Elec       q    Type
REMARK                         _______ _______ _______ _____ _____    ______ ____
ROOT
ATOM      1  O   LIG    1        4.780   2.127  -0.877  0.00  0.00    -0.500 OA
ATOM      2  C   LIG    1        5.290   1.080  -1.227  0.00  0.00    +0.580 C 
ATOM      3  N   LIG    1        5.991   1.023  -2.377  0.00  0.00    -0.650 N 
ATOM      4  H   LIG    1        6.377   0.182  -2.669  0.00  0.00    +0.420 HD
ENDROOT
BRANCH   3   5
ATOM      5  C   LIG    1        6.161   2.178  -3.151  0.00  0.00    +0.150 A 
ATOM      6  C   LIG    1        5.128   3.099  -3.260  0.00  0.00    +0.040 A 
ATOM      7  C   LIG    1        5.296   4.240  -4.021  0.00  0.00    +0.050 A 
ATOM      8  C   LIG    1        6.493   4.464  -4.685  0.00  0.00    +0.040 A 
ATOM      9  O   LIG    1        6.638   5.590  -5.437  0.00  0.00    -0.310 OA
ATOM     10  C   LIG    1        7.976   5.966  -5.782  0.00  0.00    +0.220 C 
ATOM     11  C   LIG    1        8.713   4.714  -6.276  0.00  0.00    +0.220 C 
ATOM     12  O   LIG    1        8.711   3.747  -5.221  0.00  0.00    -0.310 OA
ATOM     13  C   LIG    1        7.528   3.542  -4.580  0.00  0.00    +0.070 A 
ATOM     14  C   LIG    1        7.360   2.399  -3.814  0.00  0.00    +0.010 A 
ENDBRANCH   3   5
BRANCH   2  15
ATOM     15  C   LIG    1        5.143  -0.124  -0.396  0.00  0.00    +0.030 A 
ATOM     16  C   LIG    1        5.566  -1.399  -0.715  0.00  0.00    -0.040 A 
ATOM     17  C   LIG    1        5.231  -2.235   0.347  0.00  0.00    +0.100 A 
ATOM     18  N   LIG    1        4.640  -1.523   1.275  0.00  0.00    -0.250 NA
ATOM     19  N   LIG    1        4.562  -0.193   0.842  0.00  0.00    -0.290 N 
BRANCH  19  20
ATOM     20  C   LIG    1        3.996   0.874   1.550  0.00  0.00    +0.130 A 
ATOM     21  C   LIG    1        2.715   0.761   2.074  0.00  0.00    +0.030 A 
ATOM     22  C   LIG    1        2.160   1.816   2.771  0.00  0.00    +0.020 A 
ATOM     23  C   LIG    1        2.878   2.984   2.948  0.00  0.00    +0.020 A 
ATOM     24  C   LIG    1        4.154   3.100   2.428  0.00  0.00    +0.020 A 
ATOM     25  C   LIG    1        4.715   2.049   1.730  0.00  0.00    +0.050 A 
ENDBRANCH  19  20
BRANCH  17  26
ATOM     26  C   LIG    1        5.507  -3.714   0.421  0.00  0.00    +0.040 C 
ATOM     27  C   LIG    1        5.855  -4.434  -0.884  0.00  0.00    +0.050 C 
ATOM     28  C   LIG    1        4.491  -4.656  -0.228  0.00  0.00    +0.040 C 
ENDBRANCH  17  26
ENDBRANCH   2  15
TORSDOF 4
