REMARK  Name = ZINCpk00000e1E1c.0
REMARK                            x       y       z     vdW  Elec       q    Type
REMARK                         _______ _______ _______ _____ _____    ______ ____
ROOT
ATOM      1  N   LIG    1       -2.466   3.676   0.044  0.00  0.00    -0.570 N 
ATOM      2  C   LIG    1       -2.533   5.139   0.163  0.00  0.00    +0.290 C 
ATOM      3  C   LIG    1       -3.378   5.689  -0.991  0.00  0.00    +0.020 C 
ATOM      4  C   LIG    1       -4.742   4.996  -0.995  0.00  0.00    +0.010 C 
ATOM      5  C   LIG    1       -4.551   3.493  -1.210  0.00  0.00    +0.230 C 
ATOM      6  C   LIG    1       -3.720   2.918  -0.064  0.00  0.00    +0.300 C 
ENDROOT
BRANCH   1  12
ATOM      7  C   LIG    1        2.435   3.782   0.512  0.00  0.00    +0.320 C 
ATOM      8  N   LIG    1        1.170   3.087   0.262  0.00  0.00    -0.480 N 
ATOM      9  C   LIG    1        1.157   1.749   0.001  0.00  0.00    +0.160 A 
ATOM     10  C   LIG    1       -0.003   1.099  -0.231  0.00  0.00    +0.190 A 
ATOM     11  N   LIG    1       -1.175   1.733  -0.220  0.00  0.00    -0.510 NA
ATOM     12  C   LIG    1       -1.240   3.023   0.029  0.00  0.00    +0.350 A 
ATOM     13  C   LIG    1        0.000   3.764   0.286  0.00  0.00    +0.480 A 
ATOM     14  O   LIG    1       -0.024   4.961   0.516  0.00  0.00    -0.520 OA
ENDBRANCH   1  12
BRANCH   5  15
ATOM     15  N   LIG    1       -5.859   2.834  -1.246  0.00  0.00    -0.720 N 
ATOM     16  H   LIG    1       -6.225   2.437  -0.439  0.00  0.00    +0.400 HD
ATOM     17  C   LIG    1       -6.554   2.779  -2.399  0.00  0.00    +0.560 C 
ATOM     18  O   LIG    1       -6.096   3.276  -3.409  0.00  0.00    -0.510 OA
BRANCH  17  19
ATOM     19  C   LIG    1       -7.873   2.115  -2.435  0.00  0.00    -0.150 A 
ATOM     20  C   LIG    1       -8.402   1.543  -1.276  0.00  0.00    +0.060 A 
ATOM     21  C   LIG    1       -9.636   0.924  -1.317  0.00  0.00    +0.080 A 
ATOM     22  C   LIG    1      -10.350   0.870  -2.505  0.00  0.00    +0.050 A 
ATOM     23  C   LIG    1       -9.832   1.434  -3.656  0.00  0.00    +0.030 A 
ATOM     24  F   LIG    1      -10.150   0.370  -0.197  0.00  0.00    -0.130 F 
ATOM     25  C   LIG    1       -8.600   2.061  -3.628  0.00  0.00    +0.150 A 
ATOM     26  F   LIG    1       -8.098   2.617  -4.753  0.00  0.00    -0.110 F 
ENDBRANCH  17  19
ENDBRANCH   5  15
TORSDOF 3
