REMARK  Name = ZINCrH000004nBfL.0
REMARK                            x       y       z     vdW  Elec       q    Type
REMARK                         _______ _______ _______ _____ _____    ______ ____
ROOT
ATOM      1  C   LIG    1       -1.330   1.944   0.019  0.00  0.00    -0.010 C 
ATOM      2  C   LIG    1       -1.421   2.811   1.278  0.00  0.00    +0.070 C 
ATOM      3  C   LIG    1       -2.783   3.508   1.313  0.00  0.00    +0.230 C 
ATOM      4  N   LIG    1       -3.851   2.500   1.313  0.00  0.00    -0.420 N 
ATOM      5  C   LIG    1       -3.812   1.686   0.091  0.00  0.00    +0.210 C 
ATOM      6  C   LIG    1       -2.481   0.935   0.019  0.00  0.00    +0.080 C 
ENDROOT
BRANCH   4   7
ATOM      7  C   LIG    1       -5.085   3.088   1.475  0.00  0.00    +0.430 A 
ATOM      8  N   LIG    1       -5.418   3.869   2.470  0.00  0.00    -0.490 NA
ATOM      9  C   LIG    1       -6.710   4.264   2.301  0.00  0.00    +0.040 A 
ATOM     10  C   LIG    1       -7.572   5.080   3.035  0.00  0.00    +0.070 A 
ATOM     11  C   LIG    1       -8.858   5.292   2.588  0.00  0.00    +0.030 A 
ATOM     12  C   LIG    1       -9.300   4.699   1.415  0.00  0.00    +0.040 A 
ATOM     13  C   LIG    1       -8.457   3.889   0.680  0.00  0.00    +0.040 A 
ATOM     14  C   LIG    1       -7.161   3.666   1.115  0.00  0.00    +0.000 A 
ATOM     15  O   LIG    1       -6.122   2.948   0.630  0.00  0.00    -0.230 OA
ENDBRANCH   4   7
BRANCH   1  17
ATOM     16  N   LIG    1        1.143   1.898   0.001  0.00  0.00    -0.570 N 
ATOM     17  C   LIG    1       -0.014   1.209   0.009  0.00  0.00    +0.530 C 
ATOM     18  O   LIG    1        0.002  -0.004   0.002  0.00  0.00    -0.520 OA
ATOM     19  C   LIG    1        1.124   3.363   0.009  0.00  0.00    +0.300 C 
BRANCH  16  25
ATOM     20  C   LIG    1        2.990   0.872   1.184  0.00  0.00    +0.140 A 
ATOM     21  C   LIG    1        4.196   0.191   1.163  0.00  0.00    -0.070 A 
ATOM     22  C   LIG    1        4.784  -0.138  -0.045  0.00  0.00    +0.060 A 
ATOM     23  C   LIG    1        4.168   0.207  -1.234  0.00  0.00    -0.020 A 
ATOM     24  C   LIG    1        2.962   0.881  -1.222  0.00  0.00    +0.060 A 
ATOM     25  C   LIG    1        2.366   1.214  -0.014  0.00  0.00    +0.100 A 
BRANCH  20  27
ATOM     26  C   LIG    1        3.111   0.818   3.558  0.00  0.00    +0.250 C 
ATOM     27  O   LIG    1        2.414   1.201   2.371  0.00  0.00    -0.310 OA
ENDBRANCH  20  27
ENDBRANCH  16  25
ENDBRANCH   1  17
TORSDOF 4
