REMARK  Name = ZINCpk00000ebO8r.0
REMARK                            x       y       z     vdW  Elec       q    Type
REMARK                         _______ _______ _______ _____ _____    ______ ____
ROOT
ATOM      1  N   LIG    1       -0.799  -1.415   3.657  0.00  0.00    -0.700 N 
ATOM      2  H   LIG    1       -0.342  -0.948   4.374  0.00  0.00    +0.420 HD
ENDROOT
BRANCH   1   4
ATOM      3  C   LIG    1       -1.116  -3.452   4.983  0.00  0.00    -0.070 A 
ATOM      4  C   LIG    1       -1.252  -2.729   3.852  0.00  0.00    +0.420 A 
ATOM      5  N   LIG    1       -1.901  -3.479   2.948  0.00  0.00    -0.470 NA
ATOM      6  C   LIG    1       -2.166  -4.653   3.475  0.00  0.00    +0.230 A 
ATOM      7  S   LIG    1       -2.911  -6.231   3.176  0.00  0.00    +0.220 S 
ATOM      8  C   LIG    1       -2.552  -6.857   4.795  0.00  0.00    +0.030 A 
ATOM      9  C   LIG    1       -1.923  -5.879   5.423  0.00  0.00    +0.220 A 
ATOM     10  N   LIG    1       -1.702  -4.698   4.752  0.00  0.00    -0.390 N 
BRANCH   3  12
ATOM     11  O   LIG    1        0.731  -3.193   6.408  0.00  0.00    -0.120 OA
ATOM     12  N   LIG    1       -0.461  -3.005   6.242  0.00  0.00    +0.050 N 
ATOM     13  O   LIG    1       -1.117  -2.452   7.106  0.00  0.00    -0.120 OA
ENDBRANCH   3  12
ENDBRANCH   1   4
BRANCH   1  14
ATOM     14  C   LIG    1       -1.017  -0.748   2.371  0.00  0.00    +0.290 C 
BRANCH  14  15
ATOM     15  C   LIG    1       -0.543   0.704   2.462  0.00  0.00    +0.180 C 
BRANCH  15  16
ATOM     16  N   LIG    1        0.871   0.733   2.859  0.00  0.00    -0.530 NA
ATOM     17  C   LIG    1        1.440   2.076   2.680  0.00  0.00    +0.150 C 
ATOM     18  C   LIG    1        2.894   2.077   3.161  0.00  0.00    +0.220 C 
ATOM     19  O   LIG    1        3.627   1.078   2.446  0.00  0.00    -0.380 OA
ATOM     20  C   LIG    1        3.100  -0.242   2.599  0.00  0.00    +0.220 C 
ATOM     21  C   LIG    1        1.649  -0.266   2.112  0.00  0.00    +0.140 C 
ENDBRANCH  15  16
BRANCH  15  22
ATOM     22  C   LIG    1       -0.704   1.379   1.099  0.00  0.00    -0.050 C 
ATOM     23  C   LIG    1       -2.181   1.323   0.613  0.00  0.00    +0.020 C 
ATOM     24  C   LIG    1       -2.023   1.343  -0.922  0.00  0.00    +0.190 C 
ATOM     25  O   LIG    1       -0.694   0.903  -1.227  0.00  0.00    -0.380 OA
ATOM     26  C   LIG    1       -0.001   0.564  -0.015  0.00  0.00    +0.210 C 
ENDBRANCH  15  22
ENDBRANCH  14  15
ENDBRANCH   1  14
TORSDOF 6
