REMARK  Name = ZINCpe00000MJHZU.2
REMARK                            x       y       z     vdW  Elec       q    Type
REMARK                         _______ _______ _______ _____ _____    ______ ____
ROOT
ATOM      1  C   LIG    1        0.624  -0.273   1.191  0.00  0.00    +0.120 C 
ATOM      2  C   LIG    1        2.031   0.318   1.327  0.00  0.00    +0.300 C 
ATOM      3  N   LIG    1        1.952   1.769   1.097  0.00  0.00    -0.610 N 
ATOM      4  C   LIG    1        1.271   2.246  -0.116  0.00  0.00    +0.280 C 
ATOM      5  C   LIG    1       -0.106   1.578  -0.195  0.00  0.00    +0.200 C 
ATOM      6  C   LIG    1        2.489   2.639   1.976  0.00  0.00    +0.500 C 
ATOM      7  O   LIG    1        3.047   2.228   2.971  0.00  0.00    -0.520 OA
ATOM      8  N   LIG    1        0.053   0.121  -0.104  0.00  0.00    -0.530 NA
ENDROOT
BRANCH   1  10
ATOM      9  C   LIG    1        1.201  -2.212   2.658  0.00  0.00    +0.010 C 
ATOM     10  C   LIG    1        0.702  -1.799   1.271  0.00  0.00    +0.030 C 
ENDBRANCH   1  10
BRANCH   6  11
ATOM     11  C   LIG    1        2.397   4.121   1.721  0.00  0.00    +0.360 C 
BRANCH  11  12
ATOM     12  N   LIG    1        3.052   4.846   2.813  0.00  0.00    -0.520 N 
ATOM     13  C   LIG    1        2.457   5.275   3.942  0.00  0.00    +0.690 A 
ATOM     14  N   LIG    1        3.360   5.899   4.721  0.00  0.00    -0.640 N 
ATOM     15  H   LIG    1        3.183   6.297   5.588  0.00  0.00    +0.440 HD
ATOM     16  C   LIG    1        4.590   5.882   4.068  0.00  0.00    +0.090 A 
ATOM     17  C   LIG    1        5.846   6.370   4.392  0.00  0.00    +0.030 A 
ATOM     18  C   LIG    1        6.900   6.193   3.516  0.00  0.00    +0.020 A 
ATOM     19  C   LIG    1        6.706   5.531   2.316  0.00  0.00    +0.020 A 
ATOM     20  C   LIG    1        5.458   5.040   1.985  0.00  0.00    +0.030 A 
ATOM     21  O   LIG    1        1.282   5.120   4.217  0.00  0.00    -0.550 OA
ATOM     22  C   LIG    1        4.394   5.213   2.857  0.00  0.00    +0.100 A 
ENDBRANCH  11  12
ENDBRANCH   6  11
BRANCH   8  23
ATOM     23  C   LIG    1       -1.223  -0.565  -0.348  0.00  0.00    +0.250 C 
BRANCH  23  24
ATOM     24  C   LIG    1       -2.127  -0.410   0.876  0.00  0.00    +0.130 C 
BRANCH  24  25
ATOM     25  O   LIG    1       -2.485   0.965   1.033  0.00  0.00    -0.390 OA
ATOM     26  C   LIG    1       -3.333   1.220   2.154  0.00  0.00    +0.200 C 
ENDBRANCH  24  25
ENDBRANCH  23  24
ENDBRANCH   8  23
TORSDOF 6
