REMARK  Name = ZINCpk00000KfLJZ.0
REMARK                            x       y       z     vdW  Elec       q    Type
REMARK                         _______ _______ _______ _____ _____    ______ ____
ROOT
ATOM      1  C   LIG    1       -2.466   1.410   0.021  0.00  0.00    -0.070 A 
ATOM      2  C   LIG    1       -3.092   1.062  -1.174  0.00  0.00    -0.090 A 
ATOM      3  C   LIG    1       -2.417   1.463  -2.458  0.00  0.00    +0.070 C 
ATOM      4  C   LIG    1       -2.976   0.661  -3.632  0.00  0.00    +0.030 C 
ATOM      5  C   LIG    1       -4.505   0.761  -3.599  0.00  0.00    +0.030 C 
ATOM      6  C   LIG    1       -5.017  -0.039  -2.404  0.00  0.00    +0.110 C 
ATOM      7  C   LIG    1       -4.298   0.373  -1.143  0.00  0.00    +0.170 A 
ATOM      8  N   LIG    1       -4.863   0.046   0.004  0.00  0.00    -0.470 NA
ATOM      9  C   LIG    1       -4.322   0.344   1.184  0.00  0.00    +0.140 A 
ATOM     10  C   LIG    1       -4.950  -0.024   2.388  0.00  0.00    +0.050 A 
ATOM     11  C   LIG    1       -4.360   0.278   3.577  0.00  0.00    +0.040 A 
ATOM     12  C   LIG    1       -3.149   0.965   3.624  0.00  0.00    +0.030 A 
ATOM     13  C   LIG    1       -2.515   1.343   2.479  0.00  0.00    +0.020 A 
ATOM     14  C   LIG    1       -3.087   1.038   1.238  0.00  0.00    -0.080 A 
ENDROOT
BRANCH   1  20
ATOM     15  C   LIG    1        2.130   1.605  -1.133  0.00  0.00    +0.150 C 
ATOM     16  C   LIG    1        1.271   2.176   0.002  0.00  0.00    +0.290 C 
ATOM     17  N   LIG    1       -0.018   1.467   0.010  0.00  0.00    -0.610 N 
ATOM     18  C   LIG    1        0.002  -0.004   0.002  0.00  0.00    +0.260 C 
ATOM     19  C   LIG    1        0.922  -0.469  -1.132  0.00  0.00    +0.230 C 
ATOM     20  C   LIG    1       -1.183   2.145   0.019  0.00  0.00    +0.580 C 
ATOM     21  O   LIG    1       -1.178   3.361   0.026  0.00  0.00    -0.520 OA
ATOM     22  O   LIG    1        2.189   0.183  -1.008  0.00  0.00    -0.350 OA
BRANCH  15  26
ATOM     23  N   LIG    1        3.723   3.495  -1.242  0.00  0.00    -0.850 N 
ATOM     24  H   LIG    1        4.619   3.862  -1.188  0.00  0.00    +0.410 HD
ATOM     25  H   LIG    1        2.971   4.076  -1.436  0.00  0.00    +0.400 HD
ATOM     26  C   LIG    1        3.522   2.176  -1.048  0.00  0.00    +0.530 C 
ATOM     27  O   LIG    1        4.462   1.449  -0.806  0.00  0.00    -0.510 OA
ENDBRANCH  15  26
ENDBRANCH   1  20
TORSDOF 2
