REMARK  Name = ZINCkj000005iBTH.0
REMARK                            x       y       z     vdW  Elec       q    Type
REMARK                         _______ _______ _______ _____ _____    ______ ____
ROOT
ATOM      1  C   LIG    1        0.042  -4.149   0.102  0.00  0.00    +0.540 C 
ATOM      2  N   LIG    1       -0.961  -5.048   0.041  0.00  0.00    -0.620 N 
ATOM      3  C   LIG    1       -2.399  -4.738   0.138  0.00  0.00    +0.260 C 
ATOM      4  C   LIG    1       -3.105  -5.913  -0.588  0.00  0.00    +0.060 C 
ATOM      5  C   LIG    1       -2.216  -7.114  -0.168  0.00  0.00    +0.040 C 
ATOM      6  C   LIG    1       -0.802  -6.500  -0.128  0.00  0.00    +0.220 C 
ATOM      7  O   LIG    1        1.194  -4.526   0.106  0.00  0.00    -0.500 OA
ENDROOT
BRANCH   1   8
ATOM      8  C   LIG    1       -0.269  -2.676   0.167  0.00  0.00    +0.240 C 
BRANCH   8   9
ATOM      9  O   LIG    1        0.950  -1.934   0.225  0.00  0.00    -0.280 OA
BRANCH   9  16
ATOM     10  C   LIG    1        1.994   0.206   0.346  0.00  0.00    +0.110 A 
ATOM     11  C   LIG    1        1.883   1.586   0.410  0.00  0.00    -0.030 A 
ATOM     12  C   LIG    1        0.634   2.179   0.415  0.00  0.00    -0.070 A 
ATOM     13  C   LIG    1       -0.506   1.399   0.356  0.00  0.00    +0.010 A 
ATOM     14  C   LIG    1       -0.402   0.022   0.292  0.00  0.00    -0.040 A 
ATOM     15  C   LIG    1        0.514   3.680   0.485  0.00  0.00    +0.090 C 
ATOM     16  C   LIG    1        0.846  -0.579   0.287  0.00  0.00    +0.080 A 
BRANCH  10  18
ATOM     17  C   LIG    1        4.354   0.490   0.405  0.00  0.00    +0.240 C 
ATOM     18  O   LIG    1        3.221  -0.379   0.342  0.00  0.00    -0.310 OA
ENDBRANCH  10  18
ENDBRANCH   9  16
ENDBRANCH   8   9
ENDBRANCH   1   8
BRANCH   6  19
ATOM     19  C   LIG    1       -0.013  -7.077   1.050  0.00  0.00    +0.260 C 
BRANCH  19  20
ATOM     20  N   LIG    1        0.254  -8.501   0.809  0.00  0.00    -0.630 N 
ATOM     21  H   LIG    1       -0.617  -8.981   0.634  0.00  0.00    +0.430 HD
ATOM     22  H   LIG    1        0.702  -8.901   1.620  0.00  0.00    +0.440 HD
ATOM     23  H   LIG    1        0.859  -8.599   0.008  0.00  0.00    +0.440 HD
ENDBRANCH  19  20
ENDBRANCH   6  19
TORSDOF 6
