REMARK  Name = ZINCvU00000008ZD.0
REMARK                            x       y       z     vdW  Elec       q    Type
REMARK                         _______ _______ _______ _____ _____    ______ ____
ROOT
ATOM      1  C   LIG    1        5.460   1.288  -1.689  0.00  0.00    +0.180 A 
ATOM      2  C   LIG    1        6.285   1.376  -0.606  0.00  0.00    -0.080 A 
ATOM      3  C   LIG    1        7.592   0.865  -0.675  0.00  0.00    +0.010 A 
ATOM      4  C   LIG    1        8.459   0.944   0.428  0.00  0.00    +0.010 A 
ATOM      5  C   LIG    1        9.720   0.440   0.333  0.00  0.00    +0.040 A 
ATOM      6  C   LIG    1       10.168  -0.156  -0.845  0.00  0.00    +0.000 A 
ATOM      7  C   LIG    1        9.358  -0.250  -1.934  0.00  0.00    +0.040 A 
ATOM      8  C   LIG    1        8.048   0.259  -1.875  0.00  0.00    -0.090 A 
ATOM      9  C   LIG    1        7.189   0.176  -2.980  0.00  0.00    +0.120 A 
ATOM     10  C   LIG    1        5.903   0.682  -2.884  0.00  0.00    -0.150 A 
ENDROOT
BRANCH  10  11
ATOM     11  C   LIG    1        4.992   0.592  -4.041  0.00  0.00    +0.570 C 
ATOM     12  N   LIG    1        5.470   0.759  -5.290  0.00  0.00    -0.550 N 
ATOM     13  C   LIG    1        6.914   0.868  -5.513  0.00  0.00    +0.310 C 
ATOM     14  O   LIG    1        3.809   0.368  -3.868  0.00  0.00    -0.480 OA
BRANCH  12  15
ATOM     15  C   LIG    1        4.587   0.829  -6.374  0.00  0.00    +0.180 A 
ATOM     16  C   LIG    1        3.220   0.706  -6.166  0.00  0.00    +0.050 A 
ATOM     17  C   LIG    1        2.349   0.781  -7.236  0.00  0.00    +0.050 A 
ATOM     18  C   LIG    1        2.838   0.966  -8.517  0.00  0.00    +0.040 A 
ATOM     19  C   LIG    1        4.204   1.083  -8.729  0.00  0.00    +0.090 A 
ATOM     20  F   LIG    1        4.681   1.263  -9.980  0.00  0.00    -0.130 F 
ATOM     21  F   LIG    1        1.985   1.034  -9.562  0.00  0.00    -0.130 F 
ATOM     22  C   LIG    1        5.079   1.014  -7.660  0.00  0.00    -0.020 A 
ENDBRANCH  12  15
ENDBRANCH  10  11
BRANCH   1  23
ATOM     23  O   LIG    1        4.199   1.784  -1.614  0.00  0.00    -0.290 OA
BRANCH  23  24
ATOM     24  C   LIG    1        3.808   2.380  -0.376  0.00  0.00    +0.300 C 
BRANCH  24  31
ATOM     25  C   LIG    1        2.785   5.303  -1.344  0.00  0.00    +0.160 C 
ATOM     26  C   LIG    1        1.933   4.142  -0.901  0.00  0.00    +0.040 A 
ATOM     27  N   LIG    1        0.634   4.110  -0.831  0.00  0.00    -0.360 NA
ATOM     28  O   LIG    1        0.235   3.038  -0.440  0.00  0.00    +0.100 OA
ATOM     29  C   LIG    1        1.249   2.195  -0.193  0.00  0.00    +0.010 A 
ATOM     30  C   LIG    1        1.142   0.777   0.305  0.00  0.00    +0.200 C 
ATOM     31  C   LIG    1        2.387   2.871  -0.480  0.00  0.00    -0.220 A 
ENDBRANCH  24  31
ENDBRANCH  23  24
ENDBRANCH   1  23
TORSDOF 5
