REMARK  Name = ZINCkj000005kpJJ.0
REMARK                            x       y       z     vdW  Elec       q    Type
REMARK                         _______ _______ _______ _____ _____    ______ ____
ROOT
ATOM      1  N   LIG    1       -0.900   1.880  -1.312  0.00  0.00    -1.110 NA
ATOM      2  H   LIG    1       -1.261   1.209  -1.914  0.00  0.00    +0.430 HD
ENDROOT
BRANCH   1   3
ATOM      3  S   LIG    1       -0.017   1.417   0.010  0.00  0.00    +2.700 S 
ATOM      4  O   LIG    1        1.162   2.210   0.003  0.00  0.00    -0.950 OA
ATOM      5  O   LIG    1        0.002  -0.004   0.002  0.00  0.00    -0.940 OA
BRANCH   3  10
ATOM      6  C   LIG    1       -3.140   3.053   4.908  0.00  0.00    +0.110 C 
ATOM      7  C   LIG    1       -2.360   2.644   3.684  0.00  0.00    -0.010 A 
ATOM      8  C   LIG    1       -1.447   3.517   3.123  0.00  0.00    +0.020 A 
ATOM      9  C   LIG    1       -0.728   3.140   2.004  0.00  0.00    +0.130 A 
ATOM     10  C   LIG    1       -0.930   1.894   1.440  0.00  0.00    -0.680 A 
ATOM     11  C   LIG    1       -1.843   1.021   2.000  0.00  0.00    +0.150 A 
ATOM     12  C   LIG    1       -2.559   1.395   3.123  0.00  0.00    -0.060 A 
ATOM     13 CL   LIG    1       -3.706   0.299   3.827  0.00  0.00    -0.050 Cl
ENDBRANCH   3  10
ENDBRANCH   1   3
BRANCH   1  14
ATOM     14  C   LIG    1       -1.137   3.302  -1.574  0.00  0.00    +0.320 C 
BRANCH  14  15
ATOM     15  C   LIG    1       -1.634   3.480  -3.010  0.00  0.00    +0.160 C 
ATOM     16  C   LIG    1       -1.732   4.987  -3.324  0.00  0.00    +0.240 C 
ATOM     17  N   LIG    1       -1.772   5.163  -4.760  0.00  0.00    -0.510 N 
ATOM     18  C   LIG    1       -3.154   5.254  -5.284  0.00  0.00    +0.270 C 
ATOM     19  C   LIG    1       -4.096   4.241  -4.623  0.00  0.00    +0.040 C 
ATOM     20  C   LIG    1       -3.447   2.889  -4.447  0.00  0.00    +0.240 C 
ATOM     21  H   LIG    1       -1.276   6.010  -4.998  0.00  0.00    +0.440 HD
ATOM     22  H   LIG    1       -1.308   4.381  -5.198  0.00  0.00    +0.420 HD
ATOM     23  O   LIG    1       -2.839   2.857  -3.143  0.00  0.00    -0.350 OA
ENDBRANCH  14  15
ENDBRANCH   1  14
TORSDOF 4
