REMARK  Name = ZINCvU00000004bQ.0
REMARK                            x       y       z     vdW  Elec       q    Type
REMARK                         _______ _______ _______ _____ _____    ______ ____
ROOT
ATOM      1  C   LIG    1        2.009  -9.184  -0.070  0.00  0.00    -0.120 A 
ATOM      2  C   LIG    1        1.941  -8.495   1.142  0.00  0.00    +0.090 A 
ATOM      3  C   LIG    1        1.784  -7.124   1.144  0.00  0.00    +0.030 A 
ATOM      4  C   LIG    1        1.693  -6.433  -0.051  0.00  0.00    -0.050 A 
ATOM      5  C   LIG    1        1.754  -7.111  -1.256  0.00  0.00    +0.030 A 
ATOM      6  C   LIG    1        1.917  -8.481  -1.272  0.00  0.00    +0.090 A 
ENDROOT
BRANCH   1   7
ATOM      7  C   LIG    1        2.177 -10.652  -0.080  0.00  0.00    +0.510 C 
ATOM      8  O   LIG    1        2.257 -11.261   0.968  0.00  0.00    -0.500 OA
BRANCH   7   9
ATOM      9  O   LIG    1        2.243 -11.315  -1.251  0.00  0.00    -0.330 OA
BRANCH   9  10
ATOM     10  C   LIG    1        2.409 -12.756  -1.185  0.00  0.00    +0.250 C 
BRANCH  10  17
ATOM     11  C   LIG    1        1.868 -17.692  -0.643  0.00  0.00    +0.030 C 
ATOM     12  C   LIG    1        1.677 -16.662  -1.758  0.00  0.00    -0.030 C 
ATOM     13  C   LIG    1        1.840 -17.345  -3.118  0.00  0.00    +0.030 C 
ATOM     14  C   LIG    1        1.615 -16.323  -4.234  0.00  0.00    -0.020 C 
ATOM     15  C   LIG    1        2.664 -15.211  -4.122  0.00  0.00    +0.290 C 
ATOM     16  N   LIG    1        2.611 -14.646  -2.767  0.00  0.00    -0.610 N 
ATOM     17  C   LIG    1        2.461 -13.320  -2.581  0.00  0.00    +0.520 C 
ATOM     18  O   LIG    1        2.368 -12.580  -3.538  0.00  0.00    -0.510 OA
ATOM     19  C   LIG    1        0.215 -15.719  -4.101  0.00  0.00    +0.030 C 
ATOM     20  C   LIG    1        2.732 -15.554  -1.618  0.00  0.00    +0.270 C 
ENDBRANCH  10  17
ENDBRANCH   9  10
ENDBRANCH   7   9
ENDBRANCH   1   7
BRANCH   4  21
ATOM     21  C   LIG    1        1.521  -4.936  -0.041  0.00  0.00    +0.150 C 
BRANCH  21  22
ATOM     22  S   LIG    1        3.148  -4.142  -0.052  0.00  0.00    +0.020 S 
BRANCH  22  23
ATOM     23  C   LIG    1        2.661  -2.448  -0.038  0.00  0.00    +0.080 A 
ATOM     24  N   LIG    1        1.440  -2.033  -0.024  0.00  0.00    -0.470 NA
ATOM     25  C   LIG    1        1.228  -0.702  -0.014  0.00  0.00    +0.090 A 
ATOM     26  C   LIG    1        0.002  -0.004   0.002  0.00  0.00    +0.070 A 
ATOM     27  C   LIG    1       -0.017   1.368   0.010  0.00  0.00    +0.040 A 
ATOM     28  C   LIG    1        1.167   2.090   0.002  0.00  0.00    +0.040 A 
ATOM     29  C   LIG    1        2.376   1.430  -0.013  0.00  0.00    +0.060 A 
ATOM     30  C   LIG    1        2.414   0.038  -0.021  0.00  0.00    -0.170 A 
ATOM     31  S   LIG    1        3.771  -1.085  -0.041  0.00  0.00    +0.110 S 
ENDBRANCH  22  23
ENDBRANCH  21  22
ENDBRANCH   4  21
TORSDOF 7
