REMARK  Name = ZINCqH00000014Fr.0
REMARK                            x       y       z     vdW  Elec       q    Type
REMARK                         _______ _______ _______ _____ _____    ______ ____
ROOT
ATOM      1  N   LIG    1       -2.432   1.041   0.019  0.00  0.00    -0.700 N 
ATOM      2  H   LIG    1       -2.411   0.071   0.013  0.00  0.00    +0.410 HD
ENDROOT
BRANCH   1   9
ATOM      3  C   LIG    1        0.176   5.139   0.028  0.00  0.00    +0.220 A 
ATOM      4  N   LIG    1        1.479   5.276   0.016  0.00  0.00    -0.260 NA
ATOM      5  N   LIG    1        2.046   4.120   0.005  0.00  0.00    -0.250 NA
ATOM      6  C   LIG    1        1.117   3.178   0.009  0.00  0.00    +0.110 A 
ATOM      7  C   LIG    1        1.156   1.770   0.001  0.00  0.00    +0.190 A 
ATOM      8  C   LIG    1       -0.013   1.076   0.008  0.00  0.00    -0.020 A 
ATOM      9  C   LIG    1       -1.243   1.762   0.018  0.00  0.00    +0.420 A 
ATOM     10  N   LIG    1       -1.280   3.074   0.030  0.00  0.00    -0.330 NA
ATOM     11  N   LIG    1       -0.098   3.817   0.024  0.00  0.00    -0.270 N 
BRANCH   3  13
ATOM     12  C   LIG    1       -1.700   6.145   1.299  0.00  0.00    +0.050 C 
ATOM     13  C   LIG    1       -0.835   6.257   0.043  0.00  0.00    +0.030 C 
ATOM     14  C   LIG    1       -1.723   6.158  -1.199  0.00  0.00    +0.050 C 
ATOM     15  C   LIG    1       -0.107   7.603   0.043  0.00  0.00    +0.080 C 
ENDBRANCH   3  13
ENDBRANCH   1   9
BRANCH   1  16
ATOM     16  C   LIG    1       -3.716   1.746   0.029  0.00  0.00    +0.250 C 
ATOM     17  C   LIG    1       -4.113   2.107  -1.406  0.00  0.00    -0.000 C 
ATOM     18  C   LIG    1       -4.311   0.818  -2.211  0.00  0.00    +0.210 C 
ATOM     19  O   LIG    1       -5.303   0.008  -1.576  0.00  0.00    -0.370 OA
ATOM     20  C   LIG    1       -4.963  -0.398  -0.249  0.00  0.00    +0.200 C 
ATOM     21  C   LIG    1       -4.793   0.841   0.634  0.00  0.00    +0.020 C 
BRANCH  20  22
ATOM     22  C   LIG    1       -6.062  -1.266   0.308  0.00  0.00    -0.090 A 
ATOM     23  C   LIG    1       -7.380  -1.007  -0.020  0.00  0.00    +0.040 A 
ATOM     24  C   LIG    1       -8.388  -1.806   0.487  0.00  0.00    +0.000 A 
ATOM     25  C   LIG    1       -8.079  -2.856   1.331  0.00  0.00    +0.000 A 
ATOM     26  C   LIG    1       -6.762  -3.111   1.663  0.00  0.00    +0.000 A 
ATOM     27  C   LIG    1       -5.753  -2.316   1.152  0.00  0.00    +0.010 A 
ENDBRANCH  20  22
ENDBRANCH   1  16
TORSDOF 4
