REMARK  Name = ZINCtV00000kIHhx.0
REMARK                            x       y       z     vdW  Elec       q    Type
REMARK                         _______ _______ _______ _____ _____    ______ ____
ROOT
ATOM      1  O   LIG    1       -0.207   1.379   2.438  0.00  0.00    -0.350 OA
ENDROOT
BRANCH   1   3
ATOM      2  O   LIG    1       -1.661   2.431   1.150  0.00  0.00    -0.480 OA
ATOM      3  C   LIG    1       -0.669   1.746   1.233  0.00  0.00    +0.480 C 
BRANCH   3   4
ATOM      4  C   LIG    1        0.048   1.304  -0.016  0.00  0.00    +0.130 C 
BRANCH   4   5
ATOM      5  S   LIG    1       -0.815   1.957  -1.472  0.00  0.00    -0.030 S 
BRANCH   5   6
ATOM      6  C   LIG    1        0.153   1.347  -2.813  0.00  0.00    -0.100 A 
ATOM      7  C   LIG    1       -0.209   1.649  -4.108  0.00  0.00    +0.050 A 
ATOM      8  C   LIG    1        0.565   1.161  -5.173  0.00  0.00    -0.030 A 
ATOM      9  C   LIG    1        0.228   1.447  -6.508  0.00  0.00    +0.020 A 
ATOM     10  C   LIG    1        1.001   0.959  -7.517  0.00  0.00    +0.020 A 
ATOM     11  C   LIG    1        2.122   0.177  -7.247  0.00  0.00    +0.010 A 
ATOM     12  C   LIG    1        2.478  -0.121  -5.967  0.00  0.00    +0.030 A 
ATOM     13  C   LIG    1        1.706   0.366  -4.899  0.00  0.00    -0.060 A 
ATOM     14  C   LIG    1        2.047   0.078  -3.565  0.00  0.00    +0.050 A 
ATOM     15  C   LIG    1        1.285   0.565  -2.551  0.00  0.00    -0.010 A 
ENDBRANCH   5   6
ENDBRANCH   4   5
ENDBRANCH   3   4
ENDBRANCH   1   3
BRANCH   1  16
ATOM     16  C   LIG    1       -0.948   1.841   3.598  0.00  0.00    +0.290 C 
BRANCH  16  17
ATOM     17  C   LIG    1       -0.285   1.335   4.853  0.00  0.00    -0.110 A 
ATOM     18  C   LIG    1        0.852   0.556   4.768  0.00  0.00    +0.050 A 
ATOM     19  C   LIG    1        1.462   0.092   5.919  0.00  0.00    +0.020 A 
ATOM     20  C   LIG    1        0.934   0.404   7.158  0.00  0.00    +0.030 A 
ATOM     21  C   LIG    1       -0.204   1.183   7.249  0.00  0.00    +0.020 A 
ATOM     22  C   LIG    1       -0.814   1.654   6.095  0.00  0.00    +0.090 A 
BRANCH  22  23
ATOM     23  O   LIG    1       -1.931   2.425   6.182  0.00  0.00    -0.260 OA
BRANCH  23  24
ATOM     24  C   LIG    1       -3.136   1.823   6.007  0.00  0.00    +0.120 A 
ATOM     25  C   LIG    1       -3.211   0.445   5.863  0.00  0.00    -0.070 A 
ATOM     26  C   LIG    1       -4.438  -0.166   5.691  0.00  0.00    +0.050 A 
ATOM     27  C   LIG    1       -5.591   0.597   5.652  0.00  0.00    -0.020 A 
ATOM     28  C   LIG    1       -5.519   1.971   5.789  0.00  0.00    +0.050 A 
ATOM     29  C   LIG    1       -4.295   2.585   5.967  0.00  0.00    -0.010 A 
ENDBRANCH  23  24
ENDBRANCH  22  23
ENDBRANCH  16  17
ENDBRANCH   1  16
TORSDOF 8
