REMARK  Name = ZINCrH00000No56W.0
REMARK                            x       y       z     vdW  Elec       q    Type
REMARK                         _______ _______ _______ _____ _____    ______ ____
ROOT
ATOM      1  C   LIG    1        0.442   9.591  -0.953  0.00  0.00    +0.190 C 
ATOM      2  C   LIG    1       -0.931  10.042  -1.456  0.00  0.00    +0.050 C 
ENDROOT
BRANCH   1   5
ATOM      3  N   LIG    1        1.602  11.727  -1.407  0.00  0.00    -0.670 N 
ATOM      4  H   LIG    1        0.933  12.172  -0.864  0.00  0.00    +0.410 HD
ATOM      5  C   LIG    1        1.516  10.401  -1.631  0.00  0.00    +0.520 C 
ATOM      6  O   LIG    1        2.304   9.860  -2.377  0.00  0.00    -0.500 OA
BRANCH   3  10
ATOM      7  C   LIG    1        4.746  13.921  -3.051  0.00  0.00    +0.130 A 
ATOM      8  C   LIG    1        4.246  14.255  -1.802  0.00  0.00    -0.040 A 
ATOM      9  C   LIG    1        3.201  13.532  -1.259  0.00  0.00    +0.040 A 
ATOM     10  C   LIG    1        2.659  12.464  -1.960  0.00  0.00    +0.120 A 
ATOM     11  C   LIG    1        3.159  12.129  -3.212  0.00  0.00    +0.090 A 
ATOM     12  C   LIG    1        4.200  12.856  -3.756  0.00  0.00    -0.050 A 
ATOM     13 CL   LIG    1        4.826  12.438  -5.320  0.00  0.00    -0.050 Cl
BRANCH   7  15
ATOM     14  C   LIG    1        6.285  15.717  -2.807  0.00  0.00    +0.240 C 
ATOM     15  O   LIG    1        5.771  14.636  -3.587  0.00  0.00    -0.300 OA
ENDBRANCH   7  15
ENDBRANCH   3  10
ENDBRANCH   1   5
BRANCH   1  16
ATOM     16  O   LIG    1        0.628   8.206  -1.253  0.00  0.00    -0.210 OA
BRANCH  16  17
ATOM     17  N   LIG    1        0.080   7.329  -0.287  0.00  0.00    -0.340 NA
ATOM     18  C   LIG    1        0.183   6.048  -0.444  0.00  0.00    +0.290 C 
BRANCH  18  19
ATOM     19  C   LIG    1       -0.388   5.133   0.564  0.00  0.00    -0.060 A 
ATOM     20  C   LIG    1       -1.038   5.648   1.687  0.00  0.00    +0.070 A 
ATOM     21  C   LIG    1       -1.571   4.791   2.627  0.00  0.00    -0.040 A 
ATOM     22  C   LIG    1       -1.461   3.418   2.461  0.00  0.00    +0.120 A 
ATOM     23  C   LIG    1       -0.812   2.898   1.343  0.00  0.00    +0.100 A 
ATOM     24  C   LIG    1       -0.273   3.751   0.399  0.00  0.00    +0.000 A 
BRANCH  23  25
ATOM     25  O   LIG    1       -0.706   1.552   1.183  0.00  0.00    -0.300 OA
ATOM     26  C   LIG    1       -0.029   1.089   0.013  0.00  0.00    +0.240 C 
ENDBRANCH  23  25
BRANCH  22  27
ATOM     27  O   LIG    1       -1.986   2.579   3.392  0.00  0.00    -0.300 OA
ATOM     28  C   LIG    1       -2.637   3.179   4.513  0.00  0.00    +0.240 C 
ENDBRANCH  22  27
ENDBRANCH  18  19
ENDBRANCH  16  17
ENDBRANCH   1  16
TORSDOF 8
