REMARK  Name = ZINCrg00000fSsCt.0
REMARK                            x       y       z     vdW  Elec       q    Type
REMARK                         _______ _______ _______ _____ _____    ______ ____
ROOT
ATOM      1  C   LIG    1        1.966   8.051   4.324  0.00  0.00    +0.200 C 
ATOM      2  N   LIG    1        2.110   7.063   5.408  0.00  0.00    -0.720 N 
ATOM      3  H   LIG    1        1.397   6.684   5.945  0.00  0.00    +0.440 HD
ATOM      4  C   LIG    1        3.428   6.791   5.503  0.00  0.00    +0.710 C 
ATOM      5  N   LIG    1        4.159   7.480   4.620  0.00  0.00    -0.680 N 
ATOM      6  H   LIG    1        5.123   7.416   4.543  0.00  0.00    +0.440 HD
ATOM      7  O   LIG    1        3.899   6.008   6.305  0.00  0.00    -0.520 OA
ATOM      8  C   LIG    1        3.389   8.276   3.851  0.00  0.00    +0.550 C 
ATOM      9  O   LIG    1        3.757   9.018   2.966  0.00  0.00    -0.420 OA
ENDROOT
BRANCH   1  15
ATOM     10  C   LIG    1       -0.697   8.346   5.880  0.00  0.00    +0.340 C 
ATOM     11  N   LIG    1        0.210   9.442   5.527  0.00  0.00    -0.440 N 
ATOM     12  C   LIG    1        0.038  10.767   5.825  0.00  0.00    +0.160 A 
ATOM     13  C   LIG    1        1.097  11.422   5.313  0.00  0.00    +0.160 A 
ATOM     14  N   LIG    1        1.897  10.521   4.723  0.00  0.00    -0.450 NA
ATOM     15  C   LIG    1        1.373   9.332   4.851  0.00  0.00    +0.180 A 
ENDBRANCH   1  15
BRANCH   1  16
ATOM     16  C   LIG    1        1.106   7.486   3.192  0.00  0.00    +0.330 C 
BRANCH  16  17
ATOM     17  N   LIG    1        1.674   6.216   2.733  0.00  0.00    -0.730 N 
ATOM     18  H   LIG    1        2.479   5.867   3.147  0.00  0.00    +0.400 HD
ATOM     19  C   LIG    1        1.079   5.533   1.735  0.00  0.00    +0.550 C 
ATOM     20  O   LIG    1        0.073   5.970   1.217  0.00  0.00    -0.530 OA
BRANCH  19  21
ATOM     21  C   LIG    1        1.664   4.227   1.263  0.00  0.00    -0.050 C 
ATOM     22  C   LIG    1        2.280   4.194  -0.137  0.00  0.00    +0.080 C 
ATOM     23  C   LIG    1        0.942   3.500   0.127  0.00  0.00    +0.050 C 
BRANCH  23  24
ATOM     24  C   LIG    1        0.934   1.993   0.160  0.00  0.00    -0.050 A 
ATOM     25  C   LIG    1       -0.266   1.309   0.215  0.00  0.00    +0.040 A 
ATOM     26  C   LIG    1       -0.273  -0.072   0.244  0.00  0.00    +0.030 A 
ATOM     27  C   LIG    1        0.920  -0.771   0.218  0.00  0.00    -0.040 A 
ATOM     28  C   LIG    1        2.121  -0.086   0.162  0.00  0.00    +0.030 A 
ATOM     29 CL   LIG    1        0.911  -2.507   0.255  0.00  0.00    -0.070 Cl
ATOM     30  C   LIG    1        2.127   1.295   0.133  0.00  0.00    +0.020 A 
ENDBRANCH  23  24
ENDBRANCH  19  21
ENDBRANCH  16  17
ENDBRANCH   1  16
TORSDOF 5
