REMARK  Name = ZINCrH000004nfz5.0
REMARK                            x       y       z     vdW  Elec       q    Type
REMARK                         _______ _______ _______ _____ _____    ______ ____
ROOT
ATOM      1  N   LIG    1        2.502   2.950  -0.006  0.00  0.00    -0.640 N 
ATOM      2  H   LIG    1        2.070   3.819   0.003  0.00  0.00    +0.420 HD
ATOM      3  C   LIG    1        3.847   2.866  -0.019  0.00  0.00    +0.700 C 
ATOM      4  N   LIG    1        4.592   3.989  -0.020  0.00  0.00    -0.620 N 
ATOM      5  C   LIG    1        3.940   5.301  -0.007  0.00  0.00    +0.270 C 
ATOM      6  O   LIG    1        4.388   1.778  -0.030  0.00  0.00    -0.520 OA
ENDROOT
BRANCH   1  12
ATOM      7  C   LIG    1       -0.752  -2.287  -0.004  0.00  0.00    +0.140 A 
ATOM      8  C   LIG    1        0.570  -2.719  -0.019  0.00  0.00    -0.040 A 
ATOM      9  C   LIG    1        1.600  -1.813  -0.024  0.00  0.00    +0.110 A 
ATOM     10  C   LIG    1        1.335  -0.427  -0.013  0.00  0.00    +0.070 A 
ATOM     11  N   LIG    1        2.210   0.599  -0.016  0.00  0.00    -0.460 NA
ATOM     12  C   LIG    1        1.736   1.796  -0.005  0.00  0.00    +0.350 A 
ATOM     13  S   LIG    1       -0.022   1.758   0.012  0.00  0.00    +0.070 S 
ATOM     14  C   LIG    1        0.002  -0.004   0.002  0.00  0.00    -0.140 A 
ATOM     15  C   LIG    1       -1.034  -0.934   0.006  0.00  0.00    +0.030 A 
BRANCH   7  17
ATOM     16  C   LIG    1       -1.400  -4.575  -0.012  0.00  0.00    +0.240 C 
ATOM     17  O   LIG    1       -1.766  -3.194   0.000  0.00  0.00    -0.310 OA
ENDBRANCH   7  17
ENDBRANCH   1  12
BRANCH   4  18
ATOM     18  C   LIG    1        6.054   3.898  -0.035  0.00  0.00    +0.370 C 
BRANCH  18  19
ATOM     19  C   LIG    1        6.542   3.874  -1.460  0.00  0.00    -0.110 A 
ATOM     20  C   LIG    1        6.696   2.668  -2.117  0.00  0.00    +0.060 A 
ATOM     21  C   LIG    1        7.139   2.642  -3.426  0.00  0.00    +0.020 A 
ATOM     22  C   LIG    1        7.441   3.827  -4.081  0.00  0.00    +0.060 A 
ATOM     23  O   LIG    1        7.886   3.785  -5.366  0.00  0.00    -0.310 OA
ATOM     24  C   LIG    1        7.820   5.008  -6.109  0.00  0.00    +0.220 C 
ATOM     25  C   LIG    1        8.376   6.135  -5.229  0.00  0.00    +0.220 C 
ATOM     26  O   LIG    1        7.576   6.215  -4.044  0.00  0.00    -0.310 OA
ATOM     27  C   LIG    1        7.290   5.040  -3.419  0.00  0.00    +0.040 A 
ATOM     28  C   LIG    1        6.840   5.059  -2.108  0.00  0.00    +0.030 A 
ENDBRANCH  18  19
ENDBRANCH   4  18
TORSDOF 4
