REMARK  Name = ZINCrH000004t2Ap.1
REMARK                            x       y       z     vdW  Elec       q    Type
REMARK                         _______ _______ _______ _____ _____    ______ ____
ROOT
ATOM      1  N   LIG    1        2.316   3.950  -0.046  0.00  0.00    -1.050 N 
ATOM      2  H   LIG    1        3.055   3.652  -0.598  0.00  0.00    +0.430 HD
ENDROOT
BRANCH   1   3
ATOM      3  C   LIG    1        1.146   3.186   0.030  0.00  0.00    +0.210 A 
ATOM      4  C   LIG    1       -0.087   3.811   0.137  0.00  0.00    -0.010 A 
ATOM      5  C   LIG    1       -1.242   3.053   0.212  0.00  0.00    +0.080 A 
ATOM      6  C   LIG    1       -1.172   1.673   0.176  0.00  0.00    -0.010 A 
ATOM      7  C   LIG    1        0.054   1.041   0.076  0.00  0.00    +0.100 A 
ATOM      8  C   LIG    1        1.217   1.792  -0.000  0.00  0.00    -0.170 A 
BRANCH   8   9
ATOM      9  S   LIG    1        2.780   0.990  -0.136  0.00  0.00    +0.010 S 
BRANCH   9  10
ATOM     10  C   LIG    1        3.180   1.187  -1.841  0.00  0.00    -0.110 A 
ATOM     11  C   LIG    1        2.352   1.936  -2.668  0.00  0.00    +0.010 A 
ATOM     12  C   LIG    1        2.671   2.093  -4.002  0.00  0.00    +0.050 A 
ATOM     13  C   LIG    1        3.808   1.496  -4.518  0.00  0.00    -0.040 A 
ATOM     14  C   LIG    1        4.631   0.745  -3.698  0.00  0.00    +0.050 A 
ATOM     15 CL   LIG    1        4.202   1.690  -6.198  0.00  0.00    -0.060 Cl
ATOM     16  C   LIG    1        4.321   0.589  -2.362  0.00  0.00    +0.060 A 
ENDBRANCH   9  10
ENDBRANCH   8   9
ENDBRANCH   1   3
BRANCH   1  17
ATOM     17  S   LIG    1        2.438   5.365   0.807  0.00  0.00    +2.720 S 
ATOM     18  O   LIG    1        1.298   6.141   0.462  0.00  0.00    -0.950 OA
ATOM     19  O   LIG    1        3.772   5.824   0.634  0.00  0.00    -0.940 OA
BRANCH  17  23
ATOM     20  C   LIG    1        0.391   4.418   5.563  0.00  0.00    +0.350 C 
ATOM     21  N   LIG    1        1.378   4.572   4.492  0.00  0.00    -0.390 N 
ATOM     22  C   LIG    1        1.107   4.923   3.212  0.00  0.00    +0.340 A 
ATOM     23  C   LIG    1        2.268   4.962   2.513  0.00  0.00    -0.750 A 
ATOM     24  C   LIG    1        3.306   4.630   3.389  0.00  0.00    +0.120 A 
ATOM     25  C   LIG    1        2.737   4.389   4.621  0.00  0.00    -0.060 A 
BRANCH  25  26
ATOM     26  C   LIG    1        3.448   4.008   5.845  0.00  0.00    +0.600 C 
ATOM     27  O   LIG    1        2.822   3.734   6.853  0.00  0.00    -0.550 OA
ATOM     28  N   LIG    1        4.795   3.961   5.855  0.00  0.00    -0.840 N 
ATOM     29  H   LIG    1        5.263   3.639   6.641  0.00  0.00    +0.410 HD
ATOM     30  H   LIG    1        5.296   4.250   5.076  0.00  0.00    +0.410 HD
ENDBRANCH  25  26
ENDBRANCH  17  23
ENDBRANCH   1  17
TORSDOF 6
