REMARK  Name = ZINCpk00000y6xxn.0
REMARK                            x       y       z     vdW  Elec       q    Type
REMARK                         _______ _______ _______ _____ _____    ______ ____
ROOT
ATOM      1  C   LIG    1        6.079   7.481   0.753  0.00  0.00    +0.090 C 
ATOM      2  C   LIG    1        4.737   8.181   0.986  0.00  0.00    +0.030 C 
ATOM      3  C   LIG    1        3.744   7.744  -0.096  0.00  0.00    +0.270 C 
ATOM      4  N   LIG    1        3.666   6.276  -0.101  0.00  0.00    -0.600 N 
ATOM      5  C   LIG    1        4.910   5.503  -0.222  0.00  0.00    +0.280 C 
ATOM      6  C   LIG    1        2.477   5.651   0.009  0.00  0.00    +0.550 C 
ATOM      7  O   LIG    1        2.433   4.440   0.099  0.00  0.00    -0.530 OA
ATOM      8  C   LIG    1        5.890   5.965   0.855  0.00  0.00    +0.040 C 
ENDROOT
BRANCH   1  11
ATOM      9  N   LIG    1        8.074   8.345   3.710  0.00  0.00    -0.360 N 
ATOM     10  N   LIG    1        6.939   7.797   3.093  0.00  0.00    -0.290 NA
ATOM     11  C   LIG    1        7.069   7.934   1.795  0.00  0.00    +0.100 A 
ATOM     12  C   LIG    1        8.277   8.576   1.548  0.00  0.00    -0.280 A 
ATOM     13  C   LIG    1        8.888   8.974   0.228  0.00  0.00    +0.300 C 
ATOM     14  O   LIG    1        9.943   9.908   0.493  0.00  0.00    -0.380 OA
ATOM     15  C   LIG    1       10.880   9.475   1.483  0.00  0.00    +0.240 C 
ATOM     16  C   LIG    1       10.216   9.500   2.868  0.00  0.00    +0.090 C 
ATOM     17  C   LIG    1        8.876   8.816   2.746  0.00  0.00    +0.090 A 
BRANCH   9  19
ATOM     18  C   LIG    1        7.760   9.694   5.726  0.00  0.00    +0.040 C 
ATOM     19  C   LIG    1        8.334   8.397   5.151  0.00  0.00    +0.320 C 
ENDBRANCH   9  19
ENDBRANCH   1  11
BRANCH   6  20
ATOM     20  C   LIG    1        1.227   6.439   0.020  0.00  0.00    +0.030 C 
ATOM     21  C   LIG    1        0.040   5.812   0.028  0.00  0.00    +0.060 C 
BRANCH  21  22
ATOM     22  C   LIG    1       -1.209   6.599   0.039  0.00  0.00    +0.490 C 
ATOM     23  O   LIG    1       -1.162   7.812   0.041  0.00  0.00    -0.500 OA
BRANCH  22  24
ATOM     24  O   LIG    1       -2.401   5.970   0.048  0.00  0.00    -0.350 OA
ATOM     25  C   LIG    1       -3.587   6.807   0.058  0.00  0.00    +0.290 C 
ENDBRANCH  22  24
ENDBRANCH  21  22
ENDBRANCH   6  20
TORSDOF 5
