REMARK  Name = ZINCqH0000006RZw.0
REMARK                            x       y       z     vdW  Elec       q    Type
REMARK                         _______ _______ _______ _____ _____    ______ ____
ROOT
ATOM      1  N   LIG    1       -2.486  -0.344   0.011  0.00  0.00    -0.660 N 
ATOM      2  H   LIG    1       -1.644  -0.819  -0.070  0.00  0.00    +0.410 HD
ATOM      3  C   LIG    1       -2.502   1.003   0.021  0.00  0.00    +0.560 C 
ATOM      4  O   LIG    1       -3.562   1.599   0.038  0.00  0.00    -0.500 OA
ENDROOT
BRANCH   3   5
ATOM      5  C   LIG    1       -1.231   1.757   0.011  0.00  0.00    -0.130 A 
ATOM      6  C   LIG    1       -0.013   1.076  -0.008  0.00  0.00    +0.070 A 
ATOM      7  C   LIG    1        1.173   1.782  -0.024  0.00  0.00    +0.040 A 
ATOM      8  C   LIG    1        1.159   3.165  -0.013  0.00  0.00    -0.000 A 
ATOM      9  C   LIG    1       -0.050   3.853   0.012  0.00  0.00    +0.150 A 
ATOM     10 CL   LIG    1        2.656   4.045  -0.032  0.00  0.00    -0.040 Cl
ATOM     11  C   LIG    1       -1.244   3.153   0.027  0.00  0.00    +0.120 A 
BRANCH   9  12
ATOM     12  N   LIG    1       -0.058   5.253   0.022  0.00  0.00    -0.580 N 
ATOM     13  C   LIG    1       -0.078   6.090  -1.184  0.00  0.00    +0.260 C 
ATOM     14  C   LIG    1       -0.521   7.491  -0.703  0.00  0.00    +0.060 C 
ATOM     15  C   LIG    1       -0.069   7.472   0.775  0.00  0.00    +0.070 C 
ATOM     16  C   LIG    1       -0.043   6.004   1.137  0.00  0.00    +0.520 C 
ATOM     17  O   LIG    1       -0.014   5.567   2.268  0.00  0.00    -0.510 OA
ENDBRANCH   9  12
ENDBRANCH   3   5
BRANCH   1  20
ATOM     18  C   LIG    1       -6.029  -1.272  -0.359  0.00  0.00    +0.180 A 
ATOM     19  C   LIG    1       -4.842  -0.563  -0.466  0.00  0.00    -0.040 A 
ATOM     20  C   LIG    1       -3.683  -1.058   0.118  0.00  0.00    +0.220 A 
ATOM     21  C   LIG    1       -3.713  -2.266   0.803  0.00  0.00    -0.070 A 
ATOM     22  C   LIG    1       -4.902  -2.970   0.913  0.00  0.00    +0.180 A 
ATOM     23  C   LIG    1       -6.059  -2.475   0.330  0.00  0.00    -0.170 A 
BRANCH  18  25
ATOM     24  C   LIG    1       -8.350  -1.569  -0.781  0.00  0.00    +0.250 C 
ATOM     25  O   LIG    1       -7.163  -0.787  -0.930  0.00  0.00    -0.310 OA
ENDBRANCH  18  25
BRANCH  22  26
ATOM     26  O   LIG    1       -4.933  -4.149   1.588  0.00  0.00    -0.310 OA
ATOM     27  C   LIG    1       -6.191  -4.825   1.657  0.00  0.00    +0.250 C 
ENDBRANCH  22  26
ENDBRANCH   1  20
TORSDOF 5
