REMARK  Name = ZINCpe000000YbrY.0
REMARK                            x       y       z     vdW  Elec       q    Type
REMARK                         _______ _______ _______ _____ _____    ______ ____
ROOT
ATOM      1  C   LIG    1       -0.030  -0.101   0.601  0.00  0.00    -0.300 A 
ATOM      2  C   LIG    1       -0.034   1.229   0.792  0.00  0.00    +0.220 A 
ATOM      3  C   LIG    1        1.210   1.766   1.129  0.00  0.00    -0.250 A 
ATOM      4  C   LIG    1        2.214   0.807   1.199  0.00  0.00    +0.060 A 
ATOM      5  N   LIG    1        3.500   1.202   1.524  0.00  0.00    -0.510 N 
ATOM      6  C   LIG    1        3.793   2.487   1.770  0.00  0.00    +0.710 A 
ATOM      7  N   LIG    1        2.864   3.454   1.716  0.00  0.00    -0.550 N 
ATOM      8  C   LIG    1        3.248   4.840   1.996  0.00  0.00    +0.350 C 
ATOM      9  O   LIG    1        4.938   2.785   2.050  0.00  0.00    -0.530 OA
ATOM     10  C   LIG    1        4.562   0.196   1.600  0.00  0.00    +0.350 C 
ATOM     11  C   LIG    1        1.585   3.170   1.409  0.00  0.00    +0.580 A 
ATOM     12  O   LIG    1        0.750   4.053   1.363  0.00  0.00    -0.490 OA
ATOM     13  S   LIG    1        1.585  -0.741   0.845  0.00  0.00    +0.310 S 
ENDROOT
BRANCH   1  15
ATOM     14  N   LIG    1       -1.057  -2.196  -0.101  0.00  0.00    -0.610 N 
ATOM     15  C   LIG    1       -1.204  -0.900   0.242  0.00  0.00    +0.600 C 
ATOM     16  O   LIG    1       -2.311  -0.395   0.253  0.00  0.00    -0.510 OA
ATOM     17  C   LIG    1        0.276  -2.803  -0.118  0.00  0.00    +0.320 C 
BRANCH  14  18
ATOM     18  C   LIG    1       -2.232  -2.997  -0.456  0.00  0.00    +0.390 C 
ATOM     19  C   LIG    1       -2.352  -4.180   0.507  0.00  0.00    +0.080 C 
BRANCH  18  24
ATOM     20  C   LIG    1       -3.073  -4.278  -5.223  0.00  0.00    +0.200 C 
ATOM     21  C   LIG    1       -2.425  -4.056  -3.881  0.00  0.00    +0.170 A 
ATOM     22  N   LIG    1       -1.204  -4.360  -3.556  0.00  0.00    -0.380 NA
ATOM     23  O   LIG    1       -0.987  -4.053  -2.403  0.00  0.00    +0.080 OA
ATOM     24  C   LIG    1       -2.083  -3.509  -1.865  0.00  0.00    +0.170 A 
ATOM     25  N   LIG    1       -3.005  -3.510  -2.797  0.00  0.00    -0.460 NA
ENDBRANCH  18  24
ENDBRANCH  14  18
ENDBRANCH   1  15
TORSDOF 3
