REMARK  Name = ZINCrD000004flQI.0
REMARK                            x       y       z     vdW  Elec       q    Type
REMARK                         _______ _______ _______ _____ _____    ______ ____
ROOT
ATOM      1  O   LIG    1        1.021   3.230  -1.830  0.00  0.00    -0.580 OA
ATOM      2  C   LIG    1        1.774   2.902  -0.933  0.00  0.00    +0.710 C 
ATOM      3  N   LIG    1        1.366   2.019  -0.000  0.00  0.00    -0.630 N 
ATOM      4  C   LIG    1       -0.020   1.531   0.013  0.00  0.00    +0.300 C 
ATOM      5  C   LIG    1       -0.003  -0.001   0.002  0.00  0.00    +0.030 C 
ATOM      6  C   LIG    1        0.853  -0.506   1.166  0.00  0.00    +0.100 C 
ATOM      7  C   LIG    1        2.289  -0.006   1.000  0.00  0.00    +0.030 C 
ATOM      8  C   LIG    1        2.299   1.526   1.022  0.00  0.00    +0.280 C 
ATOM      9  N   LIG    1        3.016   3.422  -0.872  0.00  0.00    -0.740 N 
ATOM     10  H   LIG    1        3.641   3.107  -0.200  0.00  0.00    +0.400 HD
ENDROOT
BRANCH   9  11
ATOM     11  C   LIG    1        3.422   4.462  -1.820  0.00  0.00    +0.260 C 
ATOM     12  C   LIG    1        4.548   5.300  -1.207  0.00  0.00    +0.040 C 
ATOM     13  C   LIG    1        4.802   6.533  -2.082  0.00  0.00    +0.120 C 
ATOM     14  C   LIG    1        4.946   6.080  -3.512  0.00  0.00    -0.030 A 
ATOM     15  C   LIG    1        4.556   4.872  -3.973  0.00  0.00    +0.010 A 
ATOM     16  N   LIG    1        4.837   4.819  -5.277  0.00  0.00    -0.480 NA
ATOM     17  C   LIG    1        5.385   5.947  -5.645  0.00  0.00    +0.390 A 
ATOM     18  N   LIG    1        5.469   6.762  -4.567  0.00  0.00    -0.560 N 
ATOM     19  H   LIG    1        5.833   7.661  -4.550  0.00  0.00    +0.420 HD
ATOM     20  C   LIG    1        3.917   3.808  -3.115  0.00  0.00    +0.130 C 
ENDBRANCH   9  11
BRANCH   6  21
ATOM     21  C   LIG    1        0.843  -2.013   1.179  0.00  0.00    +0.060 A 
ATOM     22  N   LIG    1        0.422  -2.740   2.158  0.00  0.00    -0.440 NA
ATOM     23  C   LIG    1        0.481  -4.048   2.003  0.00  0.00    -0.020 A 
ATOM     24  C   LIG    1        0.989  -4.445   0.833  0.00  0.00    -0.020 A 
ATOM     25  S   LIG    1        1.397  -3.006  -0.098  0.00  0.00    +0.200 S 
BRANCH  23  26
ATOM     26  C   LIG    1        0.019  -5.016   3.062  0.00  0.00    +0.550 C 
ATOM     27  F   LIG    1       -1.362  -4.886   3.241  0.00  0.00    -0.170 F 
ATOM     28  F   LIG    1        0.674  -4.737   4.266  0.00  0.00    -0.170 F 
ATOM     29  F   LIG    1        0.317  -6.322   2.661  0.00  0.00    -0.170 F 
ENDBRANCH  23  26
ENDBRANCH   6  21
TORSDOF 3
