REMARK  Name = ZINCrD000004flQI.1
REMARK                            x       y       z     vdW  Elec       q    Type
REMARK                         _______ _______ _______ _____ _____    ______ ____
ROOT
ATOM      1  O   LIG    1        0.151   1.172   2.450  0.00  0.00    -0.580 OA
ATOM      2  C   LIG    1        0.031   0.121   3.050  0.00  0.00    +0.710 C 
ATOM      3  N   LIG    1        0.714  -0.084   4.193  0.00  0.00    -0.630 N 
ATOM      4  C   LIG    1        1.523   0.991   4.785  0.00  0.00    +0.300 C 
ATOM      5  C   LIG    1        2.943   0.477   5.013  0.00  0.00    +0.030 C 
ATOM      6  C   LIG    1        2.892  -0.804   5.848  0.00  0.00    +0.100 C 
ATOM      7  C   LIG    1        2.104  -1.877   5.093  0.00  0.00    +0.030 C 
ATOM      8  C   LIG    1        0.669  -1.387   4.869  0.00  0.00    +0.270 C 
ATOM      9  N   LIG    1       -0.785  -0.839   2.571  0.00  0.00    -0.740 N 
ATOM     10  H   LIG    1       -0.826  -1.703   3.009  0.00  0.00    +0.400 HD
ENDROOT
BRANCH   9  11
ATOM     11  C   LIG    1       -1.610  -0.577   1.389  0.00  0.00    +0.270 C 
ATOM     12  C   LIG    1       -1.938  -1.899   0.691  0.00  0.00    +0.020 C 
ATOM     13  C   LIG    1       -2.585  -1.615  -0.670  0.00  0.00    +0.140 C 
ATOM     14  C   LIG    1       -3.704  -0.624  -0.469  0.00  0.00    +0.000 A 
ATOM     15  C   LIG    1       -3.847   0.139   0.636  0.00  0.00    -0.020 A 
ATOM     16  N   LIG    1       -4.962   0.898   0.457  0.00  0.00    -0.560 N 
ATOM     17  H   LIG    1       -5.325   1.547   1.081  0.00  0.00    +0.420 HD
ATOM     18  C   LIG    1       -5.469   0.577  -0.756  0.00  0.00    +0.390 A 
ATOM     19  N   LIG    1       -4.708  -0.335  -1.302  0.00  0.00    -0.480 NA
ATOM     20  C   LIG    1       -2.913   0.112   1.818  0.00  0.00    +0.110 C 
ENDBRANCH   9  11
BRANCH   6  21
ATOM     21  C   LIG    1        4.294  -1.296   6.100  0.00  0.00    +0.060 A 
ATOM     22  N   LIG    1        4.828  -1.440   7.266  0.00  0.00    -0.440 NA
ATOM     23  C   LIG    1        6.067  -1.886   7.308  0.00  0.00    -0.020 A 
ATOM     24  C   LIG    1        6.613  -2.122   6.111  0.00  0.00    -0.020 A 
ATOM     25  S   LIG    1        5.411  -1.736   4.882  0.00  0.00    +0.200 S 
BRANCH  23  26
ATOM     26  C   LIG    1        6.811  -2.107   8.601  0.00  0.00    +0.550 C 
ATOM     27  F   LIG    1        6.192  -3.131   9.325  0.00  0.00    -0.170 F 
ATOM     28  F   LIG    1        6.796  -0.928   9.354  0.00  0.00    -0.170 F 
ATOM     29  F   LIG    1        8.134  -2.465   8.322  0.00  0.00    -0.170 F 
ENDBRANCH  23  26
ENDBRANCH   6  21
TORSDOF 3
