REMARK  Name = ZINCqH0000008uM2.0
REMARK                            x       y       z     vdW  Elec       q    Type
REMARK                         _______ _______ _______ _____ _____    ______ ____
ROOT
ATOM      1  C   LIG    1       -4.715   3.820   0.552  0.00  0.00    +0.530 C 
ATOM      2  N   LIG    1       -5.957   3.296   0.572  0.00  0.00    -0.610 N 
ATOM      3  C   LIG    1       -6.215   1.924   0.111  0.00  0.00    +0.320 C 
ATOM      4  C   LIG    1       -7.459   1.907  -0.726  0.00  0.00    -0.030 C 
ATOM      5  C   LIG    1       -8.283   2.923  -0.816  0.00  0.00    -0.060 C 
ATOM      6  C   LIG    1       -8.091   4.234  -0.113  0.00  0.00    +0.070 C 
ATOM      7  C   LIG    1       -7.111   4.076   1.052  0.00  0.00    +0.290 C 
ATOM      8  O   LIG    1       -4.514   4.921   1.020  0.00  0.00    -0.510 OA
ENDROOT
BRANCH   5   9
ATOM      9  C   LIG    1       -9.480   2.767  -1.668  0.00  0.00    -0.070 A 
ATOM     10  C   LIG    1       -9.633   3.551  -2.813  0.00  0.00    +0.050 A 
ATOM     11  C   LIG    1      -10.749   3.396  -3.608  0.00  0.00    -0.010 A 
ATOM     12  C   LIG    1      -11.724   2.473  -3.265  0.00  0.00    +0.100 A 
ATOM     13  C   LIG    1      -11.581   1.696  -2.127  0.00  0.00    -0.010 A 
ATOM     14  F   LIG    1      -12.819   2.330  -4.044  0.00  0.00    -0.140 F 
ATOM     15  C   LIG    1      -10.465   1.838  -1.328  0.00  0.00    +0.050 A 
ENDBRANCH   5   9
BRANCH   1  17
ATOM     16  C   LIG    1       -3.730   3.008  -1.573  0.00  0.00    +0.060 C 
ATOM     17  C   LIG    1       -3.577   3.038  -0.051  0.00  0.00    +0.160 C 
BRANCH  17  18
ATOM     18  O   LIG    1       -2.337   3.662   0.291  0.00  0.00    -0.280 OA
BRANCH  18  19
ATOM     19  C   LIG    1       -1.229   2.878   0.275  0.00  0.00    +0.160 A 
ATOM     20  C   LIG    1        0.014   3.430   0.563  0.00  0.00    +0.000 A 
ATOM     21  C   LIG    1        1.142   2.640   0.541  0.00  0.00    +0.110 A 
ATOM     22  C   LIG    1        1.034   1.280   0.240  0.00  0.00    -0.070 A 
ATOM     23  C   LIG    1       -0.218   0.728  -0.043  0.00  0.00    +0.120 A 
ATOM     24  C   LIG    1       -1.340   1.526  -0.025  0.00  0.00    -0.080 A 
BRANCH  22  25
ATOM     25  C   LIG    1        2.204   0.453   0.223  0.00  0.00    +0.250 C 
ATOM     26  N   LIG    1        3.131  -0.202   0.209  0.00  0.00    -0.420 NA
ENDBRANCH  22  25
ENDBRANCH  18  19
ENDBRANCH  17  18
ENDBRANCH   1  17
TORSDOF 5
