REMARK  Name = ZINCrD00000F5Ltp.0
REMARK                            x       y       z     vdW  Elec       q    Type
REMARK                         _______ _______ _______ _____ _____    ______ ____
ROOT
ATOM      1  O   LIG    1        2.971  -4.799   1.463  0.00  0.00    -0.550 OA
ATOM      2  C   LIG    1        3.315  -3.813   2.086  0.00  0.00    +0.700 C 
ATOM      3  N   LIG    1        3.685  -2.696   1.430  0.00  0.00    -0.610 N 
ATOM      4  N   LIG    1        3.326  -3.838   3.434  0.00  0.00    -0.680 N 
ATOM      5  H   LIG    1        3.671  -3.079   3.930  0.00  0.00    +0.410 HD
ENDROOT
BRANCH   4   6
ATOM      6  C   LIG    1        2.840  -4.959   4.117  0.00  0.00    +0.150 A 
ATOM      7  C   LIG    1        3.396  -5.338   5.332  0.00  0.00    +0.220 A 
ATOM      8  N   LIG    1        2.942  -6.393   5.980  0.00  0.00    -0.430 NA
ATOM      9  C   LIG    1        1.952  -7.125   5.508  0.00  0.00    +0.220 A 
ATOM     10  C   LIG    1        1.346  -6.811   4.303  0.00  0.00    +0.080 A 
ATOM     11  F   LIG    1        0.332  -7.567   3.829  0.00  0.00    -0.120 F 
ATOM     12  C   LIG    1        1.790  -5.706   3.591  0.00  0.00    +0.040 A 
ENDBRANCH   4   6
BRANCH   3  13
ATOM     13  C   LIG    1        4.099  -1.508   2.181  0.00  0.00    +0.300 C 
BRANCH  13  14
ATOM     14  C   LIG    1        2.862  -0.698   2.576  0.00  0.00    +0.130 C 
ATOM     15  C   LIG    1        3.274   0.479   3.482  0.00  0.00    +0.010 C 
ATOM     16  C   LIG    1        2.782   1.734   2.720  0.00  0.00    +0.010 C 
ATOM     17  C   LIG    1        1.700   1.141   1.782  0.00  0.00    +0.200 C 
ATOM     18  O   LIG    1        2.248  -0.140   1.403  0.00  0.00    -0.370 OA
ENDBRANCH  13  14
ENDBRANCH   3  13
BRANCH   3  19
ATOM     19  C   LIG    1        3.673  -2.668  -0.035  0.00  0.00    +0.380 C 
BRANCH  19  20
ATOM     20  C   LIG    1        4.999  -3.157  -0.557  0.00  0.00    +0.040 A 
ATOM     21  C   LIG    1        5.161  -4.482  -0.956  0.00  0.00    -0.140 A 
ATOM     22  C   LIG    1        4.319  -5.616  -1.006  0.00  0.00    -0.070 A 
ATOM     23  C   LIG    1        5.077  -6.632  -1.498  0.00  0.00    +0.210 A 
ATOM     24  N   LIG    1        6.312  -6.196  -1.748  0.00  0.00    -0.540 NA
ATOM     25  C   LIG    1        6.426  -4.914  -1.444  0.00  0.00    +0.240 A 
ATOM     26  N   LIG    1        7.457  -4.013  -1.510  0.00  0.00    -0.500 N 
ATOM     27  H   LIG    1        8.323  -4.298  -1.842  0.00  0.00    +0.420 HD
ATOM     28  C   LIG    1        7.282  -2.740  -1.122  0.00  0.00    +0.320 A 
ATOM     29  C   LIG    1        6.085  -2.293  -0.650  0.00  0.00    -0.070 A 
ENDBRANCH  19  20
ENDBRANCH   3  19
TORSDOF 5
