REMARK  Name = ZINCvU0000000Exm.0
REMARK                            x       y       z     vdW  Elec       q    Type
REMARK                         _______ _______ _______ _____ _____    ______ ____
ROOT
ATOM      1  N   LIG    1        3.167   0.538  -1.500  0.00  0.00    -0.940 N 
ENDROOT
BRANCH   1   6
ATOM      2  C   LIG    1        0.652  -4.172  -3.409  0.00  0.00    +0.100 C 
ATOM      3  C   LIG    1        1.321  -2.920  -2.902  0.00  0.00    -0.100 A 
ATOM      4  C   LIG    1        0.721  -2.174  -1.904  0.00  0.00    +0.050 A 
ATOM      5  C   LIG    1        1.331  -1.027  -1.436  0.00  0.00    -0.020 A 
ATOM      6  C   LIG    1        2.548  -0.622  -1.970  0.00  0.00    +0.160 A 
ATOM      7  C   LIG    1        3.145  -1.371  -2.976  0.00  0.00    -0.010 A 
ATOM      8  C   LIG    1        2.532  -2.521  -3.435  0.00  0.00    +0.040 A 
ENDBRANCH   1   6
BRANCH   1   9
ATOM      9  S   LIG    1        2.871   1.069   0.041  0.00  0.00    +2.680 S 
ATOM     10  O   LIG    1        2.392  -0.054   0.767  0.00  0.00    -0.940 OA
ATOM     11  O   LIG    1        4.013   1.819   0.433  0.00  0.00    -0.940 OA
BRANCH   9  12
ATOM     12  C   LIG    1        1.532   2.211  -0.050  0.00  0.00    -0.690 A 
ATOM     13  C   LIG    1        0.241   1.784   0.200  0.00  0.00    +0.120 A 
ATOM     14  C   LIG    1       -0.809   2.679   0.123  0.00  0.00    +0.000 A 
ATOM     15  C   LIG    1       -0.568   4.003  -0.192  0.00  0.00    -0.020 A 
ATOM     16  C   LIG    1        0.723   4.430  -0.441  0.00  0.00    +0.000 A 
ATOM     17  C   LIG    1       -1.713   4.980  -0.270  0.00  0.00    +0.090 C 
ATOM     18  C   LIG    1        1.773   3.534  -0.370  0.00  0.00    +0.130 A 
ENDBRANCH   9  12
ENDBRANCH   1   9
BRANCH   1  19
ATOM     19  C   LIG    1        4.079   1.286  -2.370  0.00  0.00    +0.330 C 
BRANCH  19  20
ATOM     20  C   LIG    1        5.480   0.678  -2.282  0.00  0.00    +0.050 C 
BRANCH  20  21
ATOM     21  C   LIG    1        6.418   1.448  -3.177  0.00  0.00    +0.530 C 
ATOM     22  N   LIG    1        7.714   1.089  -3.261  0.00  0.00    -0.670 N 
ATOM     23  H   LIG    1        8.059   0.380  -2.697  0.00  0.00    +0.420 HD
ATOM     24  O   LIG    1        6.005   2.389  -3.821  0.00  0.00    -0.510 OA
BRANCH  22  25
ATOM     25  C   LIG    1        8.563   1.741  -4.164  0.00  0.00    +0.170 A 
ATOM     26  C   LIG    1        8.384   3.090  -4.436  0.00  0.00    +0.050 A 
ATOM     27  C   LIG    1        9.228   3.732  -5.323  0.00  0.00    +0.090 A 
ATOM     28  C   LIG    1       10.242   3.030  -5.948  0.00  0.00    -0.100 A 
ATOM     29  C   LIG    1       10.419   1.683  -5.683  0.00  0.00    +0.090 A 
ATOM     30 BR   LIG    1       11.388   3.911  -7.167  0.00  0.00    -0.030 Br
ATOM     31  C   LIG    1        9.583   1.037  -4.793  0.00  0.00    -0.060 A 
ATOM     32 CL   LIG    1        9.806  -0.652  -4.461  0.00  0.00    -0.050 Cl
ENDBRANCH  22  25
ENDBRANCH  20  21
ENDBRANCH  19  20
ENDBRANCH   1  19
TORSDOF 7
