REMARK  Name = ZINCpk00000y6ui0.0
REMARK                            x       y       z     vdW  Elec       q    Type
REMARK                         _______ _______ _______ _____ _____    ______ ____
ROOT
ATOM      1  O   LIG    1        0.028   3.528   1.700  0.00  0.00    -0.510 OA
ATOM      2  C   LIG    1        0.573   4.178   0.834  0.00  0.00    +0.520 C 
ATOM      3  N   LIG    1        0.453   5.521   0.824  0.00  0.00    -0.730 N 
ATOM      4  H   LIG    1        0.889   6.041   0.131  0.00  0.00    +0.400 HD
ENDROOT
BRANCH   2   5
ATOM      5  C   LIG    1        1.384   3.486  -0.231  0.00  0.00    +0.110 C 
ATOM      6  C   LIG    1        2.831   3.982  -0.174  0.00  0.00    +0.250 C 
ATOM      7  O   LIG    1        3.612   3.268  -1.136  0.00  0.00    -0.380 OA
ATOM      8  C   LIG    1        3.611   1.851  -0.941  0.00  0.00    +0.220 C 
ATOM      9  C   LIG    1        2.172   1.333  -1.005  0.00  0.00    +0.150 C 
ATOM     10  N   LIG    1        1.359   2.034   0.000  0.00  0.00    -0.510 NA
BRANCH  10  11
ATOM     11  C   LIG    1       -0.019   1.526   0.010  0.00  0.00    +0.190 C 
BRANCH  11  12
ATOM     12  C   LIG    1        0.002  -0.004   0.002  0.00  0.00    -0.010 C 
ATOM     13  C   LIG    1        0.058  -0.612  -1.410  0.00  0.00    +0.010 C 
ATOM     14  C   LIG    1       -0.933  -1.674  -0.906  0.00  0.00    +0.010 C 
ATOM     15  C   LIG    1       -1.392  -0.640   0.135  0.00  0.00    +0.020 C 
ENDBRANCH  11  12
ENDBRANCH  10  11
ENDBRANCH   2   5
BRANCH   3  16
ATOM     16  C   LIG    1       -0.336   6.194   1.859  0.00  0.00    +0.280 C 
BRANCH  16  17
ATOM     17  C   LIG    1       -0.310   7.705   1.618  0.00  0.00    +0.130 C 
BRANCH  17  18
ATOM     18  C   LIG    1       -1.121   8.397   2.683  0.00  0.00    +0.060 A 
ATOM     19  C   LIG    1       -0.680   9.386   3.491  0.00  0.00    +0.090 A 
ATOM     20  N   LIG    1       -1.721   9.734   4.308  0.00  0.00    -0.360 N 
ATOM     21  C   LIG    1       -1.843  10.660   5.303  0.00  0.00    +0.210 A 
ATOM     22  C   LIG    1       -3.009  10.803   5.969  0.00  0.00    +0.010 A 
ATOM     23  C   LIG    1       -4.114  10.000   5.644  0.00  0.00    +0.040 A 
ATOM     24  C   LIG    1       -4.006   9.073   4.653  0.00  0.00    +0.070 A 
ATOM     25  C   LIG    1       -2.782   8.935   3.968  0.00  0.00    +0.230 A 
ATOM     26  N   LIG    1       -2.397   8.140   2.980  0.00  0.00    -0.490 NA
ENDBRANCH  17  18
ENDBRANCH  16  17
ENDBRANCH   3  16
TORSDOF 6
