REMARK  Name = ZINCrD0000074uEn.0
REMARK                            x       y       z     vdW  Elec       q    Type
REMARK                         _______ _______ _______ _____ _____    ______ ____
ROOT
ATOM      1  C   LIG    1        1.203  -0.680  -0.011  0.00  0.00    +0.210 A 
ATOM      2  C   LIG    1        2.375   0.044  -0.171  0.00  0.00    +0.030 A 
ATOM      3  C   LIG    1        2.339   1.425  -0.161  0.00  0.00    +0.210 A 
ATOM      4  C   LIG    1        1.137   2.085   0.009  0.00  0.00    -0.690 A 
ATOM      5  C   LIG    1       -0.034   1.366   0.168  0.00  0.00    +0.240 A 
ATOM      6  C   LIG    1       -0.003  -0.015   0.159  0.00  0.00    -0.080 A 
ENDROOT
BRANCH   4   7
ATOM      7  S   LIG    1        1.094   3.847   0.021  0.00  0.00    +2.690 S 
ATOM      8  O   LIG    1       -0.228   4.219  -0.344  0.00  0.00    -0.930 OA
ATOM      9  O   LIG    1        2.248   4.280  -0.688  0.00  0.00    -0.930 OA
BRANCH   7  10
ATOM     10  N   LIG    1        1.300   4.331   1.591  0.00  0.00    -1.000 NA
ATOM     11  C   LIG    1        0.144   4.528   2.480  0.00  0.00    +0.270 C 
ATOM     12  C   LIG    1        0.406   3.756   3.783  0.00  0.00    +0.210 C 
ATOM     13  O   LIG    1        1.681   4.136   4.306  0.00  0.00    -0.370 OA
ATOM     14  C   LIG    1        2.783   3.814   3.454  0.00  0.00    +0.210 C 
ATOM     15  C   LIG    1        2.643   4.584   2.136  0.00  0.00    +0.270 C 
ENDBRANCH   7  10
ENDBRANCH   4   7
BRANCH   6  16
ATOM     16  N   LIG    1       -1.256  -0.785   0.330  0.00  0.00    +0.030 N 
ATOM     17  O   LIG    1       -1.229  -2.002   0.321  0.00  0.00    -0.130 OA
ATOM     18  O   LIG    1       -2.314  -0.200   0.478  0.00  0.00    -0.150 OA
ENDBRANCH   6  16
BRANCH   1  19
ATOM     19  O   LIG    1        1.235  -2.039  -0.020  0.00  0.00    -0.240 OA
BRANCH  19  27
ATOM     20  C   LIG    1        1.080  -4.859   0.026  0.00  0.00    +0.110 C 
ATOM     21  C   LIG    1        0.940  -4.059  -1.243  0.00  0.00    -0.070 A 
ATOM     22  C   LIG    1        0.722  -4.702  -2.445  0.00  0.00    +0.080 A 
ATOM     23  C   LIG    1        0.599  -3.968  -3.612  0.00  0.00    -0.050 A 
ATOM     24  C   LIG    1        0.689  -2.587  -3.575  0.00  0.00    +0.060 A 
ATOM     25  C   LIG    1        0.902  -1.940  -2.374  0.00  0.00    -0.060 A 
ATOM     26 CL   LIG    1        0.332  -4.779  -5.123  0.00  0.00    -0.060 Cl
ATOM     27  C   LIG    1        1.026  -2.674  -1.203  0.00  0.00    +0.130 A 
ENDBRANCH  19  27
ENDBRANCH   1  19
TORSDOF 5
