REMARK  Name = ZINCrg00000fSHdK.0
REMARK                            x       y       z     vdW  Elec       q    Type
REMARK                         _______ _______ _______ _____ _____    ______ ____
ROOT
ATOM      1  C   LIG    1        7.966  -0.632  -1.753  0.00  0.00    +0.520 C 
ATOM      2  N   LIG    1        6.796   0.028  -1.638  0.00  0.00    -0.610 N 
ATOM      3  C   LIG    1        6.772   1.492  -1.520  0.00  0.00    +0.290 C 
ATOM      4  C   LIG    1        6.000   1.868  -0.249  0.00  0.00    +0.310 C 
ATOM      5  N   LIG    1        4.726   1.135  -0.239  0.00  0.00    -0.630 N 
ATOM      6  C   LIG    1        4.751  -0.330  -0.352  0.00  0.00    +0.260 C 
ATOM      7  C   LIG    1        3.556   1.795  -0.124  0.00  0.00    +0.710 C 
ATOM      8  N   LIG    1        2.403   1.106  -0.008  0.00  0.00    -0.690 N 
ATOM      9  H   LIG    1        2.421   0.139   0.061  0.00  0.00    +0.410 HD
ATOM     10  O   LIG    1        3.541   3.010  -0.123  0.00  0.00    -0.570 OA
ATOM     11  C   LIG    1        5.523  -0.705  -1.629  0.00  0.00    +0.270 C 
ATOM     12  O   LIG    1        9.011  -0.016  -1.760  0.00  0.00    -0.500 OA
ENDROOT
BRANCH   8  13
ATOM     13  C   LIG    1        1.181   1.787   0.011  0.00  0.00    +0.160 A 
ATOM     14  C   LIG    1        0.059   1.219  -0.579  0.00  0.00    -0.030 A 
ATOM     15  C   LIG    1       -1.145   1.895  -0.563  0.00  0.00    +0.030 A 
ATOM     16  C   LIG    1       -1.237   3.133   0.048  0.00  0.00    -0.010 A 
ATOM     17  C   LIG    1       -0.121   3.701   0.636  0.00  0.00    +0.030 A 
ATOM     18  C   LIG    1        1.087   3.032   0.619  0.00  0.00    +0.020 A 
ENDBRANCH   8  13
BRANCH   1  19
ATOM     19  C   LIG    1        7.976  -2.134  -1.874  0.00  0.00    +0.270 C 
BRANCH  19  20
ATOM     20  O   LIG    1        9.346  -2.602  -1.984  0.00  0.00    -0.310 OA
BRANCH  20  22
ATOM     21  O   LIG    1        8.574  -4.678  -2.109  0.00  0.00    -0.490 OA
ATOM     22  C   LIG    1        9.531  -3.931  -2.100  0.00  0.00    +0.530 C 
BRANCH  22  23
ATOM     23  C   LIG    1       10.901  -4.480  -2.217  0.00  0.00    +0.040 A 
ATOM     24  C   LIG    1       11.095  -5.856  -2.337  0.00  0.00    +0.310 A 
ATOM     25  N   LIG    1       12.319  -6.341  -2.441  0.00  0.00    -0.440 NA
ATOM     26  C   LIG    1       13.358  -5.525  -2.432  0.00  0.00    +0.270 A 
ATOM     27  C   LIG    1       13.168  -4.155  -2.312  0.00  0.00    +0.240 A 
ATOM     28  N   LIG    1       11.950  -3.662  -2.213  0.00  0.00    -0.380 NA
ENDBRANCH  22  23
ENDBRANCH  20  22
ENDBRANCH  19  20
ENDBRANCH   1  19
TORSDOF 5
