REMARK  Name = ZINCpe00000MJMaD.0
REMARK                            x       y       z     vdW  Elec       q    Type
REMARK                         _______ _______ _______ _____ _____    ______ ____
ROOT
ATOM      1  O   LIG    1        2.417   5.940   3.819  0.00  0.00    -0.530 OA
ATOM      2  C   LIG    1        3.286   5.601   3.038  0.00  0.00    +0.610 C 
ATOM      3  N   LIG    1        3.004   4.726   2.053  0.00  0.00    -0.600 N 
ATOM      4  C   LIG    1        3.949   4.258   1.023  0.00  0.00    +0.270 C 
ATOM      5  C   LIG    1        3.389   2.888   0.565  0.00  0.00    +0.090 C 
ATOM      6  C   LIG    1        1.859   3.146   0.610  0.00  0.00    +0.210 C 
ATOM      7  C   LIG    1        1.698   4.083   1.825  0.00  0.00    +0.270 C 
ENDROOT
BRANCH   6   8
ATOM      8  C   LIG    1        1.108   1.858   0.827  0.00  0.00    -0.020 A 
ATOM      9  N   LIG    1        1.622   0.663   1.011  0.00  0.00    -0.260 NA
ATOM     10  N   LIG    1        0.662  -0.181   1.159  0.00  0.00    -0.240 N 
ATOM     11  H   LIG    1        0.783  -1.131   1.310  0.00  0.00    +0.470 HD
ATOM     12  N   LIG    1       -0.478   0.407   1.075  0.00  0.00    -0.280 NA
ATOM     13  C   LIG    1       -0.278   1.689   0.873  0.00  0.00    +0.190 A 
ENDBRANCH   6   8
BRANCH   2  14
ATOM     14  C   LIG    1        4.643   6.145   3.170  0.00  0.00    -0.080 A 
ATOM     15  C   LIG    1        5.680   5.981   2.295  0.00  0.00    +0.230 A 
ATOM     16  N   LIG    1        6.733   6.637   2.783  0.00  0.00    -0.490 NA
ATOM     17  C   LIG    1        6.416   7.198   3.922  0.00  0.00    +0.440 A 
ATOM     18  N   LIG    1        5.128   6.922   4.206  0.00  0.00    -0.380 N 
BRANCH  18  19
ATOM     19  C   LIG    1        4.415   7.342   5.338  0.00  0.00    +0.090 A 
ATOM     20  C   LIG    1        3.242   8.069   5.190  0.00  0.00    +0.110 A 
ATOM     21  C   LIG    1        2.539   8.479   6.306  0.00  0.00    +0.010 A 
ATOM     22  C   LIG    1        3.009   8.173   7.572  0.00  0.00    +0.120 A 
ATOM     23  C   LIG    1        4.182   7.452   7.722  0.00  0.00    +0.000 A 
ATOM     24  F   LIG    1        2.322   8.578   8.663  0.00  0.00    -0.130 F 
ATOM     25  C   LIG    1        4.885   7.037   6.608  0.00  0.00    +0.060 A 
ENDBRANCH  18  19
ENDBRANCH   2  14
BRANCH   6  26
ATOM     26  O   LIG    1        1.420   3.790  -0.587  0.00  0.00    -0.530 OA
ATOM     27  H   LIG    1        0.478   4.007  -0.594  0.00  0.00    +0.380 HD
ENDBRANCH   6  26
TORSDOF 4
