REMARK  Name = ZINCpe00000MJMaD.1
REMARK                            x       y       z     vdW  Elec       q    Type
REMARK                         _______ _______ _______ _____ _____    ______ ____
ROOT
ATOM      1  O   LIG    1        3.984  -0.153  -1.592  0.00  0.00    -0.530 OA
ATOM      2  C   LIG    1        3.500   0.873  -1.153  0.00  0.00    +0.610 C 
ATOM      3  N   LIG    1        2.164   1.046  -1.161  0.00  0.00    -0.600 N 
ATOM      4  C   LIG    1        1.443   2.184  -0.573  0.00  0.00    +0.250 C 
ATOM      5  C   LIG    1       -0.064   1.938  -0.799  0.00  0.00    +0.100 C 
ATOM      6  C   LIG    1       -0.139   0.402  -1.001  0.00  0.00    +0.210 C 
ATOM      7  C   LIG    1        1.182   0.123  -1.761  0.00  0.00    +0.270 C 
ENDROOT
BRANCH   6   8
ATOM      8  C   LIG    1       -1.334   0.025  -1.839  0.00  0.00    -0.040 A 
ATOM      9  C   LIG    1       -1.753  -1.227  -2.136  0.00  0.00    +0.170 A 
ATOM     10  N   LIG    1       -2.857  -1.083  -2.904  0.00  0.00    -0.390 N 
ATOM     11  H   LIG    1       -3.389  -1.804  -3.276  0.00  0.00    +0.450 HD
ATOM     12  N   LIG    1       -3.077   0.175  -3.062  0.00  0.00    -0.070 NA
ATOM     13  N   LIG    1       -2.187   0.863  -2.440  0.00  0.00    -0.240 NA
ENDBRANCH   6   8
BRANCH   2  14
ATOM     14  C   LIG    1        4.372   1.923  -0.615  0.00  0.00    -0.080 A 
ATOM     15  C   LIG    1        3.979   3.087  -0.014  0.00  0.00    +0.230 A 
ATOM     16  N   LIG    1        5.077   3.758   0.333  0.00  0.00    -0.490 NA
ATOM     17  C   LIG    1        6.140   3.084  -0.028  0.00  0.00    +0.440 A 
ATOM     18  N   LIG    1        5.755   1.937  -0.620  0.00  0.00    -0.380 N 
BRANCH  18  19
ATOM     19  C   LIG    1        6.597   0.945  -1.143  0.00  0.00    +0.090 A 
ATOM     20  C   LIG    1        6.493  -0.363  -0.690  0.00  0.00    +0.100 A 
ATOM     21  C   LIG    1        7.320  -1.340  -1.210  0.00  0.00    +0.010 A 
ATOM     22  C   LIG    1        8.259  -1.013  -2.174  0.00  0.00    +0.120 A 
ATOM     23  C   LIG    1        8.367   0.293  -2.623  0.00  0.00    +0.000 A 
ATOM     24  F   LIG    1        9.070  -1.968  -2.678  0.00  0.00    -0.130 F 
ATOM     25  C   LIG    1        7.538   1.271  -2.110  0.00  0.00    +0.060 A 
ENDBRANCH  18  19
ENDBRANCH   2  14
BRANCH   6  26
ATOM     26  O   LIG    1       -0.162  -0.280   0.254  0.00  0.00    -0.530 OA
ATOM     27  H   LIG    1       -0.208  -1.243   0.178  0.00  0.00    +0.380 HD
ENDBRANCH   6  26
TORSDOF 4
