REMARK  Name = ZINCpk00000ebvcK.0
REMARK                            x       y       z     vdW  Elec       q    Type
REMARK                         _______ _______ _______ _____ _____    ______ ____
ROOT
ATOM      1  C   LIG    1       -1.214   3.626   0.028  0.00  0.00    +0.260 C 
ATOM      2  C   LIG    1       -2.532   4.133   0.649  0.00  0.00    +0.050 C 
ATOM      3  C   LIG    1       -3.450   4.397  -0.570  0.00  0.00    -0.010 C 
ATOM      4  C   LIG    1       -2.468   4.975  -1.619  0.00  0.00    +0.020 C 
ATOM      5  C   LIG    1       -1.174   4.161  -1.414  0.00  0.00    +0.150 C 
ENDROOT
BRANCH   1   8
ATOM      6  O   LIG    1        1.024   2.123   0.004  0.00  0.00    -0.500 OA
ATOM      7  C   LIG    1       -0.018   1.503   0.010  0.00  0.00    +0.510 C 
ATOM      8  N   LIG    1       -1.195   2.161   0.019  0.00  0.00    -0.730 N 
ATOM      9  H   LIG    1       -2.028   1.664   0.021  0.00  0.00    +0.400 HD
BRANCH   7  10
ATOM     10  C   LIG    1        0.002  -0.004   0.002  0.00  0.00    +0.200 C 
BRANCH  10  11
ATOM     11  O   LIG    1        1.356  -0.462  -0.013  0.00  0.00    -0.360 OA
BRANCH  11  12
ATOM     12  C   LIG    1        1.488  -1.885  -0.022  0.00  0.00    +0.240 C 
BRANCH  12  13
ATOM     13  C   LIG    1        2.949  -2.254  -0.038  0.00  0.00    -0.150 A 
ATOM     14  C   LIG    1        3.641  -2.432   1.150  0.00  0.00    +0.090 A 
ATOM     15  C   LIG    1        4.984  -2.771   1.087  0.00  0.00    -0.040 A 
ATOM     16  C   LIG    1        5.584  -2.919  -0.149  0.00  0.00    +0.270 A 
ATOM     17  N   LIG    1        4.894  -2.741  -1.259  0.00  0.00    -0.490 NA
ATOM     18  C   LIG    1        3.615  -2.424  -1.238  0.00  0.00    +0.280 A 
ENDBRANCH  12  13
ENDBRANCH  11  12
ENDBRANCH  10  11
ENDBRANCH   7  10
ENDBRANCH   1   8
BRANCH   5  19
ATOM     19  O   LIG    1       -0.033   5.003  -1.592  0.00  0.00    -0.560 OA
ATOM     20  H   LIG    1        0.049   5.372  -2.482  0.00  0.00    +0.380 HD
ENDBRANCH   5  19
BRANCH   3  21
ATOM     21  C   LIG    1       -4.537   5.415  -0.220  0.00  0.00    +0.330 C 
BRANCH  21  22
ATOM     22  N   LIG    1       -5.459   5.554  -1.351  0.00  0.00    -0.360 N 
ATOM     23  C   LIG    1       -6.799   5.394  -1.308  0.00  0.00    +0.250 A 
ATOM     24  C   LIG    1       -7.280   5.608  -2.555  0.00  0.00    -0.190 A 
ATOM     25  C   LIG    1       -6.196   5.910  -3.388  0.00  0.00    +0.250 A 
ATOM     26 CL   LIG    1       -8.945   5.523  -3.036  0.00  0.00    -0.040 Cl
ATOM     27  N   LIG    1       -5.106   5.883  -2.666  0.00  0.00    -0.280 NA
ENDBRANCH  21  22
ENDBRANCH   3  21
TORSDOF 8
