REMARK  Name = ZINCqH0000001g75.0
REMARK                            x       y       z     vdW  Elec       q    Type
REMARK                         _______ _______ _______ _____ _____    ______ ____
ROOT
ATOM      1  N   LIG    1        4.378   2.540  -1.307  0.00  0.00    -0.530 NA
ENDROOT
BRANCH   1   2
ATOM      2  C   LIG    1        4.205   1.178  -1.829  0.00  0.00    +0.170 C 
BRANCH   2   4
ATOM      3  C   LIG    1        4.213  -0.220  -3.900  0.00  0.00    +0.000 C 
ATOM      4  C   LIG    1        4.237   1.211  -3.359  0.00  0.00    -0.030 C 
ATOM      5  C   LIG    1        3.016   1.973  -3.878  0.00  0.00    +0.020 C 
ENDBRANCH   2   4
ENDBRANCH   1   2
BRANCH   1   6
ATOM      6  C   LIG    1        3.726   2.688   0.002  0.00  0.00    +0.230 C 
BRANCH   6   7
ATOM      7  C   LIG    1        2.230   2.631  -0.172  0.00  0.00    -0.110 A 
ATOM      8  C   LIG    1        1.516   3.792  -0.396  0.00  0.00    +0.060 A 
ATOM      9  C   LIG    1        0.143   3.740  -0.555  0.00  0.00    +0.000 A 
ATOM     10  C   LIG    1       -0.515   2.527  -0.491  0.00  0.00    +0.040 A 
ATOM     11  C   LIG    1        0.197   1.364  -0.268  0.00  0.00    -0.020 A 
ATOM     12  C   LIG    1        1.572   1.415  -0.108  0.00  0.00    +0.100 A 
ATOM     13  F   LIG    1        2.269   0.279   0.110  0.00  0.00    -0.140 F 
ENDBRANCH   6   7
ENDBRANCH   1   6
BRANCH   1  14
ATOM     14  C   LIG    1        5.800   2.899  -1.230  0.00  0.00    +0.240 C 
BRANCH  14  15
ATOM     15  C   LIG    1        6.375   2.971  -2.621  0.00  0.00    -0.180 A 
ATOM     16  C   LIG    1        7.073   1.898  -3.156  0.00  0.00    +0.340 A 
ATOM     17  N   LIG    1        7.561   1.992  -4.381  0.00  0.00    -0.510 NA
ATOM     18  C   LIG    1        7.398   3.099  -5.092  0.00  0.00    +0.360 A 
ATOM     19  N   LIG    1        6.741   4.144  -4.608  0.00  0.00    -0.510 NA
ATOM     20  C   LIG    1        6.224   4.114  -3.392  0.00  0.00    +0.350 A 
BRANCH  18  21
ATOM     21  C   LIG    1        7.965   3.170  -6.461  0.00  0.00    -0.150 A 
ATOM     22  C   LIG    1        7.810   4.317  -7.243  0.00  0.00    +0.380 A 
ATOM     23  N   LIG    1        8.335   4.340  -8.456  0.00  0.00    -0.520 NA
ATOM     24  C   LIG    1        8.987   3.298  -8.932  0.00  0.00    +0.510 A 
ATOM     25  N   LIG    1        9.152   2.195  -8.229  0.00  0.00    -0.520 NA
ATOM     26  C   LIG    1        8.664   2.090  -7.006  0.00  0.00    +0.380 A 
ENDBRANCH  18  21
ENDBRANCH  14  15
ENDBRANCH   1  14
TORSDOF 7
