REMARK  Name = ZINCqH00000389oP.0
REMARK                            x       y       z     vdW  Elec       q    Type
REMARK                         _______ _______ _______ _____ _____    ______ ____
ROOT
ATOM      1  N   LIG    1        0.002  -0.004   0.002  0.00  0.00    -0.680 N 
ATOM      2  H   LIG    1        0.846  -0.477  -0.071  0.00  0.00    +0.410 HD
ATOM      3  C   LIG    1       -1.150  -0.694   0.111  0.00  0.00    +0.710 C 
ATOM      4  N   LIG    1       -1.125  -2.038   0.205  0.00  0.00    -0.730 N 
ATOM      5  H   LIG    1       -0.277  -2.509   0.194  0.00  0.00    +0.400 HD
ATOM      6  O   LIG    1       -2.213  -0.104   0.124  0.00  0.00    -0.570 OA
ENDROOT
BRANCH   1  11
ATOM      7  C   LIG    1        0.048   5.624   0.043  0.00  0.00    +0.130 C 
ATOM      8  C   LIG    1        0.014   4.117   0.020  0.00  0.00    +0.110 A 
ATOM      9  C   LIG    1       -1.054   3.469  -0.571  0.00  0.00    -0.020 A 
ATOM     10  C   LIG    1       -1.077   2.083  -0.592  0.00  0.00    +0.080 A 
ATOM     11  C   LIG    1       -0.018   1.395  -0.005  0.00  0.00    +0.110 A 
ATOM     12  C   LIG    1        1.020   2.118   0.568  0.00  0.00    +0.110 A 
ATOM     13  C   LIG    1        2.176   1.388   1.202  0.00  0.00    +0.120 C 
ATOM     14  N   LIG    1        1.004   3.436   0.563  0.00  0.00    -0.470 NA
ENDBRANCH   1  11
BRANCH   4  15
ATOM     15  C   LIG    1       -2.377  -2.789   0.324  0.00  0.00    +0.340 C 
BRANCH  15  16
ATOM     16  C   LIG    1       -2.174  -4.191  -0.190  0.00  0.00    -0.090 A 
ATOM     17  C   LIG    1       -1.001  -4.865   0.091  0.00  0.00    +0.020 A 
ATOM     18  C   LIG    1       -0.810  -6.151  -0.379  0.00  0.00    +0.030 A 
ATOM     19  C   LIG    1       -1.796  -6.768  -1.134  0.00  0.00    +0.050 A 
ATOM     20  O   LIG    1       -1.592  -8.033  -1.594  0.00  0.00    -0.310 OA
ATOM     21  C   LIG    1       -2.749  -8.753  -2.030  0.00  0.00    +0.220 C 
ATOM     22  C   LIG    1       -3.586  -7.826  -2.922  0.00  0.00    +0.230 C 
ATOM     23  O   LIG    1       -3.959  -6.679  -2.151  0.00  0.00    -0.310 OA
ATOM     24  C   LIG    1       -2.977  -6.090  -1.415  0.00  0.00    +0.060 A 
ATOM     25  C   LIG    1       -3.163  -4.802  -0.938  0.00  0.00    +0.040 A 
ENDBRANCH  15  16
BRANCH  15  26
ATOM     26  C   LIG    1       -2.804  -2.841   1.792  0.00  0.00    -0.060 C 
ATOM     27  C   LIG    1       -4.236  -2.420   2.127  0.00  0.00    +0.020 C 
ATOM     28  C   LIG    1       -3.063  -1.509   2.500  0.00  0.00    +0.030 C 
ENDBRANCH  15  26
ENDBRANCH   4  15
TORSDOF 4
