REMARK  Name = ZINCrD000000fIBO.0
REMARK                            x       y       z     vdW  Elec       q    Type
REMARK                         _______ _______ _______ _____ _____    ______ ____
ROOT
ATOM      1  C   LIG    1        0.075  -3.827   4.603  0.00  0.00    +0.130 A 
ATOM      2  C   LIG    1        0.233  -2.751   5.395  0.00  0.00    -0.120 A 
ATOM      3  S   LIG    1        0.134  -1.308   4.388  0.00  0.00    +0.200 S 
ATOM      4  C   LIG    1       -0.117  -2.316   2.966  0.00  0.00    +0.280 A 
ATOM      5  N   LIG    1       -0.115  -3.564   3.318  0.00  0.00    -0.500 NA
ENDROOT
BRANCH   1   9
ATOM      6  C   LIG    1        0.161  -7.800   6.122  0.00  0.00    +0.150 A 
ATOM      7  C   LIG    1       -0.036  -7.580   4.764  0.00  0.00    +0.020 A 
ATOM      8  C   LIG    1       -0.065  -6.294   4.270  0.00  0.00    +0.070 A 
ATOM      9  C   LIG    1        0.105  -5.212   5.133  0.00  0.00    -0.040 A 
ATOM     10  C   LIG    1        0.308  -5.435   6.494  0.00  0.00    +0.050 A 
ATOM     11  C   LIG    1        0.331  -6.723   6.985  0.00  0.00    -0.020 A 
BRANCH   6  14
ATOM     12  C   LIG    1        0.613 -11.529   6.357  0.00  0.00    +0.110 C 
ATOM     13  C   LIG    1        0.690 -10.105   5.868  0.00  0.00    +0.510 C 
ATOM     14  N   LIG    1        0.190  -9.106   6.622  0.00  0.00    -0.680 N 
ATOM     15  H   LIG    1       -0.151  -9.293   7.511  0.00  0.00    +0.410 HD
ATOM     16  O   LIG    1        1.203  -9.858   4.797  0.00  0.00    -0.520 OA
ENDBRANCH   6  14
ENDBRANCH   1   9
BRANCH   4  17
ATOM     17  N   LIG    1       -0.296  -1.847   1.671  0.00  0.00    -0.630 N 
ATOM     18  H   LIG    1       -0.429  -2.473   0.942  0.00  0.00    +0.430 HD
ATOM     19  C   LIG    1       -0.284  -0.521   1.426  0.00  0.00    +0.510 C 
ATOM     20  O   LIG    1       -0.118   0.262   2.337  0.00  0.00    -0.490 OA
BRANCH  19  21
ATOM     21  C   LIG    1       -0.477  -0.013   0.021  0.00  0.00    +0.170 C 
BRANCH  21  22
ATOM     22  C   LIG    1       -0.422   1.493   0.020  0.00  0.00    -0.230 A 
ATOM     23  C   LIG    1       -1.476   2.329   0.177  0.00  0.00    +0.110 A 
ATOM     24  N   LIG    1       -1.010   3.594   0.118  0.00  0.00    -0.370 N 
ATOM     25  N   LIG    1        0.374   3.534  -0.091  0.00  0.00    -0.290 NA
ATOM     26  C   LIG    1       -1.810   4.814   0.245  0.00  0.00    +0.360 C 
ATOM     27  C   LIG    1       -2.911   1.919   0.385  0.00  0.00    +0.140 C 
ATOM     28  C   LIG    1        0.725   2.275  -0.149  0.00  0.00    +0.090 A 
ATOM     29  C   LIG    1        2.124   1.756  -0.363  0.00  0.00    +0.150 C 
ENDBRANCH  21  22
ENDBRANCH  19  21
ENDBRANCH   4  17
TORSDOF 5
