REMARK  Name = ZINCnE000001Pdnj.0
REMARK                            x       y       z     vdW  Elec       q    Type
REMARK                         _______ _______ _______ _____ _____    ______ ____
ROOT
ATOM      1  C   LIG    1       -1.984   4.781  -2.230  0.00  0.00    +0.090 C 
ATOM      2  C   LIG    1       -2.899   4.661  -1.038  0.00  0.00    -0.020 A 
ATOM      3  C   LIG    1       -4.101   5.335  -1.020  0.00  0.00    -0.030 A 
ATOM      4  C   LIG    1       -4.944   5.226   0.077  0.00  0.00    +0.160 A 
ATOM      5  C   LIG    1       -4.579   4.438   1.160  0.00  0.00    -0.090 A 
ATOM      6  C   LIG    1       -3.380   3.756   1.146  0.00  0.00    +0.070 A 
ATOM      7  C   LIG    1       -2.530   3.868   0.047  0.00  0.00    -0.120 A 
ENDROOT
BRANCH   7   8
ATOM      8  C   LIG    1       -1.237   3.141   0.031  0.00  0.00    -0.050 A 
ATOM      9  C   LIG    1       -1.218   1.748   0.017  0.00  0.00    +0.050 A 
ATOM     10  C   LIG    1       -0.013   1.076   0.008  0.00  0.00    +0.020 A 
ATOM     11  C   LIG    1        1.177   1.782   0.000  0.00  0.00    -0.100 A 
ATOM     12  C   LIG    1        1.167   3.165   0.008  0.00  0.00    -0.010 A 
ATOM     13  C   LIG    1       -0.034   3.849   0.024  0.00  0.00    +0.110 A 
ATOM     14  F   LIG    1       -0.044   5.200   0.032  0.00  0.00    -0.130 F 
BRANCH  11  15
ATOM     15  C   LIG    1        2.489   1.041  -0.017  0.00  0.00    +0.170 C 
ATOM     16  C   LIG    1        2.947   0.782   1.420  0.00  0.00    +0.070 C 
ATOM     17  C   LIG    1        3.540   1.882  -0.743  0.00  0.00    +0.020 C 
BRANCH  15  18
ATOM     18  O   LIG    1        2.324  -0.205  -0.696  0.00  0.00    -0.550 OA
ATOM     19  H   LIG    1        2.034  -0.117  -1.614  0.00  0.00    +0.380 HD
ENDBRANCH  15  18
ENDBRANCH  11  15
ENDBRANCH   7   8
BRANCH   4  20
ATOM     20  O   LIG    1       -6.128   5.892   0.092  0.00  0.00    -0.280 OA
BRANCH  20  21
ATOM     21  C   LIG    1       -6.946   5.735   1.253  0.00  0.00    +0.110 C 
BRANCH  21  22
ATOM     22  C   LIG    1       -8.209   6.541   1.090  0.00  0.00    +0.500 C 
ATOM     23  O   LIG    1       -9.049   6.545   1.975  0.00  0.00    -0.690 OA
ATOM     24  O   LIG    1       -8.392   7.190   0.074  0.00  0.00    -0.670 OA
ENDBRANCH  21  22
ENDBRANCH  20  21
ENDBRANCH   4  20
TORSDOF 6
