REMARK  Name = ZINCpe00000gLHW8.2
REMARK                            x       y       z     vdW  Elec       q    Type
REMARK                         _______ _______ _______ _____ _____    ______ ____
ROOT
ATOM      1  C   LIG    1        3.936  -4.547   1.388  0.00  0.00    +0.300 C 
ENDROOT
BRANCH   1   2
ATOM      2  C   LIG    1        3.812  -6.070   1.465  0.00  0.00    +0.130 C 
ATOM      3  C   LIG    1        4.916  -6.655   2.380  0.00  0.00    +0.070 C 
ATOM      4  C   LIG    1        4.274  -7.996   2.826  0.00  0.00    +0.140 C 
ATOM      5  C   LIG    1        2.777  -7.642   2.950  0.00  0.00    +0.160 C 
ATOM      6  N   LIG    1        2.539  -6.451   2.114  0.00  0.00    -0.510 NA
BRANCH   4   7
ATOM      7  O   LIG    1        4.799  -8.414   4.088  0.00  0.00    -0.560 OA
ATOM      8  H   LIG    1        4.378  -9.207   4.447  0.00  0.00    +0.380 HD
ENDBRANCH   4   7
BRANCH   6   9
ATOM      9  C   LIG    1        1.495  -6.709   1.114  0.00  0.00    +0.220 C 
BRANCH   9  10
ATOM     10  C   LIG    1        0.243  -7.183   1.806  0.00  0.00    -0.090 A 
ATOM     11  C   LIG    1        0.040  -8.534   2.020  0.00  0.00    +0.000 A 
ATOM     12  C   LIG    1       -1.106  -8.968   2.659  0.00  0.00    +0.000 A 
ATOM     13  C   LIG    1       -2.054  -8.052   3.075  0.00  0.00    +0.000 A 
ATOM     14  C   LIG    1       -1.854  -6.702   2.857  0.00  0.00    +0.000 A 
ATOM     15  C   LIG    1       -0.706  -6.267   2.222  0.00  0.00    +0.030 A 
ENDBRANCH   9  10
ENDBRANCH   6   9
ENDBRANCH   1   2
BRANCH   1  17
ATOM     16  C   LIG    1        2.672  -2.675   0.473  0.00  0.00    +0.520 C 
ATOM     17  N   LIG    1        2.841  -4.008   0.577  0.00  0.00    -0.720 N 
ATOM     18  H   LIG    1        2.238  -4.611   0.114  0.00  0.00    +0.400 HD
ATOM     19  O   LIG    1        3.478  -1.921   0.975  0.00  0.00    -0.530 OA
BRANCH  16  20
ATOM     20  C   LIG    1        1.481  -2.122  -0.267  0.00  0.00    +0.240 C 
BRANCH  20  23
ATOM     21  C   LIG    1       -0.435   1.053   0.683  0.00  0.00    +0.110 C 
ATOM     22  C   LIG    1       -0.100  -0.315   0.144  0.00  0.00    +0.510 C 
ATOM     23  N   LIG    1        1.155  -0.793   0.256  0.00  0.00    -0.720 N 
ATOM     24  H   LIG    1        1.843  -0.258   0.683  0.00  0.00    +0.410 HD
ATOM     25  O   LIG    1       -0.959  -0.984  -0.389  0.00  0.00    -0.540 OA
ENDBRANCH  20  23
BRANCH  20  26
ATOM     26  C   LIG    1        1.811  -2.017  -1.758  0.00  0.00    -0.020 C 
ATOM     27  C   LIG    1        0.643  -1.357  -2.493  0.00  0.00    +0.030 C 
ATOM     28  C   LIG    1        2.047  -3.417  -2.328  0.00  0.00    +0.030 C 
ENDBRANCH  20  26
ENDBRANCH  16  20
ENDBRANCH   1  17
TORSDOF 8
