REMARK  Name = ZINCnE000005uieX.0
REMARK                            x       y       z     vdW  Elec       q    Type
REMARK                         _______ _______ _______ _____ _____    ______ ____
ROOT
ATOM      1  C   LIG    1        1.176   1.783   0.000  0.00  0.00    -0.090 A 
ATOM      2  C   LIG    1       -0.013   1.076   0.008  0.00  0.00    +0.050 A 
ATOM      3  C   LIG    1       -1.218   1.749   0.017  0.00  0.00    -0.070 A 
ATOM      4  C   LIG    1       -1.236   3.138   0.031  0.00  0.00    +0.200 A 
ATOM      5  C   LIG    1       -0.040   3.845   0.024  0.00  0.00    -0.080 A 
ATOM      6  C   LIG    1        1.162   3.166   0.008  0.00  0.00    +0.040 A 
ENDROOT
BRANCH   1   9
ATOM      7  C   LIG    1        3.427   1.296  -1.199  0.00  0.00    -0.100 C 
ATOM      8  C   LIG    1        3.765   1.867   0.180  0.00  0.00    +0.020 C 
ATOM      9  C   LIG    1        2.490   1.044  -0.016  0.00  0.00    +0.010 C 
BRANCH   7  11
ATOM     10  O   LIG    1        4.416  -0.030  -2.890  0.00  0.00    -0.700 OA
ATOM     11  C   LIG    1        4.251   0.136  -1.693  0.00  0.00    +0.520 C 
ATOM     12  O   LIG    1        4.754  -0.638  -0.896  0.00  0.00    -0.700 OA
ENDBRANCH   7  11
ENDBRANCH   1   9
BRANCH   4  13
ATOM     13  N   LIG    1       -2.454   3.822   0.046  0.00  0.00    -0.750 N 
ATOM     14  H   LIG    1       -2.465   4.792   0.052  0.00  0.00    +0.390 HD
BRANCH  13  15
ATOM     15  C   LIG    1       -3.714   3.075   0.054  0.00  0.00    +0.320 C 
BRANCH  15  16
ATOM     16  C   LIG    1       -4.870   4.041   0.070  0.00  0.00    -0.120 A 
ATOM     17  C   LIG    1       -5.524   4.311   1.254  0.00  0.00    +0.060 A 
ATOM     18  C   LIG    1       -6.584   5.198   1.281  0.00  0.00    -0.020 A 
ATOM     19  C   LIG    1       -6.996   5.811   0.112  0.00  0.00    +0.060 A 
ATOM     20  C   LIG    1       -6.346   5.542  -1.073  0.00  0.00    -0.180 A 
ATOM     21  C   LIG    1       -6.551   6.053  -2.486  0.00  0.00    +0.070 C 
ATOM     22  C   LIG    1       -5.227   5.640  -3.170  0.00  0.00    +0.240 C 
ATOM     23  O   LIG    1       -4.795   4.521  -2.377  0.00  0.00    -0.300 OA
ATOM     24  C   LIG    1       -5.280   4.654  -1.112  0.00  0.00    +0.130 A 
ENDBRANCH  15  16
ENDBRANCH  13  15
ENDBRANCH   4  13
TORSDOF 5
