REMARK  Name = ZINCvU0000000Jea.0
REMARK                            x       y       z     vdW  Elec       q    Type
REMARK                         _______ _______ _______ _____ _____    ______ ____
ROOT
ATOM      1  C   LIG    1       -7.851   0.426  -2.057  0.00  0.00    +0.140 A 
ATOM      2  C   LIG    1       -6.863   0.956  -2.820  0.00  0.00    -0.150 A 
ATOM      3  C   LIG    1       -6.960   0.331  -4.138  0.00  0.00    -0.070 A 
ATOM      4  C   LIG    1       -6.230   0.455  -5.324  0.00  0.00    +0.030 A 
ATOM      5  C   LIG    1       -6.579  -0.301  -6.421  0.00  0.00    +0.070 A 
ATOM      6  C   LIG    1       -7.646  -1.188  -6.352  0.00  0.00    +0.010 A 
ATOM      7  C   LIG    1       -8.371  -1.326  -5.188  0.00  0.00    +0.030 A 
ATOM      8  F   LIG    1       -5.879  -0.180  -7.571  0.00  0.00    -0.140 F 
ATOM      9  C   LIG    1       -8.037  -0.573  -4.068  0.00  0.00    +0.090 A 
ATOM     10  N   LIG    1       -8.561  -0.492  -2.795  0.00  0.00    -0.590 N 
ATOM     11  H   LIG    1       -9.317  -1.005  -2.469  0.00  0.00    +0.420 HD
ENDROOT
BRANCH   1  15
ATOM     12  C   LIG    1       -8.634   1.445   1.994  0.00  0.00    +0.140 A 
ATOM     13  C   LIG    1       -9.675   1.407   1.075  0.00  0.00    -0.010 A 
ATOM     14  C   LIG    1       -9.425   1.077  -0.239  0.00  0.00    +0.070 A 
ATOM     15  C   LIG    1       -8.123   0.781  -0.648  0.00  0.00    -0.080 A 
ATOM     16  C   LIG    1       -7.080   0.816   0.279  0.00  0.00    +0.080 A 
ATOM     17  C   LIG    1       -7.337   1.152   1.591  0.00  0.00    -0.080 A 
BRANCH  12  19
ATOM     18  C   LIG    1       -7.767   1.790   4.180  0.00  0.00    +0.240 C 
ATOM     19  O   LIG    1       -8.884   1.770   3.289  0.00  0.00    -0.320 OA
ENDBRANCH  12  19
ENDBRANCH   1  15
BRANCH   2  20
ATOM     20  C   LIG    1       -5.861   1.997  -2.393  0.00  0.00    +0.130 C 
BRANCH  20  21
ATOM     21  C   LIG    1       -6.450   3.392  -2.609  0.00  0.00    +0.060 C 
BRANCH  21  22
ATOM     22  C   LIG    1       -5.458   4.433  -2.156  0.00  0.00    +0.510 C 
ATOM     23  N   LIG    1       -5.763   5.742  -2.252  0.00  0.00    -0.720 N 
ATOM     24  H   LIG    1       -6.622   6.014  -2.613  0.00  0.00    +0.410 HD
ATOM     25  O   LIG    1       -4.385   4.092  -1.706  0.00  0.00    -0.540 OA
BRANCH  23  26
ATOM     26  C   LIG    1       -4.799   6.753  -1.813  0.00  0.00    +0.300 C 
ATOM     27  C   LIG    1       -3.817   7.049  -2.948  0.00  0.00    +0.040 C 
BRANCH  26  28
ATOM     28  C   LIG    1       -5.531   8.016  -1.439  0.00  0.00    +0.120 A 
ATOM     29  C   LIG    1       -4.961   8.894  -0.537  0.00  0.00    -0.020 A 
ATOM     30  C   LIG    1       -5.645  10.051  -0.196  0.00  0.00    +0.070 A 
ATOM     31  C   LIG    1       -6.882  10.282  -0.778  0.00  0.00    -0.030 A 
ATOM     32  C   LIG    1       -7.388   9.358  -1.672  0.00  0.00    +0.270 A 
ATOM     33  N   LIG    1       -6.710   8.269  -1.974  0.00  0.00    -0.480 NA
ENDBRANCH  26  28
ENDBRANCH  23  26
ENDBRANCH  21  22
ENDBRANCH  20  21
ENDBRANCH   2  20
TORSDOF 7
