REMARK  Name = ZINCpe00000MFAUR.0
REMARK                            x       y       z     vdW  Elec       q    Type
REMARK                         _______ _______ _______ _____ _____    ______ ____
ROOT
ATOM      1  N   LIG    1        1.811   2.568  -1.583  0.00  0.00    -1.120 NA
ATOM      2  H   LIG    1        2.612   2.162  -1.951  0.00  0.00    +0.420 HD
ENDROOT
BRANCH   1   3
ATOM      3  C   LIG    1        0.961   3.409  -2.429  0.00  0.00    +0.240 C 
ATOM      4  C   LIG    1        1.532   4.843  -2.506  0.00  0.00    +0.040 C 
ATOM      5  C   LIG    1        2.333   4.824  -3.836  0.00  0.00    +0.180 C 
ATOM      6  N   LIG    1        1.490   3.986  -4.727  0.00  0.00    -0.470 N 
ATOM      7  C   LIG    1        0.970   2.891  -3.879  0.00  0.00    +0.190 C 
BRANCH   6   8
ATOM      8  C   LIG    1        2.239   3.481  -5.794  0.00  0.00    +0.080 A 
ATOM      9  C   LIG    1        3.369   2.713  -5.549  0.00  0.00    -0.010 A 
ATOM     10  C   LIG    1        4.106   2.215  -6.606  0.00  0.00    +0.020 A 
ATOM     11  C   LIG    1        3.720   2.480  -7.907  0.00  0.00    +0.020 A 
ATOM     12  C   LIG    1        2.595   3.245  -8.155  0.00  0.00    +0.030 A 
ATOM     13  C   LIG    1        1.849   3.741  -7.103  0.00  0.00    -0.010 A 
ATOM     14 CL   LIG    1        0.433   4.695  -7.416  0.00  0.00    -0.050 Cl
ENDBRANCH   6   8
ENDBRANCH   1   3
BRANCH   1  15
ATOM     15  S   LIG    1        1.405   2.308   0.001  0.00  0.00    +2.780 S 
ATOM     16  O   LIG    1        2.394   1.437   0.531  0.00  0.00    -0.970 OA
ATOM     17  O   LIG    1        1.115   3.584   0.555  0.00  0.00    -0.970 OA
BRANCH  15  19
ATOM     18  C   LIG    1        0.002  -0.004   0.002  0.00  0.00    +0.310 C 
ATOM     19  N   LIG    1       -0.018   1.461   0.010  0.00  0.00    -1.000 NA
BRANCH  19  20
ATOM     20  C   LIG    1       -1.296   2.176   0.020  0.00  0.00    +0.270 C 
ATOM     21  C   LIG    1       -2.096   1.789   1.277  0.00  0.00    +0.080 C 
ATOM     22  C   LIG    1       -3.541   2.307   1.060  0.00  0.00    -0.310 C 
ATOM     23  S   LIG    1       -3.864   1.868  -0.690  0.00  0.00    +2.390 S 
ATOM     24  O   LIG    1       -4.509   2.956  -1.337  0.00  0.00    -0.930 OA
ATOM     25  O   LIG    1       -4.435   0.568  -0.751  0.00  0.00    -0.930 OA
ATOM     26  C   LIG    1       -2.117   1.788  -1.226  0.00  0.00    -0.330 C 
ENDBRANCH  19  20
ENDBRANCH  15  19
ENDBRANCH   1  15
TORSDOF 5
