REMARK  Name = ZINCvU0000000Af2.0
REMARK                            x       y       z     vdW  Elec       q    Type
REMARK                         _______ _______ _______ _____ _____    ______ ____
ROOT
ATOM      1  C   LIG    1        6.171  -0.503  -0.107  0.00  0.00    +0.180 C 
ENDROOT
BRANCH   1   2
ATOM      2  C   LIG    1        6.445  -1.424   1.054  0.00  0.00    -0.090 A 
ATOM      3  C   LIG    1        7.050  -0.934   2.197  0.00  0.00    +0.050 A 
ATOM      4  C   LIG    1        7.297  -1.778   3.264  0.00  0.00    +0.000 A 
ATOM      5  C   LIG    1        6.947  -3.113   3.185  0.00  0.00    +0.010 A 
ATOM      6  C   LIG    1        6.348  -3.604   2.040  0.00  0.00    +0.010 A 
ATOM      7  C   LIG    1        6.096  -2.759   0.975  0.00  0.00    +0.010 A 
ENDBRANCH   1   2
BRANCH   1  10
ATOM      8  N   LIG    1        3.755   0.012   0.011  0.00  0.00    -0.670 N 
ATOM      9  H   LIG    1        3.578  -0.889  -0.303  0.00  0.00    +0.410 HD
ATOM     10  C   LIG    1        5.022   0.410   0.236  0.00  0.00    +0.520 C 
ATOM     11  O   LIG    1        5.239   1.504   0.715  0.00  0.00    -0.490 OA
BRANCH   8  15
ATOM     12  C   LIG    1        0.593   2.651   0.669  0.00  0.00    +0.130 A 
ATOM     13  C   LIG    1        1.704   2.679   1.499  0.00  0.00    -0.040 A 
ATOM     14  C   LIG    1        2.751   1.805   1.282  0.00  0.00    +0.080 A 
ATOM     15  C   LIG    1        2.692   0.898   0.232  0.00  0.00    +0.120 A 
ATOM     16  C   LIG    1        1.580   0.870  -0.599  0.00  0.00    +0.040 A 
ATOM     17  C   LIG    1        0.533   1.745  -0.381  0.00  0.00    -0.050 A 
ATOM     18 CL   LIG    1       -0.857   1.711  -1.420  0.00  0.00    -0.050 Cl
BRANCH  12  20
ATOM     19  C   LIG    1       -0.306   4.421   1.978  0.00  0.00    +0.240 C 
ATOM     20  O   LIG    1       -0.435   3.516   0.880  0.00  0.00    -0.300 OA
ENDBRANCH  12  20
ENDBRANCH   8  15
ENDBRANCH   1  10
BRANCH   1  21
ATOM     21  N   LIG    1        7.369   0.300  -0.387  0.00  0.00    -0.510 NA
ATOM     22  C   LIG    1        8.537  -0.559  -0.620  0.00  0.00    +0.210 C 
BRANCH  21  23
ATOM     23  C   LIG    1        7.143   1.201  -1.526  0.00  0.00    +0.210 C 
BRANCH  23  24
ATOM     24  C   LIG    1        8.224   2.284  -1.541  0.00  0.00    +0.220 C 
BRANCH  24  25
ATOM     25  O   LIG    1        9.492   1.687  -1.819  0.00  0.00    -0.310 OA
BRANCH  25  26
ATOM     26  C   LIG    1       10.567   2.517  -1.869  0.00  0.00    +0.150 A 
ATOM     27  C   LIG    1       10.404   3.878  -1.660  0.00  0.00    -0.060 A 
ATOM     28  C   LIG    1       11.499   4.720  -1.707  0.00  0.00    +0.080 A 
ATOM     29  C   LIG    1       12.756   4.206  -1.971  0.00  0.00    -0.130 A 
ATOM     30  C   LIG    1       12.920   2.849  -2.184  0.00  0.00    +0.090 A 
ATOM     31 BR   LIG    1       14.252   5.361  -2.041  0.00  0.00    -0.050 Br
ATOM     32  C   LIG    1       11.829   2.004  -2.134  0.00  0.00    -0.010 A 
ENDBRANCH  25  26
ENDBRANCH  24  25
ENDBRANCH  23  24
ENDBRANCH  21  23
ENDBRANCH   1  21
TORSDOF 9
