REMARK  Name = ZINCpk000000nIrW.0
REMARK                            x       y       z     vdW  Elec       q    Type
REMARK                         _______ _______ _______ _____ _____    ______ ____
ROOT
ATOM      1  C   LIG    1       -1.065   1.646   0.101  0.00  0.00    +0.500 C 
ATOM      2  N   LIG    1        0.131   1.092   0.384  0.00  0.00    -0.670 N 
ATOM      3  H   LIG    1        0.257   0.135   0.288  0.00  0.00    +0.410 HD
ATOM      4  O   LIG    1       -1.200   2.851   0.138  0.00  0.00    -0.490 OA
ENDROOT
BRANCH   2   5
ATOM      5  C   LIG    1        1.192   1.899   0.809  0.00  0.00    +0.150 A 
ATOM      6  C   LIG    1        1.341   3.180   0.292  0.00  0.00    +0.060 A 
ATOM      7  C   LIG    1        2.385   3.983   0.713  0.00  0.00    +0.040 A 
ATOM      8  C   LIG    1        3.292   3.512   1.641  0.00  0.00    +0.010 A 
ATOM      9  C   LIG    1        3.154   2.225   2.161  0.00  0.00    -0.020 A 
ATOM     10  C   LIG    1        2.099   1.418   1.741  0.00  0.00    +0.050 A 
BRANCH   9  11
ATOM     11  C   LIG    1        4.126   1.718   3.156  0.00  0.00    +0.290 A 
ATOM     12  N   LIG    1        3.952   0.700   3.972  0.00  0.00    -0.320 NA
ATOM     13  N   LIG    1        4.993   0.526   4.703  0.00  0.00    -0.040 NA
ATOM     14  N   LIG    1        5.891   1.408   4.423  0.00  0.00    -0.080 NA
ATOM     15  N   LIG    1        5.361   2.219   3.404  0.00  0.00    -0.380 N 
ATOM     16  C   LIG    1        6.006   3.361   2.751  0.00  0.00    +0.400 C 
ENDBRANCH   9  11
ENDBRANCH   2   5
BRANCH   1  17
ATOM     17  C   LIG    1       -2.235   0.768  -0.261  0.00  0.00    +0.270 C 
BRANCH  17  18
ATOM     18  N   LIG    1       -3.464   1.565  -0.255  0.00  0.00    -0.610 N 
ATOM     19  C   LIG    1       -4.575   1.369   0.684  0.00  0.00    +0.250 C 
ATOM     20  C   LIG    1       -5.781   2.101   0.055  0.00  0.00    +0.040 C 
ATOM     21  C   LIG    1       -5.082   3.164  -0.823  0.00  0.00    +0.040 C 
ATOM     22  C   LIG    1       -3.717   2.575  -1.106  0.00  0.00    +0.530 C 
ATOM     23  O   LIG    1       -2.963   2.956  -1.976  0.00  0.00    -0.510 OA
ENDBRANCH  17  18
BRANCH  17  25
ATOM     24  C   LIG    1       -0.783  -0.727  -1.638  0.00  0.00    +0.030 C 
ATOM     25  C   LIG    1       -2.017   0.177  -1.655  0.00  0.00    -0.010 C 
ATOM     26  C   LIG    1       -3.244  -0.643  -2.059  0.00  0.00    +0.040 C 
ENDBRANCH  17  25
ENDBRANCH   1  17
TORSDOF 5
