REMARK  Name = ZINCqH0000032qFA.0
REMARK                            x       y       z     vdW  Elec       q    Type
REMARK                         _______ _______ _______ _____ _____    ______ ____
ROOT
ATOM      1  C   LIG    1        1.279   2.109   0.001  0.00  0.00    +0.290 C 
ENDROOT
BRANCH   1   2
ATOM      2  N   LIG    1        0.991   3.546   0.012  0.00  0.00    -0.710 N 
ATOM      3  H   LIG    1        0.153   3.870   0.376  0.00  0.00    +0.410 HD
ATOM      4  C   LIG    1        1.892   4.417  -0.486  0.00  0.00    +0.570 C 
ATOM      5  O   LIG    1        2.942   4.010  -0.943  0.00  0.00    -0.510 OA
BRANCH   4   6
ATOM      6  C   LIG    1        1.602   5.867  -0.475  0.00  0.00    -0.100 A 
ATOM      7  C   LIG    1        0.393   6.333   0.045  0.00  0.00    +0.070 A 
ATOM      8  C   LIG    1        0.124   7.684   0.060  0.00  0.00    +0.090 A 
ATOM      9  C   LIG    1        1.056   8.588  -0.454  0.00  0.00    +0.010 A 
ATOM     10  C   LIG    1        2.265   8.121  -0.980  0.00  0.00    -0.010 A 
ATOM     11 CL   LIG    1        3.424   9.243  -1.621  0.00  0.00    -0.040 Cl
ATOM     12  C   LIG    1        2.535   6.769  -0.990  0.00  0.00    +0.110 A 
BRANCH   9  13
ATOM     13  C   LIG    1        0.774   9.992  -0.444  0.00  0.00    +0.240 C 
ATOM     14  N   LIG    1        0.550  11.105  -0.436  0.00  0.00    -0.380 NA
ENDBRANCH   9  13
ENDBRANCH   4   6
ENDBRANCH   1   2
BRANCH   1  16
ATOM     15  C   LIG    1        2.398   0.244   1.230  0.00  0.00    +0.040 C 
ATOM     16  C   LIG    1        2.098   1.744   1.241  0.00  0.00    -0.020 C 
ATOM     17  C   LIG    1        3.412   2.527   1.232  0.00  0.00    +0.040 C 
ENDBRANCH   1  16
BRANCH   1  18
ATOM     18  C   LIG    1       -0.016   1.338   0.009  0.00  0.00    +0.460 C 
ATOM     19  O   LIG    1       -1.071   1.928   0.018  0.00  0.00    -0.500 OA
BRANCH  18  20
ATOM     20  O   LIG    1        0.002  -0.004   0.002  0.00  0.00    -0.330 OA
BRANCH  20  21
ATOM     21  C   LIG    1       -1.282  -0.681   0.011  0.00  0.00    +0.270 C 
BRANCH  21  22
ATOM     22  C   LIG    1       -1.065  -2.172   0.001  0.00  0.00    -0.100 A 
ATOM     23  C   LIG    1       -0.982  -2.850  -1.201  0.00  0.00    +0.030 A 
ATOM     24  C   LIG    1       -0.778  -4.217  -1.210  0.00  0.00    +0.010 A 
ATOM     25  C   LIG    1       -0.666  -4.908  -0.018  0.00  0.00    +0.020 A 
ATOM     26  C   LIG    1       -0.754  -4.230   1.184  0.00  0.00    +0.010 A 
ATOM     27  C   LIG    1       -0.954  -2.862   1.193  0.00  0.00    +0.030 A 
ENDBRANCH  21  22
ENDBRANCH  20  21
ENDBRANCH  18  20
ENDBRANCH   1  18
TORSDOF 8
