REMARK  Name = ZINCrH000004mQ8l.0
REMARK                            x       y       z     vdW  Elec       q    Type
REMARK                         _______ _______ _______ _____ _____    ______ ____
ROOT
ATOM      1  C   LIG    1        3.851  -4.679  -0.373  0.00  0.00    +0.340 C 
ENDROOT
BRANCH   1   5
ATOM      2  N   LIG    1        1.304  -2.051  -0.021  0.00  0.00    -0.680 N 
ATOM      3  H   LIG    1        0.493  -2.576   0.062  0.00  0.00    +0.410 HD
ATOM      4  C   LIG    1        2.497  -2.667  -0.137  0.00  0.00    +0.700 C 
ATOM      5  N   LIG    1        2.554  -4.009  -0.246  0.00  0.00    -0.740 N 
ATOM      6  H   LIG    1        1.737  -4.532  -0.241  0.00  0.00    +0.400 HD
ATOM      7  O   LIG    1        3.521  -2.012  -0.144  0.00  0.00    -0.570 OA
BRANCH   2  11
ATOM      8  C   LIG    1        1.038   2.066   0.033  0.00  0.00    +0.300 A 
ATOM      9  C   LIG    1        2.036   1.480  -0.734  0.00  0.00    -0.020 A 
ATOM     10  C   LIG    1        2.142   0.101  -0.764  0.00  0.00    +0.110 A 
ATOM     11  C   LIG    1        1.236  -0.650  -0.020  0.00  0.00    +0.080 A 
ATOM     12  C   LIG    1        0.264   0.004   0.723  0.00  0.00    +0.280 A 
ATOM     13  N   LIG    1        0.194   1.322   0.728  0.00  0.00    -0.520 NA
BRANCH   8  15
ATOM     14  C   LIG    1       -0.121   3.962   0.876  0.00  0.00    +0.260 C 
ATOM     15  O   LIG    1        0.926   3.418   0.070  0.00  0.00    -0.310 OA
ENDBRANCH   8  15
ENDBRANCH   2  11
ENDBRANCH   1   5
BRANCH   1  16
ATOM     16  C   LIG    1        3.640  -6.167  -0.478  0.00  0.00    -0.120 A 
ATOM     17  C   LIG    1        3.616  -6.944   0.665  0.00  0.00    +0.040 A 
ATOM     18  C   LIG    1        3.418  -8.309   0.569  0.00  0.00    +0.010 A 
ATOM     19  C   LIG    1        3.252  -8.898  -0.671  0.00  0.00    +0.040 A 
ATOM     20  C   LIG    1        3.281  -8.121  -1.814  0.00  0.00    -0.090 A 
ATOM     21  C   LIG    1        3.475  -6.756  -1.718  0.00  0.00    +0.050 A 
BRANCH  20  22
ATOM     22  C   LIG    1        3.100  -8.763  -3.166  0.00  0.00    +0.220 C 
BRANCH  22  23
ATOM     23  O   LIG    1        4.375  -9.149  -3.683  0.00  0.00    -0.380 OA
BRANCH  23  24
ATOM     24  C   LIG    1        4.316  -9.771  -4.969  0.00  0.00    +0.290 C 
BRANCH  24  25
ATOM     25  C   LIG    1        5.709 -10.134  -5.415  0.00  0.00    -0.020 A 
ATOM     26  C   LIG    1        6.336 -11.298  -5.167  0.00  0.00    -0.030 A 
ATOM     27  C   LIG    1        7.613 -11.211  -5.768  0.00  0.00    -0.070 A 
ATOM     28  C   LIG    1        7.693  -9.997  -6.341  0.00  0.00    +0.180 A 
ATOM     29  O   LIG    1        6.536  -9.349  -6.124  0.00  0.00    -0.170 OA
ENDBRANCH  24  25
ENDBRANCH  23  24
ENDBRANCH  22  23
ENDBRANCH  20  22
ENDBRANCH   1  16
TORSDOF 8
