REMARK  Name = ZINCkj000005iA3v.1
REMARK                            x       y       z     vdW  Elec       q    Type
REMARK                         _______ _______ _______ _____ _____    ______ ____
ROOT
ATOM      1  C   LIG    1       -1.664   2.801   4.053  0.00  0.00    +0.220 C 
ATOM      2  C   LIG    1       -2.603   2.348   3.131  0.00  0.00    -0.110 C 
ATOM      3  C   LIG    1       -2.167   1.715   1.985  0.00  0.00    +0.340 C 
ATOM      4  N   LIG    1       -0.879   1.544   1.756  0.00  0.00    -0.440 NA
ATOM      5  C   LIG    1        0.041   1.964   2.603  0.00  0.00    +0.160 C 
ATOM      6  H   LIG    1       -0.600   1.096   0.941  0.00  0.00    +0.450 HD
ATOM      7  C   LIG    1       -4.077   2.539   3.384  0.00  0.00    +0.160 C 
ATOM      8  C   LIG    1       -0.314   2.606   3.772  0.00  0.00    -0.080 C 
ATOM      9  C   LIG    1        0.744   3.082   4.734  0.00  0.00    +0.160 C 
ENDROOT
BRANCH   1  11
ATOM     10  C   LIG    1       -2.202   4.843   5.143  0.00  0.00    +0.280 C 
ATOM     11  O   LIG    1       -2.054   3.423   5.195  0.00  0.00    -0.320 OA
ENDBRANCH   1  11
BRANCH   5  12
ATOM     12  C   LIG    1        1.498   1.742   2.290  0.00  0.00    +0.300 C 
BRANCH  12  13
ATOM     13  N   LIG    1        2.096   2.999   1.822  0.00  0.00    -0.550 NA
ATOM     14  C   LIG    1        3.482   2.939   1.869  0.00  0.00    +0.210 C 
ATOM     15  C   LIG    1        4.147   4.318   1.704  0.00  0.00    +0.090 C 
ATOM     16  C   LIG    1        4.261   4.636   0.232  0.00  0.00    -0.330 C 
ATOM     17  S   LIG    1        2.854   5.649  -0.337  0.00  0.00    +2.400 S 
ATOM     18  C   LIG    1        1.423   4.911   0.514  0.00  0.00    -0.320 C 
ATOM     19  O   LIG    1        2.695   5.446  -1.734  0.00  0.00    -0.930 OA
ATOM     20  O   LIG    1        3.030   6.972   0.151  0.00  0.00    -0.930 OA
ATOM     21  C   LIG    1        1.528   3.404   0.522  0.00  0.00    +0.220 C 
ENDBRANCH  12  13
ENDBRANCH   5  12
TORSDOF 3
