REMARK  Name = ZINCrD00000hQ6ay.0
REMARK                            x       y       z     vdW  Elec       q    Type
REMARK                         _______ _______ _______ _____ _____    ______ ____
ROOT
ATOM      1  C   LIG    1       -3.830   1.600  -0.635  0.00  0.00    +0.230 C 
ATOM      2  C   LIG    1       -4.133   0.571   0.475  0.00  0.00    +0.070 C 
ATOM      3  C   LIG    1       -5.646   0.786   0.744  0.00  0.00    +0.040 C 
ATOM      4  C   LIG    1       -5.782   2.317   0.548  0.00  0.00    +0.250 C 
ATOM      5  N   LIG    1       -4.869   2.638  -0.564  0.00  0.00    -0.600 N 
ATOM      6  C   LIG    1       -4.969   3.706  -1.380  0.00  0.00    +0.590 C 
ATOM      7  O   LIG    1       -4.209   3.825  -2.321  0.00  0.00    -0.500 OA
ENDROOT
BRANCH   6   8
ATOM      8  C   LIG    1       -6.003   4.731  -1.130  0.00  0.00    -0.110 A 
ATOM      9  C   LIG    1       -6.354   5.069   0.178  0.00  0.00    +0.080 A 
ATOM     10  C   LIG    1       -7.319   6.031   0.404  0.00  0.00    -0.040 A 
ATOM     11  C   LIG    1       -7.943   6.654  -0.663  0.00  0.00    +0.080 A 
ATOM     12  C   LIG    1       -7.604   6.321  -1.962  0.00  0.00    +0.050 A 
ATOM     13 CL   LIG    1       -7.753   6.456   2.030  0.00  0.00    -0.050 Cl
ATOM     14  C   LIG    1       -6.638   5.364  -2.203  0.00  0.00    +0.010 A 
ATOM     15 CL   LIG    1       -6.213   4.946  -3.833  0.00  0.00    -0.030 Cl
ENDBRANCH   6   8
BRANCH   1  18
ATOM     16  N   LIG    1       -1.371   1.440  -0.413  0.00  0.00    -0.730 N 
ATOM     17  H   LIG    1       -1.451   0.485  -0.566  0.00  0.00    +0.400 HD
ATOM     18  C   LIG    1       -2.473   2.216  -0.406  0.00  0.00    +0.510 C 
ATOM     19  O   LIG    1       -2.374   3.409  -0.216  0.00  0.00    -0.520 OA
BRANCH  16  20
ATOM     20  C   LIG    1       -0.052   2.040  -0.197  0.00  0.00    +0.280 C 
BRANCH  20  21
ATOM     21  C   LIG    1        1.020   0.950  -0.261  0.00  0.00    +0.170 C 
BRANCH  21  22
ATOM     22  N   LIG    1        2.343   1.551  -0.044  0.00  0.00    -0.530 NA
BRANCH  22  24
ATOM     23  C   LIG    1        4.030   3.134  -0.848  0.00  0.00    +0.030 C 
ATOM     24  C   LIG    1        2.724   2.407  -1.175  0.00  0.00    +0.170 C 
ENDBRANCH  22  24
BRANCH  22  25
ATOM     25  C   LIG    1        3.357   0.517   0.200  0.00  0.00    +0.180 C 
BRANCH  25  26
ATOM     26  C   LIG    1        3.232   0.008   1.637  0.00  0.00    +0.380 C 
ATOM     27  F   LIG    1        1.981  -0.592   1.812  0.00  0.00    -0.200 F 
ATOM     28  F   LIG    1        3.363   1.081   2.525  0.00  0.00    -0.190 F 
ENDBRANCH  25  26
ENDBRANCH  22  25
ENDBRANCH  21  22
ENDBRANCH  20  21
ENDBRANCH  16  20
ENDBRANCH   1  18
TORSDOF 8
