REMARK  Name = ZINCvU0000000Fvl.0
REMARK                            x       y       z     vdW  Elec       q    Type
REMARK                         _______ _______ _______ _____ _____    ______ ____
ROOT
ATOM      1  C   LIG    1       -6.519  -1.819   0.053  0.00  0.00    -0.120 A 
ATOM      2  C   LIG    1       -5.885  -1.502   1.256  0.00  0.00    +0.090 A 
ATOM      3  C   LIG    1       -4.667  -0.854   1.241  0.00  0.00    +0.040 A 
ATOM      4  C   LIG    1       -4.074  -0.519   0.037  0.00  0.00    -0.060 A 
ATOM      5  C   LIG    1       -4.698  -0.825  -1.159  0.00  0.00    +0.040 A 
ATOM      6  C   LIG    1       -5.914  -1.478  -1.158  0.00  0.00    +0.050 A 
ENDROOT
BRANCH   1   8
ATOM      7  O   LIG    1       -8.348  -2.808   1.118  0.00  0.00    -0.510 OA
ATOM      8  C   LIG    1       -7.824  -2.513   0.061  0.00  0.00    +0.560 C 
ATOM      9  N   LIG    1       -8.432  -2.818  -1.102  0.00  0.00    -0.670 N 
ATOM     10  H   LIG    1       -8.048  -2.523  -1.942  0.00  0.00    +0.410 HD
BRANCH   9  11
ATOM     11  C   LIG    1       -9.618  -3.559  -1.097  0.00  0.00    +0.140 A 
ATOM     12  C   LIG    1       -9.877  -4.465  -2.118  0.00  0.00    -0.010 A 
ATOM     13  C   LIG    1      -11.048  -5.197  -2.108  0.00  0.00    +0.030 A 
ATOM     14  C   LIG    1      -11.966  -5.024  -1.089  0.00  0.00    -0.010 A 
ATOM     15  C   LIG    1      -11.713  -4.119  -0.073  0.00  0.00    +0.030 A 
ATOM     16  C   LIG    1      -10.543  -3.386  -0.075  0.00  0.00    +0.020 A 
ENDBRANCH   9  11
ENDBRANCH   1   8
BRANCH   4  17
ATOM     17  C   LIG    1       -2.743   0.189   0.028  0.00  0.00    +0.160 C 
BRANCH  17  18
ATOM     18  S   LIG    1       -1.409  -1.035   0.000  0.00  0.00    +0.090 S 
BRANCH  18  19
ATOM     19  C   LIG    1       -0.011   0.037  -0.005  0.00  0.00    +0.140 A 
ATOM     20  N   LIG    1       -0.036   1.349   0.007  0.00  0.00    -0.290 NA
ATOM     21  N   LIG    1        1.170   1.797  -0.003  0.00  0.00    -0.240 NA
ATOM     22  C   LIG    1        2.005   0.800  -0.022  0.00  0.00    +0.160 A 
ATOM     23  O   LIG    1        1.282  -0.337  -0.024  0.00  0.00    -0.200 OA
BRANCH  22  24
ATOM     24  C   LIG    1        3.509   0.899  -0.039  0.00  0.00    +0.380 C 
BRANCH  24  25
ATOM     25  O   LIG    1        4.000   0.918   1.303  0.00  0.00    -0.310 OA
BRANCH  25  26
ATOM     26  C   LIG    1        5.347   1.004   1.466  0.00  0.00    +0.130 A 
ATOM     27  C   LIG    1        6.178   1.065   0.357  0.00  0.00    -0.060 A 
ATOM     28  C   LIG    1        7.546   1.157   0.524  0.00  0.00    +0.070 A 
ATOM     29  C   LIG    1        8.088   1.180   1.797  0.00  0.00    -0.070 A 
ATOM     30  C   LIG    1        7.261   1.115   2.905  0.00  0.00    +0.070 A 
ATOM     31 CL   LIG    1        9.808   1.290   2.005  0.00  0.00    -0.070 Cl
ATOM     32  C   LIG    1        5.892   1.027   2.741  0.00  0.00    +0.010 A 
ENDBRANCH  25  26
ENDBRANCH  24  25
ENDBRANCH  22  24
ENDBRANCH  18  19
ENDBRANCH  17  18
ENDBRANCH   4  17
TORSDOF 8
