REMARK  Name = ZINCvU0000000HgT.0
REMARK                            x       y       z     vdW  Elec       q    Type
REMARK                         _______ _______ _______ _____ _____    ______ ____
ROOT
ATOM      1  N   LIG    1       -6.488  -2.102   6.467  0.00  0.00    -0.530 N 
ATOM      2  C   LIG    1       -5.338  -1.489   6.802  0.00  0.00    +0.570 C 
ATOM      3  C   LIG    1       -4.756  -0.881   5.584  0.00  0.00    -0.110 A 
ATOM      4  C   LIG    1       -3.611  -0.145   5.327  0.00  0.00    +0.100 A 
ATOM      5  C   LIG    1       -3.344   0.289   4.039  0.00  0.00    +0.090 A 
ATOM      6  C   LIG    1       -4.223  -0.011   2.999  0.00  0.00    -0.110 A 
ATOM      7  C   LIG    1       -5.383  -0.749   3.251  0.00  0.00    +0.170 A 
ATOM      8  C   LIG    1       -5.649  -1.189   4.536  0.00  0.00    -0.140 A 
ATOM      9  O   LIG    1       -4.859  -1.442   7.917  0.00  0.00    -0.440 OA
ATOM     10  C   LIG    1       -6.741  -1.971   5.152  0.00  0.00    +0.580 C 
ATOM     11  O   LIG    1       -7.707  -2.421   4.569  0.00  0.00    -0.440 OA
ENDROOT
BRANCH   1  17
ATOM     12  C   LIG    1      -10.241  -2.058   9.645  0.00  0.00    +0.090 C 
ATOM     13  C   LIG    1       -9.139  -2.790   8.922  0.00  0.00    -0.080 A 
ATOM     14  C   LIG    1       -8.942  -4.139   9.150  0.00  0.00    +0.030 A 
ATOM     15  C   LIG    1       -7.932  -4.814   8.489  0.00  0.00    +0.020 A 
ATOM     16  C   LIG    1       -7.121  -4.143   7.595  0.00  0.00    -0.070 A 
ATOM     17  C   LIG    1       -7.313  -2.787   7.369  0.00  0.00    +0.110 A 
ATOM     18  C   LIG    1       -6.025  -4.881   6.870  0.00  0.00    +0.100 C 
ATOM     19  C   LIG    1       -8.328  -2.112   8.034  0.00  0.00    +0.040 A 
ENDBRANCH   1  17
BRANCH   6  20
ATOM     20  C   LIG    1       -3.930   0.457   1.626  0.00  0.00    +0.560 C 
ATOM     21  N   LIG    1       -2.814   1.173   1.382  0.00  0.00    -0.720 N 
ATOM     22  H   LIG    1       -2.204   1.381   2.106  0.00  0.00    +0.400 HD
ATOM     23  O   LIG    1       -4.694   0.195   0.718  0.00  0.00    -0.520 OA
BRANCH  21  24
ATOM     24  C   LIG    1       -2.524   1.636   0.023  0.00  0.00    +0.340 C 
BRANCH  24  25
ATOM     25  C   LIG    1       -1.229   2.407   0.021  0.00  0.00    -0.100 A 
ATOM     26  C   LIG    1       -1.248   3.789   0.034  0.00  0.00    +0.080 A 
ATOM     27  C   LIG    1       -0.061   4.497   0.027  0.00  0.00    +0.040 A 
ATOM     28  C   LIG    1        1.147   3.823   0.012  0.00  0.00    -0.020 A 
ATOM     29  C   LIG    1        1.167   2.440   0.004  0.00  0.00    +0.050 A 
ATOM     30 CL   LIG    1        2.638   4.712   0.003  0.00  0.00    -0.050 Cl
ATOM     31  C   LIG    1       -0.021   1.732   0.012  0.00  0.00    -0.010 A 
ATOM     32 CL   LIG    1        0.002  -0.004   0.002  0.00  0.00    -0.040 Cl
ENDBRANCH  24  25
ENDBRANCH  21  24
ENDBRANCH   6  20
TORSDOF 4
