REMARK  Name = ZINCqH0000007fW3.0
REMARK                            x       y       z     vdW  Elec       q    Type
REMARK                         _______ _______ _______ _____ _____    ______ ____
ROOT
ATOM      1  N   LIG    1       -0.094   6.123  -1.347  0.00  0.00    -0.350 N 
ATOM      2  N   LIG    1        1.012   6.433  -2.158  0.00  0.00    -0.070 NA
ATOM      3  N   LIG    1        0.544   6.830  -3.291  0.00  0.00    -0.030 NA
ATOM      4  N   LIG    1       -0.740   6.811  -3.275  0.00  0.00    -0.330 NA
ATOM      5  C   LIG    1       -1.180   6.387  -2.110  0.00  0.00    +0.210 A 
ENDROOT
BRANCH   1   6
ATOM      6  C   LIG    1       -0.074   5.628   0.032  0.00  0.00    +0.400 C 
BRANCH   6  10
ATOM      7  C   LIG    1       -0.016   1.355   0.009  0.00  0.00    +0.150 A 
ATOM      8  C   LIG    1       -1.226   2.033   0.019  0.00  0.00    -0.080 A 
ATOM      9  C   LIG    1       -1.242   3.414   0.031  0.00  0.00    +0.080 A 
ATOM     10  C   LIG    1       -0.054   4.121   0.024  0.00  0.00    -0.170 A 
ATOM     11  C   LIG    1        1.153   3.447   0.009  0.00  0.00    +0.090 A 
ATOM     12  C   LIG    1        1.175   2.066   0.002  0.00  0.00    -0.010 A 
BRANCH   7  14
ATOM     13  C   LIG    1       -1.262  -0.670   0.011  0.00  0.00    +0.240 C 
ATOM     14  O   LIG    1        0.002  -0.004   0.002  0.00  0.00    -0.310 OA
ENDBRANCH   7  14
ENDBRANCH   6  10
ENDBRANCH   1   6
BRANCH   5  15
ATOM     15  S   LIG    1       -2.866   6.197  -1.633  0.00  0.00    +0.050 S 
BRANCH  15  16
ATOM     16  C   LIG    1       -3.685   6.737  -3.155  0.00  0.00    +0.210 C 
BRANCH  16  17
ATOM     17  C   LIG    1       -5.179   6.656  -2.976  0.00  0.00    -0.010 A 
ATOM     18  C   LIG    1       -5.954   5.593  -3.256  0.00  0.00    +0.200 A 
ATOM     19  O   LIG    1       -7.224   5.931  -2.952  0.00  0.00    -0.180 OA
ATOM     20  C   LIG    1       -7.214   7.198  -2.500  0.00  0.00    +0.280 A 
ATOM     21  N   LIG    1       -5.973   7.635  -2.515  0.00  0.00    -0.460 NA
BRANCH  20  22
ATOM     22  C   LIG    1       -8.389   7.964  -2.062  0.00  0.00    -0.150 A 
ATOM     23  C   LIG    1       -9.671   7.502  -2.050  0.00  0.00    +0.060 A 
ATOM     24  C   LIG    1      -10.600   8.410  -1.594  0.00  0.00    +0.010 A 
ATOM     25  C   LIG    1      -10.105   9.600  -1.236  0.00  0.00    -0.040 A 
ATOM     26  S   LIG    1       -8.361   9.618  -1.464  0.00  0.00    +0.220 S 
ENDBRANCH  20  22
ENDBRANCH  16  17
ENDBRANCH  15  16
ENDBRANCH   5  15
TORSDOF 7
