REMARK  Name = ZINCvU00000007Mu.0
REMARK                            x       y       z     vdW  Elec       q    Type
REMARK                         _______ _______ _______ _____ _____    ______ ____
ROOT
ATOM      1  N   LIG    1       -4.814   2.381   2.247  0.00  0.00    -0.740 N 
ATOM      2  H   LIG    1       -4.963   3.204   2.739  0.00  0.00    +0.400 HD
ATOM      3  C   LIG    1       -3.654   2.191   1.587  0.00  0.00    +0.710 C 
ATOM      4  N   LIG    1       -2.744   3.183   1.524  0.00  0.00    -0.620 N 
ATOM      5  O   LIG    1       -3.430   1.125   1.048  0.00  0.00    -0.570 OA
ENDROOT
BRANCH   4   6
ATOM      6  C   LIG    1       -1.536   3.018   0.711  0.00  0.00    +0.250 C 
ATOM      7  C   LIG    1       -0.716   1.791   1.181  0.00  0.00    +0.010 C 
ATOM      8  C   LIG    1        0.111   1.392  -0.059  0.00  0.00    +0.010 C 
ATOM      9  C   LIG    1       -0.644   1.936  -1.285  0.00  0.00    +0.010 C 
ATOM     10  C   LIG    1       -1.903   2.647  -0.748  0.00  0.00    +0.010 C 
ENDBRANCH   4   6
BRANCH   1  11
ATOM     11  C   LIG    1       -5.849   1.345   2.224  0.00  0.00    +0.330 C 
BRANCH  11  15
ATOM     12  C   LIG    1       -9.214   2.637   4.525  0.00  0.00    +0.110 A 
ATOM     13  C   LIG    1       -8.189   1.927   5.129  0.00  0.00    -0.030 A 
ATOM     14  C   LIG    1       -7.104   1.507   4.381  0.00  0.00    +0.040 A 
ATOM     15  C   LIG    1       -7.035   1.801   3.033  0.00  0.00    -0.110 A 
ATOM     16  C   LIG    1       -8.055   2.509   2.423  0.00  0.00    -0.010 A 
ATOM     17  C   LIG    1       -9.147   2.929   3.166  0.00  0.00    +0.100 A 
BRANCH  12  19
ATOM     18  C   LIG    1      -10.285   2.711   6.647  0.00  0.00    +0.240 C 
ATOM     19  O   LIG    1      -10.284   3.046   5.258  0.00  0.00    -0.310 OA
ENDBRANCH  12  19
BRANCH  17  20
ATOM     20  O   LIG    1      -10.150   3.625   2.568  0.00  0.00    -0.300 OA
ATOM     21  C   LIG    1      -10.014   3.889   1.170  0.00  0.00    +0.240 C 
ENDBRANCH  17  20
ENDBRANCH  11  15
ENDBRANCH   1  11
BRANCH   4  22
ATOM     22  C   LIG    1       -2.962   4.425   2.269  0.00  0.00    +0.340 C 
BRANCH  22  23
ATOM     23  C   LIG    1       -3.815   5.359   1.449  0.00  0.00    -0.060 A 
ATOM     24  C   LIG    1       -4.342   4.935   0.244  0.00  0.00    +0.030 A 
ATOM     25  C   LIG    1       -5.129   5.790  -0.505  0.00  0.00    +0.050 A 
ATOM     26  C   LIG    1       -5.378   7.073  -0.055  0.00  0.00    +0.020 A 
ATOM     27  C   LIG    1       -4.847   7.499   1.149  0.00  0.00    +0.070 A 
ATOM     28  C   LIG    1       -4.065   6.642   1.900  0.00  0.00    -0.180 A 
BRANCH  28  29
ATOM     29  C   LIG    1       -3.485   7.106   3.212  0.00  0.00    +0.510 C 
ATOM     30  F   LIG    1       -2.090   7.138   3.119  0.00  0.00    -0.170 F 
ATOM     31  F   LIG    1       -3.865   6.223   4.228  0.00  0.00    -0.180 F 
ATOM     32  F   LIG    1       -3.962   8.388   3.505  0.00  0.00    -0.170 F 
ENDBRANCH  28  29
ENDBRANCH  22  23
ENDBRANCH   4  22
TORSDOF 8
