REMARK  Name = ZINCrH000004k0Vd.0
REMARK                            x       y       z     vdW  Elec       q    Type
REMARK                         _______ _______ _______ _____ _____    ______ ____
ROOT
ATOM      1  C   LIG    1       -0.090   5.865  -1.409  0.00  0.00    +0.260 C 
ENDROOT
BRANCH   1   4
ATOM      2  C   LIG    1       -2.353   7.096  -0.228  0.00  0.00    +0.300 C 
ATOM      3  N   LIG    1       -1.317   7.935  -0.836  0.00  0.00    -0.600 N 
ATOM      4  C   LIG    1       -0.234   7.365  -1.401  0.00  0.00    +0.520 C 
ATOM      5  O   LIG    1        0.624   8.059  -1.904  0.00  0.00    -0.530 OA
BRANCH   3   6
ATOM      6  C   LIG    1       -1.457   9.393  -0.828  0.00  0.00    +0.360 C 
BRANCH   6   7
ATOM      7  C   LIG    1       -2.187   9.834  -2.071  0.00  0.00    -0.120 A 
ATOM      8  C   LIG    1       -3.515   9.947  -2.120  0.00  0.00    -0.040 A 
ATOM      9  S   LIG    1       -4.002  10.482  -3.723  0.00  0.00    +0.100 S 
ATOM     10  C   LIG    1       -2.325  10.523  -4.252  0.00  0.00    -0.050 A 
ATOM     11  C   LIG    1       -1.530  10.158  -3.245  0.00  0.00    +0.020 A 
ENDBRANCH   6   7
ENDBRANCH   3   6
ENDBRANCH   1   4
BRANCH   1  12
ATOM     12  N   LIG    1        1.161   5.498  -2.077  0.00  0.00    -0.710 N 
ATOM     13  H   LIG    1        1.898   6.128  -2.106  0.00  0.00    +0.410 HD
ATOM     14  C   LIG    1        1.288   4.285  -2.652  0.00  0.00    +0.560 C 
ATOM     15  O   LIG    1        0.364   3.496  -2.615  0.00  0.00    -0.510 OA
BRANCH  14  16
ATOM     16  C   LIG    1        2.550   3.915  -3.326  0.00  0.00    -0.130 A 
ATOM     17  C   LIG    1        3.611   4.821  -3.374  0.00  0.00    +0.040 A 
ATOM     18  C   LIG    1        4.788   4.468  -4.001  0.00  0.00    +0.000 A 
ATOM     19  C   LIG    1        4.915   3.222  -4.590  0.00  0.00    +0.040 A 
ATOM     20  C   LIG    1        3.865   2.321  -4.550  0.00  0.00    +0.000 A 
ATOM     21  C   LIG    1        2.685   2.660  -3.922  0.00  0.00    +0.080 A 
ENDBRANCH  14  16
ENDBRANCH   1  12
BRANCH   1  22
ATOM     22  C   LIG    1       -0.070   5.347   0.031  0.00  0.00    +0.080 C 
BRANCH  22  23
ATOM     23  C   LIG    1       -0.050   3.840   0.022  0.00  0.00    -0.070 A 
ATOM     24  C   LIG    1        1.156   3.165   0.008  0.00  0.00    +0.000 A 
ATOM     25  C   LIG    1        1.175   1.783   0.000  0.00  0.00    +0.000 A 
ATOM     26  C   LIG    1       -0.013   1.076   0.008  0.00  0.00    +0.000 A 
ATOM     27  C   LIG    1       -1.219   1.751   0.017  0.00  0.00    +0.010 A 
ATOM     28  C   LIG    1       -1.238   3.133   0.029  0.00  0.00    +0.000 A 
ENDBRANCH  22  23
ENDBRANCH   1  22
TORSDOF 7
