REMARK  Name = ZINCpk00000kgXC4.0
REMARK                            x       y       z     vdW  Elec       q    Type
REMARK                         _______ _______ _______ _____ _____    ______ ____
ROOT
ATOM      1  C   LIG    1        4.840  -1.198  -0.018  0.00  0.00    +0.520 C 
ATOM      2  N   LIG    1        3.772  -0.531   0.464  0.00  0.00    -0.720 N 
ATOM      3  H   LIG    1        3.897   0.177   1.116  0.00  0.00    +0.400 HD
ATOM      4  O   LIG    1        4.684  -2.082  -0.833  0.00  0.00    -0.530 OA
ENDROOT
BRANCH   1   5
ATOM      5  C   LIG    1        6.226  -0.845   0.456  0.00  0.00    +0.120 C 
BRANCH   5   8
ATOM      6  C   LIG    1        8.537  -3.733  -0.334  0.00  0.00    +0.320 A 
ATOM      7  C   LIG    1        7.610  -2.940   0.330  0.00  0.00    -0.040 A 
ATOM      8  C   LIG    1        7.232  -1.732  -0.230  0.00  0.00    +0.010 A 
ATOM      9  C   LIG    1        7.806  -1.354  -1.436  0.00  0.00    -0.060 A 
ATOM     10  C   LIG    1        8.725  -2.190  -2.039  0.00  0.00    +0.300 A 
ATOM     11  N   LIG    1        9.062  -3.338  -1.483  0.00  0.00    -0.540 NA
BRANCH   6  13
ATOM     12  C   LIG    1        9.873  -5.688  -0.527  0.00  0.00    +0.260 C 
ATOM     13  O   LIG    1        8.912  -4.921   0.202  0.00  0.00    -0.310 OA
ENDBRANCH   6  13
ENDBRANCH   5   8
ENDBRANCH   1   5
BRANCH   2  14
ATOM     14  C   LIG    1        2.425  -0.873   0.003  0.00  0.00    +0.280 C 
BRANCH  14  15
ATOM     15  C   LIG    1        1.416   0.109   0.602  0.00  0.00    +0.230 C 
ATOM     16  C   LIG    1       -0.031  -0.121   0.128  0.00  0.00    +0.060 C 
ATOM     17  C   LIG    1       -0.130   1.410   0.011  0.00  0.00    +0.280 C 
ATOM     18  N   LIG    1        1.340   1.396  -0.116  0.00  0.00    -0.640 N 
ATOM     19  C   LIG    1        2.249   2.225  -0.667  0.00  0.00    +0.510 C 
ATOM     20  O   LIG    1        3.418   1.906  -0.701  0.00  0.00    -0.510 OA
BRANCH  19  21
ATOM     21  C   LIG    1        1.811   3.547  -1.242  0.00  0.00    +0.190 C 
ATOM     22  F   LIG    1        1.816   3.474  -2.639  0.00  0.00    -0.190 F 
BRANCH  21  23
ATOM     23  C   LIG    1        2.775   4.645  -0.786  0.00  0.00    +0.080 C 
BRANCH  23  24
ATOM     24  C   LIG    1        2.263   6.005  -1.265  0.00  0.00    -0.050 C 
ATOM     25  C   LIG    1        3.131   6.777  -2.260  0.00  0.00    +0.030 C 
ATOM     26  C   LIG    1        3.028   7.249  -0.808  0.00  0.00    +0.020 C 
ENDBRANCH  23  24
ENDBRANCH  21  23
ENDBRANCH  19  21
ENDBRANCH  14  15
ENDBRANCH   2  14
TORSDOF 8
