REMARK  Name = ZINCqH0000008sEq.0
REMARK                            x       y       z     vdW  Elec       q    Type
REMARK                         _______ _______ _______ _____ _____    ______ ____
ROOT
ATOM      1  N   LIG    1        2.340   5.090   0.894  0.00  0.00    -0.690 N 
ATOM      2  H   LIG    1        1.469   5.470   1.089  0.00  0.00    +0.410 HD
ENDROOT
BRANCH   1   3
ATOM      3  C   LIG    1        3.473   5.636   1.458  0.00  0.00    +0.500 A 
ATOM      4  N   LIG    1        4.674   5.131   1.202  0.00  0.00    -0.610 NA
ATOM      5  C   LIG    1        5.766   5.649   1.739  0.00  0.00    +0.580 A 
ATOM      6  N   LIG    1        5.745   6.681   2.549  0.00  0.00    -0.560 NA
ATOM      7  C   LIG    1        4.584   7.269   2.874  0.00  0.00    +0.430 A 
ATOM      8  N   LIG    1        4.537   8.319   3.695  0.00  0.00    -0.550 NA
ATOM      9  C   LIG    1        3.388   8.889   4.008  0.00  0.00    +0.470 A 
ATOM     10  C   LIG    1        2.172   8.421   3.496  0.00  0.00    -0.100 A 
ATOM     11  C   LIG    1        2.161   7.349   2.650  0.00  0.00    +0.140 A 
ATOM     12  C   LIG    1        3.388   6.754   2.319  0.00  0.00    -0.300 A 
BRANCH   9  13
ATOM     13  N   LIG    1        3.386   9.977   4.865  0.00  0.00    -0.830 N 
ATOM     14  H   LIG    1        2.548  10.406   5.103  0.00  0.00    +0.410 HD
ATOM     15  H   LIG    1        4.221  10.312   5.227  0.00  0.00    +0.410 HD
ENDBRANCH   9  13
ENDBRANCH   1   3
BRANCH   1  17
ATOM     16  C   LIG    1        2.748   4.418  -1.422  0.00  0.00    +0.040 C 
ATOM     17  C   LIG    1        2.452   3.935  -0.001  0.00  0.00    +0.300 C 
BRANCH  17  18
ATOM     18  C   LIG    1        1.156   3.166   0.007  0.00  0.00    -0.130 A 
ATOM     19  C   LIG    1        1.174   1.783   0.000  0.00  0.00    +0.080 A 
ATOM     20  C   LIG    1       -0.013   1.076   0.008  0.00  0.00    +0.000 A 
ATOM     21  C   LIG    1       -1.223   1.754   0.017  0.00  0.00    +0.130 A 
ATOM     22  C   LIG    1       -1.238   3.141   0.030  0.00  0.00    -0.070 A 
ATOM     23  C   LIG    1       -0.049   3.844   0.022  0.00  0.00    +0.050 A 
BRANCH  21  24
ATOM     24  O   LIG    1       -2.392   1.060   0.019  0.00  0.00    -0.300 OA
BRANCH  24  25
ATOM     25  C   LIG    1       -3.599   1.824   0.029  0.00  0.00    +0.230 C 
BRANCH  25  26
ATOM     26  C   LIG    1       -4.801   0.877   0.029  0.00  0.00    +0.470 C 
ATOM     27  F   LIG    1       -4.765   0.076  -1.117  0.00  0.00    -0.170 F 
ATOM     28  F   LIG    1       -5.984   1.625   0.039  0.00  0.00    -0.170 F 
ATOM     29  F   LIG    1       -4.754   0.064   1.167  0.00  0.00    -0.170 F 
ENDBRANCH  25  26
ENDBRANCH  24  25
ENDBRANCH  21  24
ENDBRANCH  17  18
ENDBRANCH   1  17
TORSDOF 7
