REMARK  Name = ZINCvU00000005Gv.0
REMARK                            x       y       z     vdW  Elec       q    Type
REMARK                         _______ _______ _______ _____ _____    ______ ____
ROOT
ATOM      1  C   LIG    1       -6.933   5.640   1.866  0.00  0.00    +0.580 C 
ATOM      2  N   LIG    1       -5.726   6.230   1.749  0.00  0.00    -0.610 N 
ATOM      3  C   LIG    1       -5.601   7.693   1.795  0.00  0.00    +0.270 C 
ATOM      4  C   LIG    1       -4.843   8.162   0.549  0.00  0.00    +0.020 C 
ATOM      5  C   LIG    1       -3.508   7.419   0.459  0.00  0.00    +0.060 C 
ATOM      6  C   LIG    1       -3.766   5.916   0.330  0.00  0.00    -0.010 C 
ATOM      7  C   LIG    1       -4.512   5.421   1.573  0.00  0.00    +0.300 C 
ATOM      8  O   LIG    1       -7.015   4.427   1.913  0.00  0.00    -0.530 OA
ENDROOT
BRANCH   1  12
ATOM      9  C   LIG    1      -10.472   8.051   2.096  0.00  0.00    +0.170 A 
ATOM     10  C   LIG    1       -9.498   8.111   3.070  0.00  0.00    -0.100 A 
ATOM     11  C   LIG    1       -8.355   7.332   3.003  0.00  0.00    +0.100 A 
ATOM     12  C   LIG    1       -8.150   6.463   1.937  0.00  0.00    -0.160 A 
ATOM     13  C   LIG    1       -9.168   6.378   0.890  0.00  0.00    +0.020 A 
ATOM     14  C   LIG    1       -9.018   5.517  -0.204  0.00  0.00    +0.010 A 
ATOM     15  C   LIG    1       -9.991   5.466  -1.159  0.00  0.00    +0.040 A 
ATOM     16  C   LIG    1      -11.130   6.259  -1.061  0.00  0.00    +0.000 A 
ATOM     17  C   LIG    1      -11.306   7.107  -0.010  0.00  0.00    +0.060 A 
ATOM     18  C   LIG    1      -10.325   7.185   0.991  0.00  0.00    -0.070 A 
BRANCH   9  20
ATOM     19  C   LIG    1      -11.665   9.681   3.344  0.00  0.00    +0.250 C 
ATOM     20  O   LIG    1      -11.578   8.827   2.201  0.00  0.00    -0.310 OA
ENDBRANCH   9  20
ENDBRANCH   1  12
BRANCH   6  21
ATOM     21  C   LIG    1       -2.452   5.188   0.209  0.00  0.00    +0.530 C 
ATOM     22  N   LIG    1       -2.434   3.846   0.083  0.00  0.00    -0.670 N 
ATOM     23  H   LIG    1       -3.266   3.357  -0.016  0.00  0.00    +0.420 HD
ATOM     24  O   LIG    1       -1.411   5.810   0.225  0.00  0.00    -0.510 OA
BRANCH  22  25
ATOM     25  C   LIG    1       -1.214   3.158   0.096  0.00  0.00    +0.150 A 
ATOM     26  C   LIG    1       -0.109   3.715   0.724  0.00  0.00    +0.070 A 
ATOM     27  C   LIG    1        1.094   3.034   0.735  0.00  0.00    +0.030 A 
ATOM     28  C   LIG    1        1.197   1.798   0.120  0.00  0.00    +0.100 A 
ATOM     29  C   LIG    1        0.096   1.240  -0.507  0.00  0.00    +0.030 A 
ATOM     30  F   LIG    1        2.374   1.135   0.133  0.00  0.00    -0.130 F 
ATOM     31  C   LIG    1       -1.107   1.920  -0.526  0.00  0.00    -0.040 A 
ATOM     32 CL   LIG    1       -2.486   1.224  -1.319  0.00  0.00    -0.050 Cl
ENDBRANCH  22  25
ENDBRANCH   6  21
TORSDOF 4
