REMARK  Name = ZINCkj000005gFT0.1
REMARK                            x       y       z     vdW  Elec       q    Type
REMARK                         _______ _______ _______ _____ _____    ______ ____
ROOT
ATOM      1  C   LIG    1       -0.747   1.964  -1.211  0.00  0.00    +0.500 C 
ATOM      2  N   LIG    1       -1.245   3.216  -1.233  0.00  0.00    -0.590 N 
ATOM      3  C   LIG    1       -1.093   4.110  -0.075  0.00  0.00    +0.290 C 
ATOM      4  C   LIG    1       -0.509   5.443  -0.568  0.00  0.00    +0.190 C 
ATOM      5  N   LIG    1       -1.350   5.969  -1.652  0.00  0.00    -0.490 N 
ATOM      6  C   LIG    1       -1.346   5.070  -2.813  0.00  0.00    +0.190 C 
ATOM      7  C   LIG    1       -1.959   3.723  -2.415  0.00  0.00    +0.320 C 
ATOM      8  O   LIG    1       -0.885   1.239  -2.173  0.00  0.00    -0.520 OA
ENDROOT
BRANCH   5   9
ATOM      9  C   LIG    1       -0.951   7.259  -2.015  0.00  0.00    +0.070 A 
ATOM     10  C   LIG    1        0.305   7.468  -2.567  0.00  0.00    -0.020 A 
ATOM     11  C   LIG    1        0.698   8.746  -2.925  0.00  0.00    +0.100 A 
ATOM     12  C   LIG    1       -0.161   9.815  -2.735  0.00  0.00    +0.030 A 
ATOM     13  C   LIG    1       -1.414   9.609  -2.185  0.00  0.00    +0.040 A 
ATOM     14  F   LIG    1        1.921   8.951  -3.463  0.00  0.00    -0.130 F 
ATOM     15  C   LIG    1       -1.813   8.334  -1.829  0.00  0.00    +0.120 A 
ATOM     16  F   LIG    1       -3.039   8.134  -1.298  0.00  0.00    -0.120 F 
ENDBRANCH   5   9
BRANCH   1  17
ATOM     17  C   LIG    1       -0.018   1.465   0.010  0.00  0.00    +0.180 C 
BRANCH  17  18
ATOM     18  N   LIG    1        0.002  -0.004   0.002  0.00  0.00    -0.620 N 
ATOM     19  H   LIG    1       -0.945  -0.353   0.009  0.00  0.00    +0.440 HD
ATOM     20  H   LIG    1        0.490  -0.338   0.820  0.00  0.00    +0.440 HD
ATOM     21  H   LIG    1        0.474  -0.330  -0.828  0.00  0.00    +0.440 HD
ENDBRANCH  17  18
BRANCH  17  23
ATOM     22  C   LIG    1        2.119   1.592   1.298  0.00  0.00    +0.060 C 
ATOM     23  C   LIG    1        1.417   1.994  -0.001  0.00  0.00    +0.060 C 
ENDBRANCH  17  23
ENDBRANCH   1  17
TORSDOF 4
