REMARK  Name = ZINCrD00000l2tCP.0
REMARK                            x       y       z     vdW  Elec       q    Type
REMARK                         _______ _______ _______ _____ _____    ______ ____
ROOT
ATOM      1  O   LIG    1        0.682  -0.469  -1.193  0.00  0.00    -0.320 OA
ENDROOT
BRANCH   1   2
ATOM      2  C   LIG    1        0.005   0.002   0.002  0.00  0.00    +0.190 C 
ATOM      3  C   LIG    1       -0.004   1.532   0.014  0.00  0.00    +0.070 C 
BRANCH   2   6
ATOM      4  N   LIG    1        0.223  -0.277   2.451  0.00  0.00    -0.670 N 
ATOM      5  H   LIG    1       -0.571   0.271   2.553  0.00  0.00    +0.410 HD
ATOM      6  C   LIG    1        0.730  -0.505   1.223  0.00  0.00    +0.520 C 
ATOM      7  O   LIG    1        1.769  -1.118   1.100  0.00  0.00    -0.490 OA
BRANCH   4  11
ATOM      8  C   LIG    1        2.068  -1.921   5.804  0.00  0.00    -0.090 A 
ATOM      9  C   LIG    1        2.834  -1.502   4.731  0.00  0.00    +0.030 A 
ATOM     10  C   LIG    1        2.225  -0.957   3.618  0.00  0.00    +0.030 A 
ATOM     11  C   LIG    1        0.843  -0.829   3.577  0.00  0.00    +0.130 A 
ATOM     12  C   LIG    1        0.077  -1.245   4.658  0.00  0.00    -0.010 A 
ATOM     13  C   LIG    1        0.692  -1.795   5.766  0.00  0.00    +0.030 A 
BRANCH   8  15
ATOM     14  C   LIG    1        3.066  -1.405   8.015  0.00  0.00    +0.030 C 
ATOM     15  C   LIG    1        2.736  -2.517   7.017  0.00  0.00    +0.050 C 
ENDBRANCH   8  15
ENDBRANCH   4  11
ENDBRANCH   2   6
ENDBRANCH   1   2
BRANCH   1  16
ATOM     16  C   LIG    1       -0.075  -0.669  -2.283  0.00  0.00    +0.460 C 
ATOM     17  O   LIG    1       -1.264  -0.457  -2.240  0.00  0.00    -0.500 OA
BRANCH  16  18
ATOM     18  C   LIG    1        0.558  -1.157  -3.561  0.00  0.00    +0.370 C 
BRANCH  18  19
ATOM     19  N   LIG    1       -0.471  -1.294  -4.594  0.00  0.00    -0.720 N 
ATOM     20  H   LIG    1       -1.395  -1.079  -4.390  0.00  0.00    +0.410 HD
ATOM     21  C   LIG    1       -0.135  -1.720  -5.828  0.00  0.00    +0.570 C 
ATOM     22  O   LIG    1        1.023  -1.990  -6.083  0.00  0.00    -0.520 OA
BRANCH  21  23
ATOM     23  C   LIG    1       -1.173  -1.859  -6.870  0.00  0.00    -0.120 A 
ATOM     24  C   LIG    1       -2.504  -1.555  -6.579  0.00  0.00    +0.060 A 
ATOM     25  C   LIG    1       -3.468  -1.682  -7.557  0.00  0.00    +0.040 A 
ATOM     26  C   LIG    1       -3.119  -2.119  -8.824  0.00  0.00    -0.070 A 
ATOM     27  C   LIG    1       -1.801  -2.427  -9.118  0.00  0.00    +0.040 A 
ATOM     28 BR   LIG    1       -4.448  -2.297 -10.158  0.00  0.00    -0.040 Br
ATOM     29  C   LIG    1       -0.828  -2.299  -8.149  0.00  0.00    +0.100 A 
ENDBRANCH  21  23
ENDBRANCH  18  19
ENDBRANCH  16  18
ENDBRANCH   1  16
TORSDOF 8
