REMARK  Name = ZINCDN0000000ctU.0
REMARK                            x       y       z     vdW  Elec       q    Type
REMARK                         _______ _______ _______ _____ _____    ______ ____
ROOT
ATOM      1  N   LIG    1       -1.212   9.449  -1.383  0.00  0.00    -0.570 N 
ATOM      2  C   LIG    1       -0.042  10.117  -1.391  0.00  0.00    +0.730 C 
ATOM      3  N   LIG    1       -0.035  11.465  -1.384  0.00  0.00    -1.130 NA
ATOM      4  O   LIG    1        1.008   9.504  -1.403  0.00  0.00    -0.660 OA
ENDROOT
BRANCH   1  10
ATOM      5  C   LIG    1       -3.033  10.519  -2.568  0.00  0.00    +0.130 A 
ATOM      6  C   LIG    1       -4.232  11.213  -2.548  0.00  0.00    -0.090 A 
ATOM      7  C   LIG    1       -4.815  11.553  -1.341  0.00  0.00    +0.030 A 
ATOM      8  C   LIG    1       -4.206  11.199  -0.151  0.00  0.00    -0.030 A 
ATOM      9  C   LIG    1       -3.012  10.501  -0.163  0.00  0.00    +0.050 A 
ATOM     10  C   LIG    1       -2.423  10.156  -1.369  0.00  0.00    +0.170 A 
BRANCH   5  12
ATOM     11  C   LIG    1       -3.139  10.594  -4.943  0.00  0.00    +0.220 C 
ATOM     12  O   LIG    1       -2.457  10.189  -3.754  0.00  0.00    -0.300 OA
ENDBRANCH   5  12
ENDBRANCH   1  10
BRANCH   3  13
ATOM     13  S   LIG    1        1.403  12.286  -1.393  0.00  0.00    +2.660 S 
ATOM     14  O   LIG    1        2.011  12.017  -2.649  0.00  0.00    -1.020 OA
ATOM     15  O   LIG    1        2.033  12.005  -0.150  0.00  0.00    -1.020 OA
BRANCH  13  16
ATOM     16  C   LIG    1        1.023  14.006  -1.381  0.00  0.00    -0.620 A 
ATOM     17  C   LIG    1        0.868  14.688  -2.574  0.00  0.00    +0.110 A 
ATOM     18  C   LIG    1        0.564  16.036  -2.565  0.00  0.00    -0.030 A 
ATOM     19  C   LIG    1        0.426  16.705  -1.363  0.00  0.00    -0.060 A 
ATOM     20  C   LIG    1        0.585  16.025  -0.171  0.00  0.00    -0.030 A 
ATOM     21  C   LIG    1        0.100  18.177  -1.354  0.00  0.00    +0.100 C 
ATOM     22  C   LIG    1        0.884  14.675  -0.180  0.00  0.00    +0.120 A 
ENDBRANCH  13  16
ENDBRANCH   3  13
BRANCH   1  23
ATOM     23  C   LIG    1       -1.220   7.984  -1.390  0.00  0.00    +0.300 C 
BRANCH  23  24
ATOM     24  C   LIG    1       -1.210   7.468   0.050  0.00  0.00    +0.290 C 
BRANCH  24  25
ATOM     25  N   LIG    1       -1.218   6.003   0.043  0.00  0.00    -0.550 N 
ATOM     26  C   LIG    1       -0.041   5.348   0.029  0.00  0.00    +0.560 A 
ATOM     27  C   LIG    1       -0.008   3.878   0.022  0.00  0.00    -0.150 A 
ATOM     28  C   LIG    1        1.181   3.164   0.008  0.00  0.00    +0.140 A 
ATOM     29  C   LIG    1        1.161   1.774   0.001  0.00  0.00    +0.010 A 
ATOM     30  C   LIG    1       -0.013   1.076   0.008  0.00  0.00    +0.080 A 
ATOM     31  C   LIG    1       -1.240   1.762   0.018  0.00  0.00    -0.070 A 
ATOM     32  C   LIG    1       -2.474   1.089   0.030  0.00  0.00    +0.080 A 
ATOM     33  C   LIG    1       -3.640   1.799   0.044  0.00  0.00    +0.000 A 
ATOM     34  C   LIG    1       -3.646   3.189   0.051  0.00  0.00    +0.140 A 
ATOM     35  C   LIG    1       -2.449   3.891   0.044  0.00  0.00    -0.150 A 
ATOM     36  C   LIG    1       -1.232   3.172   0.029  0.00  0.00    +0.000 A 
ATOM     37  O   LIG    1        1.000   5.976   0.024  0.00  0.00    -0.460 OA
ATOM     38  C   LIG    1       -2.401   5.360   0.051  0.00  0.00    +0.570 A 
ATOM     39  O   LIG    1       -3.436   5.999   0.064  0.00  0.00    -0.490 OA
ENDBRANCH  24  25
ENDBRANCH  23  24
ENDBRANCH   1  23
TORSDOF 7
