REMARK  Name = ZINCnE000001TCh1.0
REMARK                            x       y       z     vdW  Elec       q    Type
REMARK                         _______ _______ _______ _____ _____    ______ ____
ROOT
ATOM      1  C   LIG    1        4.710   1.571   0.254  0.00  0.00    +0.100 A 
ATOM      2  C   LIG    1        4.883   0.226   0.275  0.00  0.00    -0.130 A 
ATOM      3  C   LIG    1        3.716  -0.630  -0.013  0.00  0.00    +0.420 A 
ATOM      4  C   LIG    1        2.402   0.044  -0.014  0.00  0.00    -0.230 A 
ATOM      5  C   LIG    1        1.215  -0.681  -0.010  0.00  0.00    +0.130 A 
ATOM      6  C   LIG    1        0.002  -0.004   0.002  0.00  0.00    -0.100 A 
ATOM      7  C   LIG    1       -0.017   1.394   0.010  0.00  0.00    +0.090 A 
ATOM      8  C   LIG    1        1.156   2.112   0.002  0.00  0.00    +0.010 A 
ATOM      9  C   LIG    1        2.381   1.451  -0.013  0.00  0.00    +0.160 A 
ATOM     10  O   LIG    1        3.830  -1.823  -0.236  0.00  0.00    -0.480 OA
ATOM     11  O   LIG    1        3.534   2.147  -0.031  0.00  0.00    -0.200 OA
ENDROOT
BRANCH   6  12
ATOM     12  C   LIG    1       -1.272  -0.764   0.006  0.00  0.00    -0.050 A 
ATOM     13  C   LIG    1       -2.498  -0.093   0.018  0.00  0.00    +0.070 A 
ATOM     14  C   LIG    1       -3.659  -0.848   0.021  0.00  0.00    +0.020 A 
ATOM     15  C   LIG    1       -3.569  -2.228   0.013  0.00  0.00    +0.030 A 
ATOM     16  N   LIG    1       -2.397  -2.833   0.002  0.00  0.00    -0.450 NA
ATOM     17  C   LIG    1       -1.266  -2.157  -0.007  0.00  0.00    +0.280 A 
BRANCH  15  18
ATOM     18  C   LIG    1       -4.830  -3.053   0.016  0.00  0.00    +0.460 C 
ATOM     19  F   LIG    1       -5.588  -2.751  -1.120  0.00  0.00    -0.190 F 
ATOM     20  F   LIG    1       -5.574  -2.763   1.165  0.00  0.00    -0.190 F 
ENDBRANCH  15  18
ENDBRANCH   6  12
BRANCH   1  22
ATOM     21  O   LIG    1        6.955   1.940   0.820  0.00  0.00    -0.640 OA
ATOM     22  C   LIG    1        5.870   2.439   0.557  0.00  0.00    +0.540 C 
ATOM     23  O   LIG    1        5.743   3.655   0.545  0.00  0.00    -0.650 OA
ENDBRANCH   1  22
TORSDOF 3
