REMARK  Name = ZINCrD000000C8O6.0
REMARK                            x       y       z     vdW  Elec       q    Type
REMARK                         _______ _______ _______ _____ _____    ______ ____
ROOT
ATOM      1  O   LIG    1        2.221   5.312   0.109  0.00  0.00    -0.510 OA
ATOM      2  C   LIG    1        1.177   5.928   0.122  0.00  0.00    +0.520 C 
ATOM      3  N   LIG    1        0.005   5.270   0.029  0.00  0.00    -0.670 N 
ATOM      4  H   LIG    1       -0.827   5.766  -0.027  0.00  0.00    +0.410 HD
ENDROOT
BRANCH   3   5
ATOM      5  C   LIG    1       -0.013   3.875   0.012  0.00  0.00    +0.160 A 
ATOM      6  C   LIG    1        1.004   3.173  -0.602  0.00  0.00    +0.030 A 
ATOM      7  C   LIG    1        0.993   1.782  -0.623  0.00  0.00    +0.060 A 
ATOM      8  C   LIG    1       -0.016   1.076  -0.041  0.00  0.00    +0.030 A 
ATOM      9  C   LIG    1       -1.074   1.752   0.590  0.00  0.00    +0.140 A 
ATOM     10  N   LIG    1       -2.072   1.077   1.171  0.00  0.00    -0.470 NA
ATOM     11  C   LIG    1       -3.061   1.701   1.766  0.00  0.00    +0.290 A 
ATOM     12  C   LIG    1       -3.119   3.090   1.828  0.00  0.00    -0.030 A 
ATOM     13  C   LIG    1       -2.127   3.840   1.258  0.00  0.00    +0.070 A 
ATOM     14  C   LIG    1       -1.070   3.168   0.622  0.00  0.00    -0.110 A 
ENDBRANCH   3   5
BRANCH   2  15
ATOM     15  C   LIG    1        1.190   7.430   0.243  0.00  0.00    -0.010 C 
ATOM     16  C   LIG    1        0.518   8.047  -0.986  0.00  0.00    +0.040 C 
ATOM     17  C   LIG    1        0.502   9.571  -0.850  0.00  0.00    +0.030 C 
ATOM     18  C   LIG    1        1.941  10.089  -0.774  0.00  0.00    +0.290 C 
ATOM     19  N   LIG    1        2.638   9.393   0.316  0.00  0.00    -0.990 NA
ATOM     20  C   LIG    1        2.637   7.924   0.331  0.00  0.00    +0.330 C 
BRANCH  19  21
ATOM     21  S   LIG    1        3.409  10.248   1.506  0.00  0.00    +2.710 S 
ATOM     22  O   LIG    1        3.709  11.522   0.954  0.00  0.00    -0.940 OA
ATOM     23  O   LIG    1        4.397   9.382   2.046  0.00  0.00    -0.940 OA
BRANCH  21  24
ATOM     24  C   LIG    1        2.236  10.527   2.791  0.00  0.00    -0.800 A 
ATOM     25  C   LIG    1        2.024   9.715   3.828  0.00  0.00    +0.160 A 
ATOM     26  C   LIG    1        1.050  10.142   4.714  0.00  0.00    -0.010 A 
ATOM     27  C   LIG    1        0.470  11.301   4.396  0.00  0.00    +0.000 A 
ATOM     28  S   LIG    1        1.171  11.921   2.907  0.00  0.00    +0.220 S 
ENDBRANCH  21  24
ENDBRANCH  19  21
ENDBRANCH   2  15
TORSDOF 4
