REMARK  Name = ZINCvU00000007CA.0
REMARK                            x       y       z     vdW  Elec       q    Type
REMARK                         _______ _______ _______ _____ _____    ______ ____
ROOT
ATOM      1  C   LIG    1        0.254   4.270   0.023  0.00  0.00    +0.380 C 
ATOM      2  C   LIG    1        0.953   5.590   0.026  0.00  0.00    -0.220 A 
ATOM      3  C   LIG    1        2.298   5.348   0.008  0.00  0.00    +0.090 A 
ATOM      4  C   LIG    1        2.505   3.891   0.004  0.00  0.00    +0.570 C 
ATOM      5  O   LIG    1        3.590   3.342  -0.003  0.00  0.00    -0.450 OA
ATOM      6  O   LIG    1        3.213   6.337  -0.001  0.00  0.00    -0.170 OA
ATOM      7  C   LIG    1        2.827   7.609   0.248  0.00  0.00    +0.150 A 
ATOM      8  C   LIG    1        3.802   8.580   0.475  0.00  0.00    +0.040 A 
ATOM      9  C   LIG    1        3.437   9.884   0.721  0.00  0.00    +0.120 A 
ATOM     10  C   LIG    1        2.099  10.256   0.748  0.00  0.00    -0.060 A 
ATOM     11  C   LIG    1        1.117   9.314   0.530  0.00  0.00    +0.140 A 
ATOM     12 CL   LIG    1        1.664  11.908   1.058  0.00  0.00    -0.040 Cl
ATOM     13  C   LIG    1        1.475   7.990   0.281  0.00  0.00    -0.200 A 
ATOM     14  C   LIG    1        0.431   6.960   0.050  0.00  0.00    +0.460 A 
ATOM     15  O   LIG    1       -0.748   7.228  -0.106  0.00  0.00    -0.410 OA
ATOM     16  N   LIG    1        1.317   3.253   0.007  0.00  0.00    -0.500 N 
ENDROOT
BRANCH   1  20
ATOM     17  C   LIG    1       -2.192   3.902  -3.460  0.00  0.00    -0.050 A 
ATOM     18  C   LIG    1       -2.767   4.206  -2.241  0.00  0.00    +0.020 A 
ATOM     19  C   LIG    1       -1.976   4.326  -1.114  0.00  0.00    +0.060 A 
ATOM     20  C   LIG    1       -0.609   4.140  -1.206  0.00  0.00    -0.100 A 
ATOM     21  C   LIG    1       -0.033   3.840  -2.426  0.00  0.00    +0.010 A 
ATOM     22  C   LIG    1       -0.825   3.716  -3.552  0.00  0.00    +0.010 A 
BRANCH  17  24
ATOM     23  C   LIG    1       -3.782   5.094  -4.944  0.00  0.00    +0.040 C 
ATOM     24  C   LIG    1       -3.054   3.772  -4.689  0.00  0.00    -0.030 C 
ATOM     25  C   LIG    1       -4.081   2.658  -4.476  0.00  0.00    +0.040 C 
ATOM     26  C   LIG    1       -2.176   3.432  -5.895  0.00  0.00    +0.030 C 
ENDBRANCH  17  24
ENDBRANCH   1  20
BRANCH  16  27
ATOM     27  C   LIG    1        1.130   1.877   0.001  0.00  0.00    +0.260 A 
ATOM     28  N   LIG    1       -0.015   1.257   0.009  0.00  0.00    -0.270 NA
ATOM     29  N   LIG    1        0.002  -0.004   0.002  0.00  0.00    -0.230 NA
ATOM     30  C   LIG    1        1.153  -0.595  -0.012  0.00  0.00    +0.200 A 
ATOM     31  S   LIG    1        2.402   0.653  -0.017  0.00  0.00    +0.140 S 
ENDBRANCH  16  27
TORSDOF 3
