REMARK  Name = ZINCvU000000048j.0
REMARK                            x       y       z     vdW  Elec       q    Type
REMARK                         _______ _______ _______ _____ _____    ______ ____
ROOT
ATOM      1  C   LIG    1        3.594   2.242  -0.222  0.00  0.00    -0.100 A 
ATOM      2  C   LIG    1        3.491   3.611  -0.019  0.00  0.00    +0.100 A 
ATOM      3  C   LIG    1        2.266   4.203   0.196  0.00  0.00    +0.020 A 
ATOM      4  C   LIG    1        1.107   3.429   0.212  0.00  0.00    +0.130 A 
ATOM      5  O   LIG    1       -0.083   4.033   0.436  0.00  0.00    -0.180 OA
ATOM      6  C   LIG    1       -1.226   3.351   0.230  0.00  0.00    +0.100 A 
ATOM      7  C   LIG    1       -1.252   2.001   0.018  0.00  0.00    -0.240 A 
ATOM      8  C   LIG    1       -2.678   1.595  -0.155  0.00  0.00    +0.370 C 
ATOM      9  N   LIG    1       -3.465   2.834  -0.042  0.00  0.00    -0.510 N 
ATOM     10  C   LIG    1       -0.014   1.214   0.009  0.00  0.00    +0.460 A 
ATOM     11  O   LIG    1        0.002  -0.004   0.002  0.00  0.00    -0.430 OA
ATOM     12  C   LIG    1       -2.610   3.852   0.181  0.00  0.00    +0.580 C 
ATOM     13  O   LIG    1       -2.935   5.015   0.323  0.00  0.00    -0.460 OA
ATOM     14  C   LIG    1        1.217   2.044   0.001  0.00  0.00    -0.200 A 
ATOM     15  C   LIG    1        2.463   1.456  -0.213  0.00  0.00    +0.120 A 
ENDROOT
BRANCH   8  16
ATOM     16  C   LIG    1       -2.877   0.976  -1.515  0.00  0.00    -0.080 A 
ATOM     17  C   LIG    1       -2.967  -0.398  -1.642  0.00  0.00    +0.090 A 
ATOM     18  C   LIG    1       -3.149  -0.967  -2.889  0.00  0.00    +0.060 A 
ATOM     19  C   LIG    1       -3.241  -0.162  -4.010  0.00  0.00    -0.020 A 
ATOM     20  C   LIG    1       -3.150   1.214  -3.882  0.00  0.00    -0.030 A 
ATOM     21 CL   LIG    1       -3.266   2.225  -5.288  0.00  0.00    -0.040 Cl
ATOM     22 CL   LIG    1       -3.471  -0.876  -5.575  0.00  0.00    -0.040 Cl
ATOM     23  C   LIG    1       -2.973   1.782  -2.634  0.00  0.00    +0.050 A 
ENDBRANCH   8  16
BRANCH   9  24
ATOM     24  C   LIG    1       -4.851   2.936  -0.146  0.00  0.00    +0.270 A 
ATOM     25  N   LIG    1       -5.704   1.952  -0.271  0.00  0.00    -0.370 NA
ATOM     26  O   LIG    1       -6.841   2.358  -0.338  0.00  0.00    +0.110 OA
ATOM     27  C   LIG    1       -6.896   3.696  -0.265  0.00  0.00    -0.000 A 
ATOM     28  C   LIG    1       -8.137   4.549  -0.313  0.00  0.00    +0.210 C 
ATOM     29  C   LIG    1       -5.622   4.129  -0.132  0.00  0.00    -0.040 A 
ENDBRANCH   9  24
BRANCH   1  31
ATOM     30  C   LIG    1        5.252   1.603  -1.952  0.00  0.00    +0.030 C 
ATOM     31  C   LIG    1        4.945   1.615  -0.453  0.00  0.00    +0.070 C 
ENDBRANCH   1  31
TORSDOF 3
