REMARK  Name = ZINCrg000000thJ0.0
REMARK                            x       y       z     vdW  Elec       q    Type
REMARK                         _______ _______ _______ _____ _____    ______ ____
ROOT
ATOM      1  C   LIG    1        3.592   3.466  -0.258  0.00  0.00    +0.510 C 
ATOM      2  N   LIG    1        3.583   2.139  -0.024  0.00  0.00    -0.550 N 
ATOM      3  C   LIG    1        4.835   1.397   0.203  0.00  0.00    +0.250 C 
ATOM      4  C   LIG    1        4.717   0.066  -0.552  0.00  0.00    +0.250 C 
ATOM      5  N   LIG    1        3.595  -0.700  -0.003  0.00  0.00    -0.460 N 
ATOM      6  C   LIG    1        2.398   0.022   0.015  0.00  0.00    +0.070 A 
ATOM      7  C   LIG    1        1.194  -0.675   0.042  0.00  0.00    +0.070 A 
ATOM      8  C   LIG    1       -0.005   0.009   0.067  0.00  0.00    -0.020 A 
ATOM      9  C   LIG    1       -0.019   1.393   0.068  0.00  0.00    +0.110 A 
ATOM     10  C   LIG    1        1.173   2.096   0.041  0.00  0.00    +0.000 A 
ATOM     11  F   LIG    1       -1.196   2.057   0.090  0.00  0.00    -0.140 F 
ATOM     12  C   LIG    1        2.379   1.414   0.012  0.00  0.00    +0.150 A 
ATOM     13  O   LIG    1        2.562   4.038  -0.549  0.00  0.00    -0.500 OA
ENDROOT
BRANCH   5  14
ATOM     14  C   LIG    1        3.916  -1.221   1.333  0.00  0.00    +0.100 C 
ATOM     15  C   LIG    1        4.146  -2.727   1.467  0.00  0.00    +0.040 C 
ATOM     16  C   LIG    1        2.867  -2.097   2.020  0.00  0.00    +0.030 C 
ENDBRANCH   5  14
BRANCH   1  17
ATOM     17  C   LIG    1        4.881   4.241  -0.159  0.00  0.00    +0.380 C 
BRANCH  17  27
ATOM     18  O   LIG    1        4.294   5.967   1.867  0.00  0.00    -0.490 OA
ATOM     19  C   LIG    1        4.325   6.441   0.745  0.00  0.00    +0.570 A 
ATOM     20  C   LIG    1        4.058   7.865   0.519  0.00  0.00    +0.010 A 
ATOM     21  C   LIG    1        3.745   8.922   1.345  0.00  0.00    +0.020 A 
ATOM     22  C   LIG    1        3.604  10.052   0.546  0.00  0.00    +0.280 A 
ATOM     23  N   LIG    1        3.816   9.717  -0.706  0.00  0.00    -0.240 NA
ATOM     24  N   LIG    1        4.105   8.350  -0.765  0.00  0.00    -0.340 N 
ATOM     25  C   LIG    1        4.399   7.495  -1.804  0.00  0.00    +0.570 A 
ATOM     26  N   LIG    1        4.641   6.242  -1.606  0.00  0.00    -0.260 NA
ATOM     27  N   LIG    1        4.606   5.670  -0.330  0.00  0.00    -0.420 N 
ENDBRANCH  17  27
ENDBRANCH   1  17
TORSDOF 3
