REMARK  Name = ZINCpe000000TGYa.0
REMARK                            x       y       z     vdW  Elec       q    Type
REMARK                         _______ _______ _______ _____ _____    ______ ____
ROOT
ATOM      1  C   LIG    1        7.001   3.712   0.753  0.00  0.00    +0.650 C 
ATOM      2  N   LIG    1        5.848   3.021   0.863  0.00  0.00    -0.600 N 
ATOM      3  C   LIG    1        5.854   1.552   0.857  0.00  0.00    +0.300 C 
ATOM      4  C   LIG    1        4.915   1.063  -0.253  0.00  0.00    +0.290 C 
ATOM      5  N   LIG    1        3.631   1.766  -0.125  0.00  0.00    -0.610 N 
ATOM      6  C   LIG    1        3.625   3.235  -0.125  0.00  0.00    +0.270 C 
ATOM      7  C   LIG    1        2.479   1.075  -0.016  0.00  0.00    +0.560 C 
ATOM      8  O   LIG    1        2.503  -0.136   0.085  0.00  0.00    -0.520 OA
ATOM      9  C   LIG    1        4.564   3.724   0.991  0.00  0.00    +0.290 C 
ATOM     10  O   LIG    1        8.056   3.120   0.647  0.00  0.00    -0.570 OA
ENDROOT
BRANCH   7  11
ATOM     11  C   LIG    1        1.185   1.790  -0.020  0.00  0.00    -0.150 A 
ATOM     12  C   LIG    1        0.963   2.833  -0.920  0.00  0.00    +0.100 A 
ATOM     13  C   LIG    1       -0.247   3.496  -0.918  0.00  0.00    +0.000 A 
ATOM     14  C   LIG    1       -1.239   3.129  -0.027  0.00  0.00    +0.150 A 
ATOM     15  C   LIG    1       -1.028   2.092   0.865  0.00  0.00    -0.680 A 
ATOM     16  C   LIG    1        0.180   1.425   0.877  0.00  0.00    +0.180 A 
BRANCH  15  17
ATOM     17  S   LIG    1       -2.300   1.628   1.992  0.00  0.00    +2.690 S 
ATOM     18  O   LIG    1       -2.041   0.280   2.357  0.00  0.00    -0.950 OA
ATOM     19  O   LIG    1       -3.525   2.054   1.411  0.00  0.00    -0.950 OA
BRANCH  17  20
ATOM     20  N   LIG    1       -2.094   2.532   3.363  0.00  0.00    -1.000 NA
ATOM     21  C   LIG    1       -1.249   2.032   4.451  0.00  0.00    +0.310 C 
ATOM     22  C   LIG    1       -2.757   3.833   3.490  0.00  0.00    +0.300 C 
ENDBRANCH  17  20
ENDBRANCH  15  17
ENDBRANCH   7  11
BRANCH   1  23
ATOM     23  O   LIG    1        6.982   5.058   0.760  0.00  0.00    -0.370 OA
BRANCH  23  25
ATOM     24  C   LIG    1        8.039   7.250   0.666  0.00  0.00    +0.070 C 
ATOM     25  C   LIG    1        8.260   5.736   0.638  0.00  0.00    +0.220 C 
ENDBRANCH  23  25
ENDBRANCH   1  23
TORSDOF 5
