REMARK  Name = ZINCrH000004nmG9.0
REMARK                            x       y       z     vdW  Elec       q    Type
REMARK                         _______ _______ _______ _____ _____    ______ ____
ROOT
ATOM      1  N   LIG    1       -0.979   2.210   1.247  0.00  0.00    -0.730 N 
ATOM      2  H   LIG    1       -1.833   2.648   1.386  0.00  0.00    +0.400 HD
ATOM      3  C   LIG    1       -0.328   1.656   2.290  0.00  0.00    +0.510 C 
ATOM      4  O   LIG    1        0.740   1.108   2.116  0.00  0.00    -0.500 OA
ENDROOT
BRANCH   1   5
ATOM      5  C   LIG    1       -0.396   2.149  -0.096  0.00  0.00    +0.330 C 
BRANCH   5  12
ATOM      6  C   LIG    1       -2.300   2.111  -1.726  0.00  0.00    +0.160 A 
ATOM      7  C   LIG    1       -3.148   2.747  -2.622  0.00  0.00    -0.070 A 
ATOM      8  C   LIG    1       -3.002   4.099  -2.869  0.00  0.00    +0.080 A 
ATOM      9  C   LIG    1       -2.016   4.819  -2.221  0.00  0.00    -0.010 A 
ATOM     10  C   LIG    1       -1.172   4.188  -1.324  0.00  0.00    +0.020 A 
ATOM     11 CL   LIG    1        0.066   5.095  -0.512  0.00  0.00    -0.050 Cl
ATOM     12  C   LIG    1       -1.315   2.836  -1.073  0.00  0.00    -0.140 A 
BRANCH   6  14
ATOM     13  C   LIG    1       -3.475   0.098  -2.195  0.00  0.00    +0.240 C 
ATOM     14  O   LIG    1       -2.439   0.781  -1.486  0.00  0.00    -0.310 OA
ENDBRANCH   6  14
ENDBRANCH   5  12
ENDBRANCH   1   5
BRANCH   3  15
ATOM     15  C   LIG    1       -0.927   1.718   3.671  0.00  0.00    +0.290 C 
BRANCH  15  16
ATOM     16  N   LIG    1        0.123   1.501   4.669  0.00  0.00    -0.590 N 
ATOM     17  C   LIG    1        0.469   2.611   5.548  0.00  0.00    +0.260 C 
ATOM     18  C   LIG    1        1.199   2.098   6.793  0.00  0.00    +0.030 C 
ATOM     19  C   LIG    1        2.352   1.193   6.343  0.00  0.00    +0.020 C 
ATOM     20  C   LIG    1        1.760  -0.071   5.715  0.00  0.00    +0.070 C 
ATOM     21  C   LIG    1        0.706   0.303   4.713  0.00  0.00    +0.520 C 
ATOM     22  O   LIG    1        0.366  -0.531   3.900  0.00  0.00    -0.510 OA
ENDBRANCH  15  16
BRANCH  15  23
ATOM     23  C   LIG    1       -1.981   0.650   3.810  0.00  0.00    -0.070 A 
ATOM     24  C   LIG    1       -2.550   0.090   2.682  0.00  0.00    +0.020 A 
ATOM     25  C   LIG    1       -3.514  -0.893   2.809  0.00  0.00    +0.010 A 
ATOM     26  C   LIG    1       -3.914  -1.310   4.065  0.00  0.00    +0.000 A 
ATOM     27  C   LIG    1       -3.349  -0.746   5.193  0.00  0.00    +0.000 A 
ATOM     28  C   LIG    1       -2.382   0.234   5.066  0.00  0.00    +0.020 A 
ENDBRANCH  15  23
ENDBRANCH   3  15
TORSDOF 6
