REMARK  Name = ZINCqH0000008xZa.0
REMARK                            x       y       z     vdW  Elec       q    Type
REMARK                         _______ _______ _______ _____ _____    ______ ____
ROOT
ATOM      1  N   LIG    1        1.409   4.382   0.013  0.00  0.00    -0.700 N 
ATOM      2  H   LIG    1        1.011   5.266   0.027  0.00  0.00    +0.410 HD
ENDROOT
BRANCH   1   3
ATOM      3  C   LIG    1        2.867   4.235  -0.005  0.00  0.00    +0.260 C 
ATOM      4  C   LIG    1        3.546   5.518   0.527  0.00  0.00    +0.070 C 
ATOM      5  C   LIG    1        3.816   6.296  -0.780  0.00  0.00    +0.260 C 
ATOM      6  N   LIG    1        3.900   5.277  -1.833  0.00  0.00    -0.560 N 
ATOM      7  C   LIG    1        3.369   4.111  -1.426  0.00  0.00    +0.500 C 
ATOM      8  O   LIG    1        3.302   3.105  -2.101  0.00  0.00    -0.490 OA
BRANCH   6   9
ATOM      9  C   LIG    1        4.460   5.491  -3.097  0.00  0.00    +0.160 A 
ATOM     10  C   LIG    1        4.608   4.431  -3.982  0.00  0.00    -0.010 A 
ATOM     11  C   LIG    1        5.156   4.647  -5.231  0.00  0.00    +0.040 A 
ATOM     12  C   LIG    1        5.568   5.915  -5.596  0.00  0.00    -0.030 A 
ATOM     13  C   LIG    1        5.428   6.972  -4.716  0.00  0.00    +0.040 A 
ATOM     14  C   LIG    1        4.875   6.764  -3.467  0.00  0.00    -0.040 A 
ENDBRANCH   6   9
ENDBRANCH   1   3
BRANCH   1  18
ATOM     15  N   LIG    1       -1.152   1.908   0.009  0.00  0.00    -0.360 N 
ATOM     16  C   LIG    1       -0.061   1.115  -0.007  0.00  0.00    +0.250 A 
ATOM     17  C   LIG    1        1.032   1.912  -0.011  0.00  0.00    -0.150 A 
ATOM     18  C   LIG    1        0.591   3.246   0.009  0.00  0.00    +0.330 A 
ATOM     19  N   LIG    1       -0.721   3.240   0.024  0.00  0.00    -0.340 NA
BRANCH  15  21
ATOM     20  C   LIG    1       -2.670   0.183  -0.830  0.00  0.00    +0.060 C 
ATOM     21  C   LIG    1       -2.546   1.454   0.011  0.00  0.00    +0.320 C 
BRANCH  21  22
ATOM     22  C   LIG    1       -2.977   1.165   1.426  0.00  0.00    -0.110 A 
ATOM     23  C   LIG    1       -2.316   0.203   2.167  0.00  0.00    +0.020 A 
ATOM     24  C   LIG    1       -2.708  -0.059   3.466  0.00  0.00    +0.000 A 
ATOM     25  C   LIG    1       -3.768   0.634   4.021  0.00  0.00    +0.010 A 
ATOM     26  C   LIG    1       -4.432   1.592   3.279  0.00  0.00    +0.010 A 
ATOM     27  C   LIG    1       -4.037   1.857   1.981  0.00  0.00    +0.020 A 
ENDBRANCH  21  22
ENDBRANCH  15  21
ENDBRANCH   1  18
TORSDOF 5
