REMARK  Name = ZINCtV000002I0tV.1
REMARK                            x       y       z     vdW  Elec       q    Type
REMARK                         _______ _______ _______ _____ _____    ______ ____
ROOT
ATOM      1  C   LIG    1        2.811   4.006  -0.003  0.00  0.00    +0.510 C 
ATOM      2  N   LIG    1        3.039   5.334   0.002  0.00  0.00    -0.630 N 
ATOM      3  H   LIG    1        2.294   5.954   0.012  0.00  0.00    +0.430 HD
ATOM      4  O   LIG    1        3.744   3.230  -0.016  0.00  0.00    -0.460 OA
ENDROOT
BRANCH   2   5
ATOM      5  C   LIG    1        4.346   5.816  -0.008  0.00  0.00    +0.250 A 
ATOM      6  N   LIG    1        5.427   5.096  -0.017  0.00  0.00    -0.250 NA
ATOM      7  N   LIG    1        6.535   5.699  -0.029  0.00  0.00    -0.240 NA
ATOM      8  C   LIG    1        6.516   7.000  -0.022  0.00  0.00    -0.020 A 
ATOM      9  S   LIG    1        4.828   7.514  -0.004  0.00  0.00    +0.120 S 
BRANCH   8  10
ATOM     10  S   LIG    1        7.924   8.059  -0.028  0.00  0.00    +0.050 S 
BRANCH  10  11
ATOM     11  C   LIG    1        9.313   6.891  -0.048  0.00  0.00    +0.160 C 
BRANCH  11  12
ATOM     12  C   LIG    1       10.611   7.656  -0.055  0.00  0.00    -0.070 A 
ATOM     13  C   LIG    1       11.200   8.008  -1.256  0.00  0.00    -0.010 A 
ATOM     14  C   LIG    1       12.390   8.715  -1.262  0.00  0.00    +0.050 A 
ATOM     15  C   LIG    1       12.996   9.058  -0.068  0.00  0.00    +0.070 A 
ATOM     16  C   LIG    1       12.411   8.701   1.132  0.00  0.00    +0.050 A 
ATOM     17 CL   LIG    1       10.443   7.571  -2.756  0.00  0.00    -0.040 Cl
ATOM     18  C   LIG    1       11.219   7.999   1.139  0.00  0.00    -0.010 A 
ATOM     19 CL   LIG    1       10.485   7.551   2.647  0.00  0.00    -0.040 Cl
ENDBRANCH  11  12
ENDBRANCH  10  11
ENDBRANCH   8  10
ENDBRANCH   2   5
BRANCH   1  20
ATOM     20  C   LIG    1        1.397   3.484   0.007  0.00  0.00    +0.090 C 
BRANCH  20  21
ATOM     21  C   LIG    1        1.418   1.954  -0.001  0.00  0.00    +0.070 C 
BRANCH  21  22
ATOM     22  C   LIG    1       -0.017   1.425   0.010  0.00  0.00    +0.180 C 
BRANCH  22  23
ATOM     23  O   LIG    1        0.002  -0.004   0.002  0.00  0.00    -0.310 OA
BRANCH  23  28
ATOM     24  C   LIG    1       -4.981  -2.629   0.035  0.00  0.00    +0.090 C 
ATOM     25  C   LIG    1       -3.648  -1.927   0.026  0.00  0.00    -0.120 A 
ATOM     26  C   LIG    1       -2.479  -2.665   0.011  0.00  0.00    +0.050 A 
ATOM     27  C   LIG    1       -1.255  -2.024   0.003  0.00  0.00    -0.020 A 
ATOM     28  C   LIG    1       -1.200  -0.637   0.010  0.00  0.00    +0.120 A 
ATOM     29  C   LIG    1       -2.374   0.101   0.031  0.00  0.00    -0.080 A 
ATOM     30  C   LIG    1       -3.595  -0.545   0.033  0.00  0.00    +0.040 A 
ENDBRANCH  23  28
ENDBRANCH  22  23
ENDBRANCH  21  22
ENDBRANCH  20  21
ENDBRANCH   1  20
TORSDOF 9
