REMARK  Name = ZINCkj000005hbQN.0
REMARK                            x       y       z     vdW  Elec       q    Type
REMARK                         _______ _______ _______ _____ _____    ______ ____
ROOT
ATOM      1  S   LIG    1       -4.395   0.478  -0.390  0.00  0.00    +2.690 S 
ATOM      2  O   LIG    1       -4.892   1.756  -0.019  0.00  0.00    -0.940 OA
ATOM      3  O   LIG    1       -4.958  -0.740   0.077  0.00  0.00    -0.940 OA
ENDROOT
BRANCH   1   4
ATOM      4  C   LIG    1       -4.455   0.411  -2.149  0.00  0.00    -0.690 A 
ATOM      5  C   LIG    1       -4.978  -0.678  -2.778  0.00  0.00    +0.190 A 
ATOM      6  C   LIG    1       -5.037  -0.746  -4.169  0.00  0.00    +0.000 A 
ATOM      7  C   LIG    1       -4.567   0.271  -4.943  0.00  0.00    +0.140 A 
ATOM      8  C   LIG    1       -4.016   1.408  -4.331  0.00  0.00    -0.140 A 
ATOM      9  C   LIG    1       -3.515   2.487  -5.076  0.00  0.00    +0.340 A 
ATOM     10  N   LIG    1       -3.009   3.530  -4.459  0.00  0.00    -0.490 NA
ATOM     11  C   LIG    1       -2.945   3.620  -3.138  0.00  0.00    +0.270 A 
ATOM     12  C   LIG    1       -3.404   2.628  -2.326  0.00  0.00    -0.070 A 
ATOM     13  C   LIG    1       -3.961   1.478  -2.914  0.00  0.00    +0.060 A 
ENDBRANCH   1   4
BRANCH   1  15
ATOM     14  C   LIG    1       -2.079  -0.823   0.121  0.00  0.00    +0.300 C 
ATOM     15  N   LIG    1       -2.798   0.452   0.047  0.00  0.00    -0.990 NA
BRANCH  15  16
ATOM     16  C   LIG    1       -2.104   1.703   0.361  0.00  0.00    +0.270 C 
ATOM     17  C   LIG    1       -0.778   1.879  -0.398  0.00  0.00    +0.060 C 
ATOM     18  C   LIG    1       -0.101   1.148   0.774  0.00  0.00    +0.150 C 
ATOM     19  C   LIG    1       -1.265   1.637   1.651  0.00  0.00    +0.080 C 
BRANCH  18  20
ATOM     20  N   LIG    1        1.200   1.718   1.151  0.00  0.00    -0.630 N 
ATOM     21  H   LIG    1        1.836   1.647   0.371  0.00  0.00    +0.440 HD
ATOM     22  H   LIG    1        1.574   1.209   1.938  0.00  0.00    +0.440 HD
ATOM     23  H   LIG    1        1.082   2.688   1.402  0.00  0.00    +0.430 HD
ENDBRANCH  18  20
ENDBRANCH  15  16
ENDBRANCH   1  15
TORSDOF 4
