REMARK  Name = ZINCrH000004o2tP.0
REMARK                            x       y       z     vdW  Elec       q    Type
REMARK                         _______ _______ _______ _____ _____    ______ ____
ROOT
ATOM      1  S   LIG    1       -2.296  -1.228   1.208  0.00  0.00    +2.690 S 
ATOM      2  O   LIG    1       -1.416  -1.991   2.021  0.00  0.00    -0.950 OA
ATOM      3  O   LIG    1       -3.450  -1.775   0.585  0.00  0.00    -0.950 OA
ENDROOT
BRANCH   1   4
ATOM      4  C   LIG    1       -2.856   0.114   2.204  0.00  0.00    -0.700 A 
ATOM      5  C   LIG    1       -4.121   0.644   1.996  0.00  0.00    +0.190 A 
ATOM      6  C   LIG    1       -4.579   1.694   2.764  0.00  0.00    +0.010 A 
ATOM      7  C   LIG    1       -3.768   2.227   3.758  0.00  0.00    +0.200 A 
ATOM      8  O   LIG    1       -4.197   3.255   4.522  0.00  0.00    -0.270 OA
ATOM      9  C   LIG    1       -3.425   3.780   5.486  0.00  0.00    +0.510 A 
ATOM     10  C   LIG    1       -2.129   3.287   5.750  0.00  0.00    -0.070 A 
ATOM     11  C   LIG    1       -1.638   2.256   5.018  0.00  0.00    +0.160 A 
ATOM     12  O   LIG    1       -3.855   4.706   6.150  0.00  0.00    -0.450 OA
ATOM     13  C   LIG    1       -2.487   1.687   3.966  0.00  0.00    -0.180 A 
ATOM     14  C   LIG    1       -2.044   0.620   3.180  0.00  0.00    +0.200 A 
ENDBRANCH   1   4
BRANCH   1  15
ATOM     15  N   LIG    1       -1.371  -0.584  -0.005  0.00  0.00    -0.980 NA
BRANCH  15  17
ATOM     16  C   LIG    1        0.914  -0.946  -0.800  0.00  0.00    +0.050 C 
ATOM     17  C   LIG    1        0.035  -0.252   0.242  0.00  0.00    +0.270 C 
BRANCH  17  18
ATOM     18  C   LIG    1        0.226   1.263   0.144  0.00  0.00    -0.060 C 
ATOM     19  C   LIG    1        1.155   1.787  -0.953  0.00  0.00    +0.010 C 
ATOM     20  C   LIG    1        1.600   1.826   0.510  0.00  0.00    +0.010 C 
ENDBRANCH  17  18
ENDBRANCH  15  17
BRANCH  15  21
ATOM     21  C   LIG    1       -1.958  -0.346  -1.327  0.00  0.00    +0.360 C 
BRANCH  21  22
ATOM     22  C   LIG    1       -2.458   1.073  -1.406  0.00  0.00    -0.110 A 
ATOM     23  C   LIG    1       -3.714   1.390  -0.924  0.00  0.00    +0.000 A 
ATOM     24  C   LIG    1       -4.172   2.693  -0.992  0.00  0.00    +0.000 A 
ATOM     25  C   LIG    1       -3.378   3.676  -1.552  0.00  0.00    +0.010 A 
ATOM     26  C   LIG    1       -2.124   3.357  -2.039  0.00  0.00    +0.000 A 
ATOM     27  C   LIG    1       -1.664   2.056  -1.966  0.00  0.00    +0.030 A 
ENDBRANCH  21  22
ENDBRANCH  15  21
ENDBRANCH   1  15
TORSDOF 6
