REMARK  Name = ZINCnE00000hdc3X.0
REMARK                            x       y       z     vdW  Elec       q    Type
REMARK                         _______ _______ _______ _____ _____    ______ ____
ROOT
ATOM      1  N   LIG    1       -2.338   6.276  -0.522  0.00  0.00    -0.570 N 
ATOM      2  C   LIG    1       -3.078   5.157  -0.399  0.00  0.00    +0.580 C 
ATOM      3  C   LIG    1       -2.399   3.853  -0.252  0.00  0.00    -0.140 A 
ATOM      4  C   LIG    1       -3.102   2.659  -0.397  0.00  0.00    +0.070 A 
ATOM      5  C   LIG    1       -2.437   1.456  -0.267  0.00  0.00    -0.030 A 
ATOM      6  C   LIG    1       -1.079   1.437  -0.006  0.00  0.00    +0.020 A 
ATOM      7  C   LIG    1       -0.376   2.621   0.139  0.00  0.00    +0.010 A 
ATOM      8  C   LIG    1       -1.030   3.828   0.023  0.00  0.00    -0.010 A 
ATOM      9  C   LIG    1       -0.289   5.125   0.212  0.00  0.00    -0.060 C 
ATOM     10  O   LIG    1       -4.292   5.220  -0.409  0.00  0.00    -0.550 OA
ATOM     11  C   LIG    1       -0.888   6.207  -0.684  0.00  0.00    +0.300 C 
ENDROOT
BRANCH  11  12
ATOM     12  C   LIG    1       -0.285   7.540  -0.321  0.00  0.00    -0.120 A 
ATOM     13  C   LIG    1        0.555   7.692   0.703  0.00  0.00    +0.040 A 
ATOM     14  S   LIG    1        1.047   9.377   0.818  0.00  0.00    +0.070 S 
ATOM     15  C   LIG    1        0.054   9.792  -0.574  0.00  0.00    -0.060 A 
ATOM     16  C   LIG    1       -0.557   8.697  -1.030  0.00  0.00    +0.020 A 
ENDBRANCH  11  12
BRANCH   9  17
ATOM     17  C   LIG    1       -0.393   5.555   1.653  0.00  0.00    +0.510 C 
ATOM     18  O   LIG    1       -1.339   6.230   2.021  0.00  0.00    -0.660 OA
ATOM     19  O   LIG    1        0.469   5.227   2.450  0.00  0.00    -0.690 OA
ENDBRANCH   9  17
BRANCH   1  20
ATOM     20  C   LIG    1       -2.999   7.583  -0.494  0.00  0.00    +0.290 C 
BRANCH  20  21
ATOM     21  C   LIG    1       -2.936   8.155   0.924  0.00  0.00    +0.120 C 
BRANCH  21  23
ATOM     22  C   LIG    1       -3.581  10.281   2.693  0.00  0.00    +0.120 C 
ATOM     23  S   LIG    1       -3.755   9.774   0.960  0.00  0.00    -0.300 S 
ENDBRANCH  21  23
ENDBRANCH  20  21
ENDBRANCH   1  20
TORSDOF 5
