REMARK  Name = ZINCpk000005NQpC.0
REMARK                            x       y       z     vdW  Elec       q    Type
REMARK                         _______ _______ _______ _____ _____    ______ ____
ROOT
ATOM      1  C   LIG    1        1.317   0.779  -0.006  0.00  0.00    +0.090 C 
ATOM      2  C   LIG    1        0.126   1.737  -0.083  0.00  0.00    +0.020 C 
ATOM      3  C   LIG    1       -0.111   0.233   0.074  0.00  0.00    +0.050 C 
ENDROOT
BRANCH   1   4
ATOM      4  C   LIG    1        2.144   0.783   1.280  0.00  0.00    +0.270 C 
ATOM      5  C   LIG    1        2.560   2.227   1.632  0.00  0.00    +0.050 C 
ATOM      6  C   LIG    1        2.435   2.257   3.178  0.00  0.00    +0.040 C 
ATOM      7  C   LIG    1        1.207   1.342   3.409  0.00  0.00    +0.250 C 
ATOM      8  N   LIG    1        1.334   0.277   2.398  0.00  0.00    -0.610 N 
ATOM      9  C   LIG    1        0.796  -0.955   2.483  0.00  0.00    +0.560 C 
ATOM     10  O   LIG    1        0.966  -1.754   1.587  0.00  0.00    -0.520 OA
BRANCH   9  11
ATOM     11  C   LIG    1       -0.016  -1.341   3.693  0.00  0.00    -0.070 C 
ATOM     12  C   LIG    1        0.576  -2.389   4.637  0.00  0.00    +0.050 C 
ATOM     13  C   LIG    1       -0.600  -2.754   3.730  0.00  0.00    -0.090 C 
ATOM     14  C   LIG    1       -0.315  -3.668   2.537  0.00  0.00    +0.080 C 
ATOM     15  C   LIG    1       -1.970  -2.936   4.388  0.00  0.00    +0.070 C 
ENDBRANCH   9  11
ENDBRANCH   1   4
BRANCH   1  17
ATOM     16  C   LIG    1        1.426   0.507  -2.425  0.00  0.00    +0.620 C 
ATOM     17  N   LIG    1        2.067   0.532  -1.240  0.00  0.00    -0.670 N 
ATOM     18  H   LIG    1        3.025   0.387  -1.204  0.00  0.00    +0.410 HD
ATOM     19  O   LIG    1        0.225   0.689  -2.470  0.00  0.00    -0.510 OA
BRANCH  16  23
ATOM     20  C   LIG    1        5.150  -0.406  -5.610  0.00  0.00    +0.200 C 
ATOM     21  C   LIG    1        3.787  -0.134  -5.028  0.00  0.00    +0.220 A 
ATOM     22  N   LIG    1        3.509   0.048  -3.762  0.00  0.00    -0.480 NA
ATOM     23  C   LIG    1        2.183   0.258  -3.671  0.00  0.00    +0.140 A 
ATOM     24  N   LIG    1        1.681   0.208  -4.885  0.00  0.00    -0.250 NA
ATOM     25  N   LIG    1        2.635  -0.028  -5.718  0.00  0.00    -0.300 N 
ATOM     26  C   LIG    1        2.492  -0.159  -7.170  0.00  0.00    +0.370 C 
ENDBRANCH  16  23
ENDBRANCH   1  17
TORSDOF 4
