REMARK  Name = ZINCvU00000008m3.0
REMARK                            x       y       z     vdW  Elec       q    Type
REMARK                         _______ _______ _______ _____ _____    ______ ____
ROOT
ATOM      1  C   LIG    1        3.782  -0.983  -0.036  0.00  0.00    +0.270 C 
ENDROOT
BRANCH   1   4
ATOM      2  N   LIG    1        4.640  -3.187  -0.759  0.00  0.00    -0.640 N 
ATOM      3  H   LIG    1        5.519  -2.910  -0.454  0.00  0.00    +0.420 HD
ATOM      4  C   LIG    1        3.591  -2.350  -0.642  0.00  0.00    +0.520 C 
ATOM      5  O   LIG    1        2.493  -2.696  -1.023  0.00  0.00    -0.450 OA
BRANCH   2  14
ATOM      6  N   LIG    1        5.453  -5.369  -1.488  0.00  0.00    -0.500 N 
ATOM      7  C   LIG    1        4.874  -6.484  -2.069  0.00  0.00    +0.050 A 
ATOM      8  C   LIG    1        5.358  -7.719  -2.474  0.00  0.00    +0.010 A 
ATOM      9  C   LIG    1        4.502  -8.640  -3.040  0.00  0.00    +0.030 A 
ATOM     10  C   LIG    1        3.158  -8.340  -3.208  0.00  0.00    +0.010 A 
ATOM     11  C   LIG    1        2.660  -7.119  -2.812  0.00  0.00    +0.060 A 
ATOM     12  C   LIG    1        3.514  -6.175  -2.237  0.00  0.00    +0.060 A 
ATOM     13  N   LIG    1        3.328  -4.917  -1.758  0.00  0.00    -0.470 NA
ATOM     14  C   LIG    1        4.465  -4.443  -1.315  0.00  0.00    +0.500 A 
BRANCH   6  15
ATOM     15  C   LIG    1        6.864  -5.212  -1.125  0.00  0.00    +0.300 C 
BRANCH  15  17
ATOM     16  C   LIG    1        8.551  -5.535   0.689  0.00  0.00    +0.040 C 
ATOM     17  C   LIG    1        7.078  -5.699   0.309  0.00  0.00    +0.000 C 
ENDBRANCH  15  17
ENDBRANCH   6  15
ENDBRANCH   2  14
ENDBRANCH   1   4
BRANCH   1  18
ATOM     18  N   LIG    1        2.501  -0.273  -0.021  0.00  0.00    -0.710 N 
ATOM     19  H   LIG    1        1.669  -0.772  -0.016  0.00  0.00    +0.410 HD
ATOM     20  C   LIG    1        2.478   1.075  -0.015  0.00  0.00    +0.560 C 
ATOM     21  O   LIG    1        3.520   1.701  -0.021  0.00  0.00    -0.510 OA
BRANCH  20  22
ATOM     22  C   LIG    1        1.186   1.792   0.000  0.00  0.00    -0.130 A 
ATOM     23  C   LIG    1       -0.013   1.076   0.008  0.00  0.00    +0.090 A 
ATOM     24  C   LIG    1       -1.215   1.750   0.017  0.00  0.00    +0.040 A 
ATOM     25  C   LIG    1       -1.236   3.135   0.030  0.00  0.00    +0.000 A 
ATOM     26  C   LIG    1       -0.052   3.852   0.022  0.00  0.00    +0.040 A 
ATOM     27 CL   LIG    1       -2.755   3.976   0.049  0.00  0.00    -0.040 Cl
ATOM     28  C   LIG    1        1.159   3.189   0.008  0.00  0.00    +0.030 A 
ATOM     29 CL   LIG    1        2.644   4.089  -0.002  0.00  0.00    -0.020 Cl
ENDBRANCH  20  22
ENDBRANCH   1  18
BRANCH   1  30
ATOM     30  C   LIG    1        4.302  -1.127   1.395  0.00  0.00    +0.070 C 
BRANCH  30  31
ATOM     31  C   LIG    1        4.614   0.257   1.966  0.00  0.00    +0.100 C 
BRANCH  31  32
ATOM     32  S   LIG    1        5.231   0.086   3.664  0.00  0.00    -0.270 S 
ATOM     33  C   LIG    1        5.539   1.804   4.161  0.00  0.00    +0.140 C 
ENDBRANCH  31  32
ENDBRANCH  30  31
ENDBRANCH   1  30
TORSDOF 9
