REMARK  Name = ZINCpe00000HWENP.0
REMARK                            x       y       z     vdW  Elec       q    Type
REMARK                         _______ _______ _______ _____ _____    ______ ____
ROOT
ATOM      1  C   LIG    1       -6.478   8.207  -1.025  0.00  0.00    -0.230 C 
ATOM      2  C   LIG    1       -6.265   7.512   0.113  0.00  0.00    +0.200 C 
ATOM      3  N   LIG    1       -5.776   8.125   1.232  0.00  0.00    -0.640 N 
ATOM      4  H   LIG    1       -5.635   7.584   2.025  0.00  0.00    +0.430 HD
ATOM      5  C   LIG    1       -5.480   9.429   1.295  0.00  0.00    +0.710 C 
ATOM      6  N   LIG    1       -5.644  10.253   0.241  0.00  0.00    -0.720 N 
ATOM      7  H   LIG    1       -5.423  11.196   0.309  0.00  0.00    +0.440 HD
ATOM      8  O   LIG    1       -5.049   9.884   2.336  0.00  0.00    -0.560 OA
ATOM      9  C   LIG    1       -6.167   9.690  -1.015  0.00  0.00    +0.340 C 
ENDROOT
BRANCH   1  10
ATOM     10  C   LIG    1       -6.979   7.573  -2.186  0.00  0.00    +0.530 C 
ATOM     11  O   LIG    1       -6.221   7.268  -3.088  0.00  0.00    -0.480 OA
BRANCH  10  12
ATOM     12  O   LIG    1       -8.297   7.307  -2.294  0.00  0.00    -0.350 OA
BRANCH  12  14
ATOM     13  C   LIG    1      -10.247   6.446  -3.434  0.00  0.00    +0.070 C 
ATOM     14  C   LIG    1       -8.734   6.665  -3.494  0.00  0.00    +0.200 C 
ENDBRANCH  12  14
ENDBRANCH  10  12
ENDBRANCH   1  10
BRANCH   2  15
ATOM     15  C   LIG    1       -6.566   6.036   0.148  0.00  0.00    +0.310 C 
BRANCH  15  16
ATOM     16  O   LIG    1       -5.333   5.295   0.344  0.00  0.00    -0.340 OA
BRANCH  16  17
ATOM     17  C   LIG    1       -5.428   3.953   0.398  0.00  0.00    +0.510 C 
ATOM     18  O   LIG    1       -6.512   3.416   0.285  0.00  0.00    -0.480 OA
BRANCH  17  19
ATOM     19  C   LIG    1       -4.215   3.133   0.596  0.00  0.00    -0.080 A 
ATOM     20  C   LIG    1       -4.311   1.741   0.653  0.00  0.00    +0.120 A 
ATOM     21  C   LIG    1       -3.174   0.982   0.838  0.00  0.00    +0.110 A 
ATOM     22  C   LIG    1       -1.941   1.597   0.966  0.00  0.00    -0.010 A 
ATOM     23  C   LIG    1       -1.840   2.976   0.916  0.00  0.00    +0.100 A 
ATOM     24  C   LIG    1       -2.968   3.747   0.726  0.00  0.00    +0.100 A 
BRANCH  22  25
ATOM     25  N   LIG    1       -0.725   0.776   1.165  0.00  0.00    +0.020 N 
ATOM     26  O   LIG    1        0.362   1.315   1.274  0.00  0.00    -0.150 OA
ATOM     27  O   LIG    1       -0.812  -0.438   1.215  0.00  0.00    -0.150 OA
ENDBRANCH  22  25
ENDBRANCH  17  19
ENDBRANCH  16  17
ENDBRANCH  15  16
ENDBRANCH   2  15
TORSDOF 8
