REMARK  Name = ZINCrg000000njHp.2
REMARK                            x       y       z     vdW  Elec       q    Type
REMARK                         _______ _______ _______ _____ _____    ______ ____
ROOT
ATOM      1  C   LIG    1       -2.860   5.880   5.895  0.00  0.00    +0.330 C 
ENDROOT
BRANCH   1   2
ATOM      2  C   LIG    1       -2.285   5.457   7.222  0.00  0.00    -0.070 A 
ATOM      3  C   LIG    1       -2.685   4.266   7.798  0.00  0.00    +0.040 A 
ATOM      4  C   LIG    1       -2.157   3.872   9.013  0.00  0.00    +0.060 A 
ATOM      5  C   LIG    1       -1.232   4.678   9.661  0.00  0.00    +0.140 A 
ATOM      6  C   LIG    1       -0.835   5.879   9.081  0.00  0.00    +0.110 A 
ATOM      7  F   LIG    1        0.066   6.668   9.708  0.00  0.00    -0.120 F 
ATOM      8  C   LIG    1       -1.363   6.265   7.864  0.00  0.00    +0.020 A 
BRANCH   5   9
ATOM      9  N   LIG    1       -0.699   4.285  10.892  0.00  0.00    -0.950 N 
ATOM     10  C   LIG    1        0.449   3.389  11.098  0.00  0.00    +0.260 C 
ATOM     11  C   LIG    1        1.167   3.747  12.416  0.00  0.00    +0.090 C 
ATOM     12  C   LIG    1        0.013   3.921  13.444  0.00  0.00    -0.290 C 
ATOM     13  S   LIG    1       -1.255   4.739  12.400  0.00  0.00    +2.560 S 
ATOM     14  O   LIG    1       -2.521   4.109  12.534  0.00  0.00    -0.950 OA
ATOM     15  O   LIG    1       -1.117   6.153  12.436  0.00  0.00    -0.940 OA
ENDBRANCH   5   9
ENDBRANCH   1   2
BRANCH   1  17
ATOM     16  C   LIG    1       -2.342   5.620   3.528  0.00  0.00    +0.520 C 
ATOM     17  N   LIG    1       -2.020   5.364   4.812  0.00  0.00    -0.730 N 
ATOM     18  H   LIG    1       -1.231   4.838   5.018  0.00  0.00    +0.400 HD
ATOM     19  O   LIG    1       -3.328   6.277   3.270  0.00  0.00    -0.510 OA
BRANCH  16  24
ATOM     20  N   LIG    1       -0.749   3.048   1.275  0.00  0.00    -0.530 NA
ATOM     21  C   LIG    1       -1.268   3.575   0.004  0.00  0.00    +0.160 C 
ATOM     22  C   LIG    1       -1.216   5.105   0.033  0.00  0.00    +0.230 C 
ATOM     23  O   LIG    1       -1.956   5.581   1.160  0.00  0.00    -0.360 OA
ATOM     24  C   LIG    1       -1.477   5.088   2.414  0.00  0.00    +0.170 C 
ATOM     25  C   LIG    1       -1.532   3.558   2.409  0.00  0.00    +0.170 C 
BRANCH  20  27
ATOM     26  C   LIG    1       -0.013   1.086   0.008  0.00  0.00    +0.040 C 
ATOM     27  C   LIG    1       -0.729   1.579   1.267  0.00  0.00    +0.120 C 
ATOM     28  C   LIG    1        0.011   1.072   2.506  0.00  0.00    +0.030 C 
ENDBRANCH  20  27
ENDBRANCH  16  24
ENDBRANCH   1  17
TORSDOF 5
