REMARK  Name = ZINCqH0000031IUl.0
REMARK                            x       y       z     vdW  Elec       q    Type
REMARK                         _______ _______ _______ _____ _____    ______ ____
ROOT
ATOM      1  N   LIG    1        0.086   0.044   0.218  0.00  0.00    -0.690 N 
ATOM      2  H   LIG    1       -0.684  -0.433   0.566  0.00  0.00    +0.410 HD
ATOM      3  C   LIG    1       -0.080   1.230  -0.400  0.00  0.00    +0.710 C 
ATOM      4  N   LIG    1       -1.320   1.718  -0.602  0.00  0.00    -0.590 N 
ATOM      5  O   LIG    1        0.890   1.863  -0.770  0.00  0.00    -0.560 OA
ENDROOT
BRANCH   1  10
ATOM      6  C   LIG    1        2.838  -2.406   0.383  0.00  0.00    -0.150 A 
ATOM      7  C   LIG    1        3.922  -1.559   0.633  0.00  0.00    +0.050 A 
ATOM      8  C   LIG    1        3.722  -0.198   0.742  0.00  0.00    +0.020 A 
ATOM      9  C   LIG    1        2.454   0.333   0.599  0.00  0.00    +0.060 A 
ATOM     10  C   LIG    1        1.368  -0.500   0.356  0.00  0.00    +0.150 A 
ATOM     11  C   LIG    1        1.555  -1.868   0.244  0.00  0.00    +0.040 A 
BRANCH   6  13
ATOM     12  C   LIG    1        4.431  -4.435   0.416  0.00  0.00    +0.080 C 
ATOM     13  C   LIG    1        3.047  -3.858   0.267  0.00  0.00    +0.400 C 
ATOM     14  O   LIG    1        2.105  -4.591   0.050  0.00  0.00    -0.460 OA
ENDBRANCH   6  13
ENDBRANCH   1  10
BRANCH   4  15
ATOM     15  C   LIG    1       -1.509   2.933  -1.398  0.00  0.00    +0.220 C 
ATOM     16  C   LIG    1       -0.336   3.402  -2.261  0.00  0.00    +0.040 C 
ATOM     17  C   LIG    1       -0.711   4.174  -0.993  0.00  0.00    +0.020 C 
ENDBRANCH   4  15
BRANCH   4  18
ATOM     18  C   LIG    1       -2.479   1.032  -0.025  0.00  0.00    +0.270 C 
BRANCH  18  19
ATOM     19  C   LIG    1       -2.763   1.594   1.369  0.00  0.00    +0.240 C 
BRANCH  19  20
ATOM     20  C   LIG    1       -3.876   0.807   2.011  0.00  0.00    -0.130 A 
ATOM     21  C   LIG    1       -5.191   1.075   1.679  0.00  0.00    +0.050 A 
ATOM     22  C   LIG    1       -6.213   0.350   2.264  0.00  0.00    -0.010 A 
ATOM     23  C   LIG    1       -5.919  -0.636   3.190  0.00  0.00    +0.100 A 
ATOM     24  C   LIG    1       -4.602  -0.899   3.526  0.00  0.00    -0.010 A 
ATOM     25  F   LIG    1       -6.917  -1.342   3.766  0.00  0.00    -0.140 F 
ATOM     26  C   LIG    1       -3.582  -0.177   2.936  0.00  0.00    +0.050 A 
ENDBRANCH  19  20
BRANCH  19  27
ATOM     27  O   LIG    1       -3.150   2.965   1.260  0.00  0.00    -0.540 OA
ATOM     28  H   LIG    1       -3.945   3.109   0.728  0.00  0.00    +0.370 HD
ENDBRANCH  19  27
ENDBRANCH  18  19
ENDBRANCH   4  18
TORSDOF 7
