REMARK  Name = ZINCtV00000L6kHO.0
REMARK                            x       y       z     vdW  Elec       q    Type
REMARK                         _______ _______ _______ _____ _____    ______ ____
ROOT
ATOM      1  C   LIG    1       -1.160   7.408  -0.455  0.00  0.00    +0.110 C 
ENDROOT
BRANCH   1   2
ATOM      2  C   LIG    1       -1.176   5.904  -0.356  0.00  0.00    +0.550 C 
ATOM      3  N   LIG    1       -0.067   5.243   0.030  0.00  0.00    -0.690 N 
ATOM      4  H   LIG    1        0.719   5.737   0.313  0.00  0.00    +0.420 HD
ATOM      5  O   LIG    1       -2.187   5.290  -0.622  0.00  0.00    -0.490 OA
BRANCH   3   6
ATOM      6  C   LIG    1       -0.049   3.843   0.022  0.00  0.00    +0.190 A 
ATOM      7  C   LIG    1       -0.555   3.134   1.105  0.00  0.00    -0.030 A 
ATOM      8  C   LIG    1       -0.540   1.752   1.091  0.00  0.00    +0.080 A 
ATOM      9  C   LIG    1       -0.012   1.076   0.007  0.00  0.00    +0.050 A 
ATOM     10  C   LIG    1        0.493   1.779  -1.071  0.00  0.00    +0.090 A 
ATOM     11 CL   LIG    1       -1.213   3.983   2.469  0.00  0.00    -0.040 Cl
ATOM     12  C   LIG    1        0.476   3.160  -1.067  0.00  0.00    -0.170 A 
BRANCH  12  13
ATOM     13  C   LIG    1        1.027   3.925  -2.242  0.00  0.00    +0.510 C 
ATOM     14  F   LIG    1        2.081   4.741  -1.816  0.00  0.00    -0.170 F 
ATOM     15  F   LIG    1        0.018   4.719  -2.797  0.00  0.00    -0.170 F 
ATOM     16  F   LIG    1        1.495   3.025  -3.206  0.00  0.00    -0.170 F 
ENDBRANCH  12  13
ENDBRANCH   3   6
ENDBRANCH   1   2
BRANCH   1  17
ATOM     17  S   LIG    1       -2.785   7.995  -0.994  0.00  0.00    +0.080 S 
BRANCH  17  26
ATOM     18  N   LIG    1       -3.410  10.679  -1.372  0.00  0.00    -0.470 N 
ATOM     19  C   LIG    1       -2.789  11.913  -1.268  0.00  0.00    +0.060 A 
ATOM     20  C   LIG    1       -3.203  13.218  -1.485  0.00  0.00    +0.010 A 
ATOM     21  C   LIG    1       -2.320  14.260  -1.287  0.00  0.00    +0.030 A 
ATOM     22  C   LIG    1       -1.020  14.011  -0.872  0.00  0.00    +0.000 A 
ATOM     23  C   LIG    1       -0.593  12.720  -0.652  0.00  0.00    +0.060 A 
ATOM     24  C   LIG    1       -1.474  11.654  -0.847  0.00  0.00    +0.060 A 
ATOM     25  N   LIG    1       -1.355  10.307  -0.711  0.00  0.00    -0.500 NA
ATOM     26  C   LIG    1       -2.489   9.731  -1.024  0.00  0.00    +0.250 A 
BRANCH  18  27
ATOM     27  C   LIG    1       -4.797  10.435  -1.778  0.00  0.00    +0.310 C 
BRANCH  27  29
ATOM     28  C   LIG    1       -7.161  10.316  -0.979  0.00  0.00    +0.030 C 
ATOM     29  C   LIG    1       -5.700  10.446  -0.543  0.00  0.00    -0.030 C 
ATOM     30  C   LIG    1       -5.333   9.273   0.367  0.00  0.00    +0.030 C 
ENDBRANCH  27  29
ENDBRANCH  18  27
ENDBRANCH  17  26
ENDBRANCH   1  17
TORSDOF 7
