REMARK  Name = ZINCrD00000rZD7i.0
REMARK                            x       y       z     vdW  Elec       q    Type
REMARK                         _______ _______ _______ _____ _____    ______ ____
ROOT
ATOM      1  C   LIG    1       -2.542   1.314   0.019  0.00  0.00    +0.290 C 
ATOM      2  C   LIG    1       -3.273   1.944   1.208  0.00  0.00    +0.190 C 
ATOM      3  N   LIG    1       -4.654   1.439   1.250  0.00  0.00    -0.530 NA
ATOM      4  C   LIG    1       -4.669  -0.026   1.367  0.00  0.00    +0.150 C 
ATOM      5  C   LIG    1       -3.924  -0.636   0.177  0.00  0.00    +0.250 C 
ATOM      6  O   LIG    1       -2.595  -0.111   0.134  0.00  0.00    -0.390 OA
ENDROOT
BRANCH   1  10
ATOM      7  C   LIG    1        1.060   1.796   0.002  0.00  0.00    +0.180 A 
ATOM      8  N   LIG    1        0.604   3.018   0.013  0.00  0.00    -0.280 NA
ATOM      9  N   LIG    1       -0.682   3.001   0.025  0.00  0.00    -0.280 NA
ATOM     10  C   LIG    1       -1.104   1.766   0.016  0.00  0.00    +0.180 A 
ATOM     11  N   LIG    1       -0.011   0.966   0.007  0.00  0.00    -0.560 N 
ATOM     12  H   LIG    1        0.002  -0.004   0.002  0.00  0.00    +0.430 HD
BRANCH   7  14
ATOM     13  C   LIG    1        3.215   2.046  -1.200  0.00  0.00    +0.050 C 
ATOM     14  C   LIG    1        2.509   1.383  -0.015  0.00  0.00    +0.140 C 
ENDBRANCH   7  14
ENDBRANCH   1  10
BRANCH   3  15
ATOM     15  C   LIG    1       -5.409   2.063   2.345  0.00  0.00    +0.210 C 
BRANCH  15  16
ATOM     16  C   LIG    1       -6.869   1.715   2.210  0.00  0.00    -0.010 C 
ATOM     17  C   LIG    1       -7.511   1.146   3.221  0.00  0.00    +0.000 C 
BRANCH  17  18
ATOM     18  C   LIG    1       -8.943   0.805   3.089  0.00  0.00    -0.070 A 
ATOM     19  C   LIG    1       -9.622   1.086   1.903  0.00  0.00    +0.070 A 
ATOM     20  C   LIG    1      -10.956   0.760   1.781  0.00  0.00    -0.050 A 
ATOM     21  C   LIG    1      -11.627   0.164   2.841  0.00  0.00    +0.100 A 
ATOM     22  C   LIG    1      -10.956  -0.111   4.025  0.00  0.00    +0.020 A 
ATOM     23  C   LIG    1       -9.620   0.206   4.152  0.00  0.00    +0.070 A 
BRANCH  21  24
ATOM     24  O   LIG    1      -12.943  -0.150   2.720  0.00  0.00    -0.310 OA
BRANCH  24  25
ATOM     25  C   LIG    1      -13.572   0.161   1.475  0.00  0.00    +0.600 C 
ATOM     26  F   LIG    1      -13.491   1.538   1.243  0.00  0.00    -0.160 F 
ATOM     27  F   LIG    1      -14.916  -0.225   1.522  0.00  0.00    -0.130 F 
ATOM     28  F   LIG    1      -12.925  -0.525   0.442  0.00  0.00    -0.160 F 
ENDBRANCH  24  25
ENDBRANCH  21  24
ENDBRANCH  17  18
ENDBRANCH  15  16
ENDBRANCH   3  15
TORSDOF 7
