REMARK  Name = ZINCrD00000rZD7i.1
REMARK                            x       y       z     vdW  Elec       q    Type
REMARK                         _______ _______ _______ _____ _____    ______ ____
ROOT
ATOM      1  C   LIG    1        0.002  -0.004   0.002  0.00  0.00    +0.290 C 
ATOM      2  C   LIG    1       -0.019   1.527   0.010  0.00  0.00    +0.170 C 
ATOM      3  N   LIG    1        1.362   2.030   0.000  0.00  0.00    -0.530 NA
ATOM      4  C   LIG    1        2.086   1.543  -1.183  0.00  0.00    +0.150 C 
ATOM      5  C   LIG    1        2.086   0.012  -1.180  0.00  0.00    +0.240 C 
ATOM      6  O   LIG    1        0.736  -0.460  -1.138  0.00  0.00    -0.370 OA
ENDROOT
BRANCH   1   9
ATOM      7  C   LIG    1       -3.283  -1.412   0.546  0.00  0.00    +0.290 A 
ATOM      8  N   LIG    1       -2.087  -1.064   0.947  0.00  0.00    -0.530 NA
ATOM      9  C   LIG    1       -1.410  -0.526  -0.067  0.00  0.00    +0.230 A 
ATOM     10  N   LIG    1       -2.171  -0.519  -1.130  0.00  0.00    -0.290 NA
ATOM     11  N   LIG    1       -3.395  -1.098  -0.756  0.00  0.00    -0.480 N 
ATOM     12  H   LIG    1       -4.169  -1.238  -1.323  0.00  0.00    +0.440 HD
BRANCH   7  14
ATOM     13  C   LIG    1       -4.289  -3.573   1.229  0.00  0.00    +0.050 C 
ATOM     14  C   LIG    1       -4.349  -2.054   1.397  0.00  0.00    +0.150 C 
ENDBRANCH   7  14
ENDBRANCH   1   9
BRANCH   3  15
ATOM     15  C   LIG    1        1.388   3.498   0.065  0.00  0.00    +0.210 C 
BRANCH  15  16
ATOM     16  C   LIG    1        2.801   3.966   0.299  0.00  0.00    -0.010 C 
ATOM     17  C   LIG    1        3.358   4.835  -0.532  0.00  0.00    +0.000 C 
BRANCH  17  18
ATOM     18  C   LIG    1        4.744   5.294  -0.303  0.00  0.00    -0.070 A 
ATOM     19  C   LIG    1        5.467   4.817   0.792  0.00  0.00    +0.070 A 
ATOM     20  C   LIG    1        6.761   5.243   0.999  0.00  0.00    -0.050 A 
ATOM     21  C   LIG    1        7.343   6.154   0.127  0.00  0.00    +0.100 A 
ATOM     22  C   LIG    1        6.625   6.636  -0.959  0.00  0.00    +0.020 A 
ATOM     23  C   LIG    1        5.332   6.210  -1.177  0.00  0.00    +0.070 A 
BRANCH  21  24
ATOM     24  O   LIG    1        8.617   6.576   0.339  0.00  0.00    -0.310 OA
BRANCH  24  25
ATOM     25  C   LIG    1        9.297   6.040   1.475  0.00  0.00    +0.600 C 
ATOM     26  F   LIG    1        8.594   6.371   2.639  0.00  0.00    -0.160 F 
ATOM     27  F   LIG    1       10.588   6.577   1.542  0.00  0.00    -0.130 F 
ATOM     28  F   LIG    1        9.377   4.648   1.359  0.00  0.00    -0.160 F 
ENDBRANCH  24  25
ENDBRANCH  21  24
ENDBRANCH  17  18
ENDBRANCH  15  16
ENDBRANCH   3  15
TORSDOF 7
