REMARK  Name = ZINCnE000001OHIB.1
REMARK                            x       y       z     vdW  Elec       q    Type
REMARK                         _______ _______ _______ _____ _____    ______ ____
ROOT
ATOM      1  C   LIG    1        3.743  -0.964   0.179  0.00  0.00    +0.310 C 
ENDROOT
BRANCH   1   4
ATOM      2  N   LIG    1        2.402   1.106  -0.014  0.00  0.00    -0.670 N 
ATOM      3  H   LIG    1        3.233   1.601  -0.085  0.00  0.00    +0.420 HD
ATOM      4  C   LIG    1        2.426  -0.238   0.081  0.00  0.00    +0.510 C 
ATOM      5  O   LIG    1        1.387  -0.864   0.088  0.00  0.00    -0.510 OA
BRANCH   2  13
ATOM      6  C   LIG    1        2.288   3.657   1.242  0.00  0.00    +0.100 C 
ATOM      7  C   LIG    1        1.079   3.034   0.592  0.00  0.00    -0.110 A 
ATOM      8  C   LIG    1       -0.129   3.703   0.595  0.00  0.00    +0.070 A 
ATOM      9  C   LIG    1       -1.239   3.131  -0.002  0.00  0.00    -0.100 A 
ATOM     10  C   LIG    1       -1.141   1.891  -0.607  0.00  0.00    +0.060 A 
ATOM     11  C   LIG    1        0.064   1.215  -0.608  0.00  0.00    +0.040 A 
ATOM     12 BR   LIG    1       -2.892   4.050   0.004  0.00  0.00    -0.060 Br
ATOM     13  C   LIG    1        1.179   1.786  -0.010  0.00  0.00    +0.160 A 
ENDBRANCH   2  13
ENDBRANCH   1   4
BRANCH   1  14
ATOM     14  N   LIG    1        3.501  -2.406   0.272  0.00  0.00    -0.740 N 
ATOM     15  H   LIG    1        2.593  -2.747   0.263  0.00  0.00    +0.400 HD
ATOM     16  C   LIG    1        4.540  -3.259   0.369  0.00  0.00    +0.570 C 
ATOM     17  O   LIG    1        5.678  -2.832   0.380  0.00  0.00    -0.520 OA
BRANCH  16  18
ATOM     18  C   LIG    1        4.296  -4.710   0.462  0.00  0.00    -0.300 A 
ATOM     19  C   LIG    1        2.989  -5.205   0.456  0.00  0.00    +0.090 A 
ATOM     20  C   LIG    1        2.767  -6.562   0.538  0.00  0.00    -0.150 A 
ATOM     21  C   LIG    1        3.836  -7.440   0.638  0.00  0.00    +0.040 A 
ATOM     22  C   LIG    1        5.133  -6.963   0.651  0.00  0.00    -0.140 A 
ATOM     23 CL   LIG    1        3.542  -9.148   0.747  0.00  0.00    -0.120 Cl
ATOM     24  C   LIG    1        5.374  -5.601   0.563  0.00  0.00    +0.320 A 
ATOM     25  O   LIG    1        6.646  -5.132   0.576  0.00  0.00    -0.660 OA
ENDBRANCH  16  18
ENDBRANCH   1  14
TORSDOF 4
