REMARK  Name = ZINCnE000001C6Tr.0
REMARK                            x       y       z     vdW  Elec       q    Type
REMARK                         _______ _______ _______ _____ _____    ______ ____
ROOT
ATOM      1  N   LIG    1       -3.024   1.616  -2.590  0.00  0.00    -0.610 N 
ATOM      2  C   LIG    1       -2.033   1.228  -1.763  0.00  0.00    +0.530 C 
ATOM      3  O   LIG    1       -0.919   1.692  -1.892  0.00  0.00    -0.510 OA
ENDROOT
BRANCH   2   4
ATOM      4  C   LIG    1       -2.308   0.219  -0.679  0.00  0.00    -0.030 C 
ATOM      5  C   LIG    1       -2.639  -1.133  -1.313  0.00  0.00    +0.020 C 
ATOM      6  C   LIG    1       -1.455  -1.604  -2.160  0.00  0.00    -0.010 C 
ATOM      7  C   LIG    1       -0.218  -1.747  -1.271  0.00  0.00    +0.020 C 
ATOM      8  C   LIG    1        0.114  -0.395  -0.637  0.00  0.00    -0.060 C 
ATOM      9  C   LIG    1       -1.070   0.075   0.210  0.00  0.00    +0.060 C 
BRANCH   8  10
ATOM     10  C   LIG    1        1.333  -0.536   0.238  0.00  0.00    +0.500 C 
ATOM     11  O   LIG    1        1.465   0.177   1.218  0.00  0.00    -0.700 OA
ATOM     12  O   LIG    1        2.186  -1.364  -0.034  0.00  0.00    -0.710 OA
ENDBRANCH   8  10
ENDBRANCH   2   4
BRANCH   1  13
ATOM     13  C   LIG    1       -2.732   2.502  -3.719  0.00  0.00    +0.310 C 
BRANCH  13  15
ATOM     14  C   LIG    1       -3.496   1.468  -5.795  0.00  0.00    +0.000 C 
ATOM     15  C   LIG    1       -2.508   1.677  -4.960  0.00  0.00    -0.130 C 
ATOM     16  C   LIG    1       -1.148   1.092  -5.241  0.00  0.00    +0.070 C 
ENDBRANCH  13  15
ENDBRANCH   1  13
BRANCH   1  17
ATOM     17  C   LIG    1       -4.394   1.152  -2.358  0.00  0.00    +0.320 C 
BRANCH  17  18
ATOM     18  C   LIG    1       -5.153   2.194  -1.577  0.00  0.00    -0.100 A 
ATOM     19  C   LIG    1       -5.239   2.099  -0.201  0.00  0.00    +0.010 A 
ATOM     20  C   LIG    1       -5.931   3.057   0.516  0.00  0.00    +0.000 A 
ATOM     21  C   LIG    1       -6.544   4.106  -0.144  0.00  0.00    +0.000 A 
ATOM     22  C   LIG    1       -6.462   4.198  -1.521  0.00  0.00    +0.000 A 
ATOM     23  C   LIG    1       -5.766   3.242  -2.238  0.00  0.00    +0.010 A 
ENDBRANCH  17  18
ENDBRANCH   1  17
TORSDOF 6
