REMARK  Name = ZINCpe000000ZsP2.1
REMARK                            x       y       z     vdW  Elec       q    Type
REMARK                         _______ _______ _______ _____ _____    ______ ____
ROOT
ATOM      1  O   LIG    1       -0.303  -0.277   2.009  0.00  0.00    -0.530 OA
ATOM      2  C   LIG    1       -0.813   0.786   2.291  0.00  0.00    +0.530 C 
ATOM      3  N   LIG    1       -1.399   0.954   3.493  0.00  0.00    -0.610 N 
ATOM      4  C   LIG    1       -2.018   2.237   3.859  0.00  0.00    +0.280 C 
ATOM      5  C   LIG    1       -3.445   1.960   4.358  0.00  0.00    +0.160 C 
ATOM      6  N   LIG    1       -3.396   0.965   5.437  0.00  0.00    -0.510 NA
ATOM      7  C   LIG    1       -2.877  -0.322   4.953  0.00  0.00    +0.190 C 
ATOM      8  C   LIG    1       -1.432  -0.140   4.476  0.00  0.00    +0.290 C 
ENDROOT
BRANCH   2   9
ATOM      9  C   LIG    1       -0.790   1.920   1.299  0.00  0.00    +0.000 C 
ATOM     10  C   LIG    1       -2.215   2.233   0.780  0.00  0.00    +0.070 C 
ATOM     11  C   LIG    1       -2.012   2.581  -0.678  0.00  0.00    +0.520 C 
ATOM     12  N   LIG    1       -0.801   2.165  -1.087  0.00  0.00    -0.610 N 
ATOM     13  O   LIG    1       -2.823   3.152  -1.375  0.00  0.00    -0.520 OA
ATOM     14  C   LIG    1       -0.070   1.502  -0.002  0.00  0.00    +0.300 C 
BRANCH  12  15
ATOM     15  C   LIG    1       -0.279   2.351  -2.444  0.00  0.00    +0.240 C 
ATOM     16  C   LIG    1       -0.260   3.851  -2.802  0.00  0.00    +0.020 C 
ATOM     17  C   LIG    1       -0.647   3.888  -4.302  0.00  0.00    +0.020 C 
ATOM     18  C   LIG    1       -1.718   2.774  -4.407  0.00  0.00    +0.010 C 
ATOM     19  C   LIG    1       -1.205   1.666  -3.464  0.00  0.00    +0.010 C 
ENDBRANCH  12  15
ENDBRANCH   2   9
BRANCH   6  20
ATOM     20  C   LIG    1       -4.715   0.799   6.061  0.00  0.00    +0.180 C 
ATOM     21  C   LIG    1       -5.630  -0.041   5.147  0.00  0.00    -0.020 C 
ATOM     22  C   LIG    1       -6.454  -0.910   6.130  0.00  0.00    +0.020 C 
ATOM     23  C   LIG    1       -5.418  -1.264   7.225  0.00  0.00    -0.010 C 
ATOM     24  C   LIG    1       -4.580   0.021   7.382  0.00  0.00    +0.170 C 
BRANCH  24  25
ATOM     25  O   LIG    1       -3.210  -0.312   7.615  0.00  0.00    -0.540 OA
ATOM     26  H   LIG    1       -3.059  -0.804   8.434  0.00  0.00    +0.370 HD
ENDBRANCH  24  25
ENDBRANCH   6  20
TORSDOF 4
