REMARK  Name = ZINCpk00000KfKRa.0
REMARK                            x       y       z     vdW  Elec       q    Type
REMARK                         _______ _______ _______ _____ _____    ______ ____
ROOT
ATOM      1  C   LIG    1        3.555   1.788  -0.124  0.00  0.00    +0.510 C 
ATOM      2  N   LIG    1        2.399   1.104  -0.015  0.00  0.00    -0.670 N 
ATOM      3  H   LIG    1        2.413   0.137   0.057  0.00  0.00    +0.420 HD
ATOM      4  O   LIG    1        3.545   3.001  -0.118  0.00  0.00    -0.490 OA
ENDROOT
BRANCH   2   5
ATOM      5  C   LIG    1        1.183   1.787  -0.005  0.00  0.00    +0.180 A 
ATOM      6  C   LIG    1        1.034   2.950  -0.754  0.00  0.00    +0.010 A 
ATOM      7  C   LIG    1       -0.163   3.629  -0.743  0.00  0.00    +0.070 A 
ATOM      8  C   LIG    1       -1.233   3.144   0.015  0.00  0.00    -0.160 A 
ATOM      9  C   LIG    1       -1.080   1.975   0.766  0.00  0.00    +0.110 A 
ATOM     10  C   LIG    1        0.121   1.303   0.753  0.00  0.00    -0.010 A 
BRANCH   8  11
ATOM     11  C   LIG    1       -2.520   3.867   0.026  0.00  0.00    +0.570 C 
ATOM     12  O   LIG    1       -3.448   3.446   0.688  0.00  0.00    -0.540 OA
ATOM     13  N   LIG    1       -2.665   4.994  -0.699  0.00  0.00    -0.850 N 
ATOM     14  H   LIG    1       -3.511   5.469  -0.692  0.00  0.00    +0.410 HD
ATOM     15  H   LIG    1       -1.925   5.330  -1.228  0.00  0.00    +0.400 HD
ENDBRANCH   8  11
ENDBRANCH   2   5
BRANCH   1  17
ATOM     16  C   LIG    1        5.069   0.162   0.977  0.00  0.00    +0.070 C 
ATOM     17  C   LIG    1        4.860   1.046  -0.254  0.00  0.00    +0.250 C 
BRANCH  17  18
ATOM     18  N   LIG    1        5.960   2.008  -0.356  0.00  0.00    -0.560 N 
ATOM     19  C   LIG    1        6.229   2.909   0.599  0.00  0.00    +0.530 C 
ATOM     20  C   LIG    1        7.425   3.739   0.178  0.00  0.00    +0.090 C 
ATOM     21  C   LIG    1        7.788   3.159  -1.194  0.00  0.00    -0.100 C 
ATOM     22  C   LIG    1        7.696   4.233  -2.285  0.00  0.00    +0.050 C 
ATOM     23  C   LIG    1        9.163   4.697  -2.479  0.00  0.00    +0.030 C 
ATOM     24  C   LIG    1        9.965   3.381  -2.318  0.00  0.00    +0.020 C 
ATOM     25  C   LIG    1        9.219   2.616  -1.202  0.00  0.00    +0.050 C 
ATOM     26  O   LIG    1        5.614   3.037   1.636  0.00  0.00    -0.460 OA
ATOM     27  C   LIG    1        6.780   2.064  -1.417  0.00  0.00    +0.540 C 
ATOM     28  O   LIG    1        6.719   1.350  -2.395  0.00  0.00    -0.470 OA
ENDBRANCH  17  18
ENDBRANCH   1  17
TORSDOF 4
