REMARK  Name = ZINCpk00001AZj1y.1
REMARK                            x       y       z     vdW  Elec       q    Type
REMARK                         _______ _______ _______ _____ _____    ______ ____
ROOT
ATOM      1  N   LIG    1       -4.661   4.901   3.380  0.00  0.00    -0.710 N 
ATOM      2  H   LIG    1       -3.769   5.266   3.268  0.00  0.00    +0.420 HD
ATOM      3  C   LIG    1       -4.827   3.582   3.599  0.00  0.00    +0.490 C 
ATOM      4  O   LIG    1       -5.943   3.111   3.651  0.00  0.00    -0.530 OA
ENDROOT
BRANCH   1   5
ATOM      5  C   LIG    1       -5.828   5.784   3.310  0.00  0.00    +0.160 C 
ATOM      6  C   LIG    1       -6.597   5.685   1.982  0.00  0.00    +0.090 C 
ATOM      7  C   LIG    1       -6.758   7.213   2.053  0.00  0.00    +0.270 C 
ATOM      8  F   LIG    1       -6.609   7.849   0.816  0.00  0.00    -0.170 F 
ATOM      9  F   LIG    1       -7.904   7.624   2.742  0.00  0.00    -0.170 F 
ATOM     10  C   LIG    1       -5.484   7.229   2.912  0.00  0.00    +0.050 C 
BRANCH   5  11
ATOM     11  C   LIG    1       -6.722   5.686   4.548  0.00  0.00    -0.170 C 
BRANCH  11  13
ATOM     12  C   LIG    1       -6.090   8.108   6.051  0.00  0.00    -0.310 C 
ATOM     13  S   LIG    1       -5.824   6.314   5.994  0.00  0.00    +2.300 S 
ATOM     14  O   LIG    1       -4.453   5.942   6.016  0.00  0.00    -0.940 OA
ATOM     15  N   LIG    1       -6.463   5.726   7.209  0.00  0.00    -1.280 NA
ATOM     16  H   LIG    1       -6.121   5.945   8.090  0.00  0.00    +0.390 HD
ENDBRANCH  11  13
ENDBRANCH   5  11
ENDBRANCH   1   5
BRANCH   3  17
ATOM     17  C   LIG    1       -3.624   2.691   3.781  0.00  0.00    +0.200 C 
BRANCH  17  18
ATOM     18  N   LIG    1       -3.998   1.523   4.588  0.00  0.00    -0.810 NA
ATOM     19  H   LIG    1       -4.675   0.951   4.105  0.00  0.00    +0.350 HD
ATOM     20  H   LIG    1       -4.343   1.804   5.494  0.00  0.00    +0.350 HD
ENDBRANCH  17  18
BRANCH  17  21
ATOM     21  C   LIG    1       -3.123   2.226   2.412  0.00  0.00    +0.200 C 
BRANCH  21  22
ATOM     22  O   LIG    1       -1.917   1.478   2.575  0.00  0.00    -0.360 OA
BRANCH  22  23
ATOM     23  C   LIG    1       -1.362   0.995   1.350  0.00  0.00    +0.220 C 
BRANCH  23  24
ATOM     24  C   LIG    1       -0.100   0.225   1.640  0.00  0.00    -0.090 A 
ATOM     25  C   LIG    1        1.119   0.877   1.659  0.00  0.00    +0.020 A 
ATOM     26  C   LIG    1        2.278   0.170   1.918  0.00  0.00    +0.000 A 
ATOM     27  C   LIG    1        2.218  -1.190   2.159  0.00  0.00    +0.010 A 
ATOM     28  C   LIG    1        1.000  -1.843   2.140  0.00  0.00    +0.000 A 
ATOM     29  C   LIG    1       -0.159  -1.135   1.881  0.00  0.00    +0.020 A 
ENDBRANCH  23  24
ENDBRANCH  22  23
ENDBRANCH  21  22
ENDBRANCH  17  21
ENDBRANCH   3  17
TORSDOF 9
