REMARK  Name = ZINCpk00001AZj1Y.0
REMARK                            x       y       z     vdW  Elec       q    Type
REMARK                         _______ _______ _______ _____ _____    ______ ____
ROOT
ATOM      1  N   LIG    1        2.356   3.889   0.001  0.00  0.00    -0.680 N 
ATOM      2  H   LIG    1        2.383   4.791   0.356  0.00  0.00    +0.410 HD
ATOM      3  C   LIG    1        3.473   3.329  -0.506  0.00  0.00    +0.740 C 
ATOM      4  N   LIG    1        4.650   3.980  -0.422  0.00  0.00    -0.650 N 
ATOM      5  C   LIG    1        5.112   5.268   0.118  0.00  0.00    +0.360 C 
ATOM      6  C   LIG    1        6.243   5.237  -0.916  0.00  0.00    -0.430 C 
ATOM      7  C   LIG    1        6.037   3.718  -0.835  0.00  0.00    +0.400 C 
ATOM      8  O   LIG    1        3.418   2.237  -1.038  0.00  0.00    -0.550 OA
ENDROOT
BRANCH   1  12
ATOM      9  C   LIG    1       -1.215   1.742   0.035  0.00  0.00    -0.130 A 
ATOM     10  C   LIG    1       -0.011   1.082   0.199  0.00  0.00    +0.050 A 
ATOM     11  C   LIG    1        1.174   1.790   0.186  0.00  0.00    +0.020 A 
ATOM     12  C   LIG    1        1.156   3.168   0.014  0.00  0.00    +0.170 A 
ATOM     13  C   LIG    1       -0.055   3.829  -0.145  0.00  0.00    -0.020 A 
ATOM     14  C   LIG    1       -1.237   3.115  -0.131  0.00  0.00    +0.050 A 
BRANCH   9  15
ATOM     15  C   LIG    1       -2.506   0.966   0.044  0.00  0.00    +0.320 C 
BRANCH  15  18
ATOM     16  C   LIG    1       -4.695   0.146   3.076  0.00  0.00    +0.100 C 
ATOM     17  C   LIG    1       -4.169   0.231   1.667  0.00  0.00    +0.510 C 
ATOM     18  N   LIG    1       -3.017   0.883   1.415  0.00  0.00    -0.730 N 
ATOM     19  H   LIG    1       -2.526   1.299   2.141  0.00  0.00    +0.400 HD
ATOM     20  O   LIG    1       -4.783  -0.289   0.758  0.00  0.00    -0.550 OA
ENDBRANCH  15  18
ENDBRANCH   9  15
ENDBRANCH   1  12
BRANCH   6  21
ATOM     21  S   LIG    1        7.849   5.804  -0.291  0.00  0.00    +2.410 S 
ATOM     22  O   LIG    1        8.859   5.392  -1.201  0.00  0.00    -0.850 OA
ATOM     23  O   LIG    1        7.957   5.439   1.078  0.00  0.00    -0.850 OA
BRANCH  21  24
ATOM     24  C   LIG    1        7.676   7.606  -0.397  0.00  0.00    -0.020 C 
ATOM     25  F   LIG    1        7.442   7.976  -1.726  0.00  0.00    -0.160 F 
ATOM     26  F   LIG    1        8.852   8.215   0.056  0.00  0.00    -0.150 F 
ATOM     27  F   LIG    1        6.601   8.019   0.398  0.00  0.00    -0.160 F 
ENDBRANCH  21  24
ENDBRANCH   6  21
TORSDOF 5
