REMARK  Name = ZINCrH000004q6FL.0
REMARK                            x       y       z     vdW  Elec       q    Type
REMARK                         _______ _______ _______ _____ _____    ______ ____
ROOT
ATOM      1  C   LIG    1        5.325  -0.091  -1.647  0.00  0.00    +0.120 C 
ATOM      2  C   LIG    1        3.962   0.063  -1.022  0.00  0.00    -0.110 A 
ATOM      3  C   LIG    1        3.082  -0.918  -0.766  0.00  0.00    +0.040 A 
ATOM      4  N   LIG    1        1.959  -0.381  -0.195  0.00  0.00    -0.440 N 
ATOM      5  C   LIG    1        2.094   0.965  -0.072  0.00  0.00    +0.310 A 
ATOM      6  C   LIG    1        3.296  -2.380  -1.060  0.00  0.00    +0.150 C 
ATOM      7  C   LIG    1        3.336   1.316  -0.581  0.00  0.00    -0.100 A 
ENDROOT
BRANCH   5   8
ATOM      8  N   LIG    1        1.155   1.834   0.462  0.00  0.00    -0.670 N 
ATOM      9  H   LIG    1        0.883   1.745   1.389  0.00  0.00    +0.410 HD
ATOM     10  C   LIG    1        0.619   2.803  -0.307  0.00  0.00    +0.520 C 
ATOM     11  O   LIG    1        0.989   2.941  -1.454  0.00  0.00    -0.480 OA
BRANCH  10  12
ATOM     12  C   LIG    1       -0.434   3.719   0.261  0.00  0.00    +0.220 C 
BRANCH  12  13
ATOM     13  N   LIG    1       -0.768   4.753  -0.728  0.00  0.00    -0.520 NA
ATOM     14  C   LIG    1        0.316   5.738  -0.846  0.00  0.00    +0.200 C 
BRANCH  13  15
ATOM     15  C   LIG    1       -2.040   5.408  -0.396  0.00  0.00    +0.280 C 
BRANCH  15  16
ATOM     16  C   LIG    1       -2.472   6.280  -1.546  0.00  0.00    -0.180 A 
ATOM     17  C   LIG    1       -3.237   5.885  -2.565  0.00  0.00    +0.030 A 
ATOM     18  C   LIG    1       -3.504   6.864  -3.507  0.00  0.00    +0.000 A 
ATOM     19  C   LIG    1       -2.956   8.053  -3.253  0.00  0.00    -0.050 A 
ATOM     20  S   LIG    1       -2.050   7.976  -1.748  0.00  0.00    +0.090 S 
ENDBRANCH  15  16
ENDBRANCH  13  15
ENDBRANCH  12  13
ENDBRANCH  10  12
ENDBRANCH   5   8
BRANCH   7  21
ATOM     21  C   LIG    1        3.895   2.632  -0.658  0.00  0.00    +0.290 C 
ATOM     22  N   LIG    1        4.339   3.677  -0.719  0.00  0.00    -0.430 NA
ENDBRANCH   7  21
BRANCH   4  23
ATOM     23  C   LIG    1        0.782  -1.147   0.222  0.00  0.00    +0.430 C 
BRANCH  23  24
ATOM     24  C   LIG    1       -0.123  -1.364  -0.964  0.00  0.00    -0.050 A 
ATOM     25  C   LIG    1       -0.138  -2.454  -1.753  0.00  0.00    -0.020 A 
ATOM     26  C   LIG    1       -1.133  -2.235  -2.734  0.00  0.00    -0.070 A 
ATOM     27  C   LIG    1       -1.665  -1.025  -2.486  0.00  0.00    +0.190 A 
ATOM     28  O   LIG    1       -1.054  -0.505  -1.410  0.00  0.00    -0.170 OA
ENDBRANCH  23  24
ENDBRANCH   4  23
TORSDOF 8
