REMARK  Name = ZINCrH000004v8BE.0
REMARK                            x       y       z     vdW  Elec       q    Type
REMARK                         _______ _______ _______ _____ _____    ______ ____
ROOT
ATOM      1  O   LIG    1        4.684   1.597  -0.129  0.00  0.00    -0.480 OA
ATOM      2  C   LIG    1        3.612   2.143   0.049  0.00  0.00    +0.570 C 
ATOM      3  N   LIG    1        3.560   3.474   0.254  0.00  0.00    -0.670 N 
ATOM      4  H   LIG    1        2.713   3.900   0.458  0.00  0.00    +0.410 HD
ENDROOT
BRANCH   2   5
ATOM      5  C   LIG    1        2.369   1.348   0.042  0.00  0.00    -0.140 A 
ATOM      6  C   LIG    1        1.496   1.400   1.130  0.00  0.00    +0.080 A 
ATOM      7  C   LIG    1        0.336   0.655   1.117  0.00  0.00    +0.010 A 
ATOM      8  C   LIG    1        0.032  -0.146   0.029  0.00  0.00    +0.070 A 
ATOM      9  C   LIG    1        0.886  -0.207  -1.054  0.00  0.00    -0.010 A 
ATOM     10  C   LIG    1        2.058   0.536  -1.058  0.00  0.00    +0.210 A 
BRANCH  10  11
ATOM     11  N   LIG    1        2.923   0.475  -2.153  0.00  0.00    -0.340 N 
ATOM     12  C   LIG    1        2.804  -0.354  -3.223  0.00  0.00    +0.230 A 
ATOM     13  C   LIG    1        3.840  -0.099  -4.056  0.00  0.00    -0.090 A 
ATOM     14  C   LIG    1        4.616   0.914  -3.482  0.00  0.00    +0.240 A 
ATOM     15  N   LIG    1        4.066   1.262  -2.347  0.00  0.00    -0.250 NA
ENDBRANCH  10  11
ENDBRANCH   2   5
BRANCH   3  16
ATOM     16  C   LIG    1        4.728   4.241   0.171  0.00  0.00    +0.160 A 
ATOM     17  C   LIG    1        5.938   3.714   0.604  0.00  0.00    +0.040 A 
ATOM     18  C   LIG    1        7.090   4.470   0.517  0.00  0.00    +0.040 A 
ATOM     19  C   LIG    1        7.038   5.759   0.007  0.00  0.00    +0.070 A 
ATOM     20  C   LIG    1        5.829   6.288  -0.421  0.00  0.00    +0.040 A 
ATOM     21  C   LIG    1        4.677   5.532  -0.340  0.00  0.00    +0.000 A 
BRANCH  19  22
ATOM     22  O   LIG    1        8.173   6.504  -0.073  0.00  0.00    -0.240 OA
BRANCH  22  23
ATOM     23  C   LIG    1        8.347   7.499   0.832  0.00  0.00    +0.270 A 
ATOM     24  C   LIG    1        9.441   8.351   0.730  0.00  0.00    +0.230 A 
ATOM     25  N   LIG    1        9.605   9.322   1.609  0.00  0.00    -0.400 NA
ATOM     26  C   LIG    1        8.736   9.477   2.593  0.00  0.00    +0.190 A 
ATOM     27  C   LIG    1        7.650   8.628   2.701  0.00  0.00    +0.260 A 
ATOM     28  N   LIG    1        7.478   7.658   1.820  0.00  0.00    -0.480 NA
ENDBRANCH  22  23
ENDBRANCH  19  22
ENDBRANCH   3  16
TORSDOF 5
