REMARK  Name = ZINCvU0000000EoL.0
REMARK                            x       y       z     vdW  Elec       q    Type
REMARK                         _______ _______ _______ _____ _____    ______ ____
ROOT
ATOM      1  N   LIG    1       -3.349   7.832  -0.552  0.00  0.00    -0.670 N 
ATOM      2  H   LIG    1       -4.019   7.173  -0.794  0.00  0.00    +0.410 HD
ATOM      3  C   LIG    1       -2.109   7.436  -0.204  0.00  0.00    +0.540 C 
ATOM      4  O   LIG    1       -1.250   8.261   0.025  0.00  0.00    -0.490 OA
ENDROOT
BRANCH   1   7
ATOM      5  C   LIG    1       -5.263  10.957  -0.204  0.00  0.00    +0.160 A 
ATOM      6  C   LIG    1       -4.947   9.609  -0.199  0.00  0.00    -0.090 A 
ATOM      7  C   LIG    1       -3.672   9.195  -0.562  0.00  0.00    +0.190 A 
ATOM      8  C   LIG    1       -2.719  10.130  -0.942  0.00  0.00    +0.000 A 
ATOM      9  C   LIG    1       -3.034  11.476  -0.954  0.00  0.00    +0.090 A 
ATOM     10  C   LIG    1       -4.305  11.894  -0.586  0.00  0.00    +0.100 A 
BRANCH  10  11
ATOM     11  N   LIG    1       -4.624  13.260  -0.598  0.00  0.00    -0.570 N 
ATOM     12  C   LIG    1       -4.454  14.160   0.548  0.00  0.00    +0.260 C 
ATOM     13  C   LIG    1       -4.505  15.589  -0.041  0.00  0.00    +0.040 C 
ATOM     14  C   LIG    1       -5.345  15.370  -1.321  0.00  0.00    +0.060 C 
ATOM     15  C   LIG    1       -5.132  13.911  -1.659  0.00  0.00    +0.520 C 
ATOM     16  O   LIG    1       -5.382  13.402  -2.732  0.00  0.00    -0.520 OA
ENDBRANCH  10  11
BRANCH   5  18
ATOM     17  C   LIG    1       -7.440  10.350   0.536  0.00  0.00    +0.240 C 
ATOM     18  O   LIG    1       -6.509  11.365   0.156  0.00  0.00    -0.310 OA
ENDBRANCH   5  18
ENDBRANCH   1   7
BRANCH   3  19
ATOM     19  C   LIG    1       -1.789   5.967  -0.099  0.00  0.00    +0.050 C 
BRANCH  19  20
ATOM     20  C   LIG    1       -2.287   5.438   1.221  0.00  0.00    -0.090 A 
ATOM     21  C   LIG    1       -1.875   6.026   2.402  0.00  0.00    +0.040 A 
ATOM     22  C   LIG    1       -2.335   5.543   3.613  0.00  0.00    +0.010 A 
ATOM     23  C   LIG    1       -3.201   4.466   3.643  0.00  0.00    +0.010 A 
ATOM     24  C   LIG    1       -3.610   3.875   2.462  0.00  0.00    +0.010 A 
ATOM     25  C   LIG    1       -3.153   4.360   1.252  0.00  0.00    +0.020 A 
ENDBRANCH  19  20
BRANCH  19  26
ATOM     26  S   LIG    1        0.006   5.730  -0.206  0.00  0.00    -0.060 S 
BRANCH  26  27
ATOM     27  C   LIG    1        0.168   3.981  -0.350  0.00  0.00    -0.140 A 
ATOM     28  C   LIG    1        0.067   3.373  -1.595  0.00  0.00    +0.060 A 
ATOM     29  C   LIG    1        0.194   2.002  -1.704  0.00  0.00    +0.000 A 
ATOM     30  C   LIG    1        0.421   1.235  -0.575  0.00  0.00    +0.040 A 
ATOM     31  C   LIG    1        0.517   1.837   0.666  0.00  0.00    +0.000 A 
ATOM     32  C   LIG    1        0.396   3.208   0.782  0.00  0.00    +0.070 A 
ENDBRANCH  26  27
ENDBRANCH  19  26
ENDBRANCH   3  19
TORSDOF 7
