REMARK  Name = ZINCvU000000070J.0
REMARK                            x       y       z     vdW  Elec       q    Type
REMARK                         _______ _______ _______ _____ _____    ______ ____
ROOT
ATOM      1  C   LIG    1        3.671   2.186  -0.021  0.00  0.00    +0.370 C 
ATOM      2  C   LIG    1        3.949   2.712  -1.391  0.00  0.00    -0.240 A 
ATOM      3  C   LIG    1        3.999   4.075  -1.312  0.00  0.00    +0.100 A 
ATOM      4  C   LIG    1        3.754   4.466   0.087  0.00  0.00    +0.570 C 
ATOM      5  O   LIG    1        3.728   5.610   0.495  0.00  0.00    -0.430 OA
ATOM      6  O   LIG    1        4.242   4.857  -2.382  0.00  0.00    -0.170 OA
ATOM      7  C   LIG    1        4.208   4.321  -3.624  0.00  0.00    +0.160 A 
ATOM      8  C   LIG    1        4.218   5.171  -4.728  0.00  0.00    +0.030 A 
ATOM      9  C   LIG    1        4.195   4.652  -6.003  0.00  0.00    +0.130 A 
ATOM     10  C   LIG    1        4.160   3.280  -6.212  0.00  0.00    -0.120 A 
ATOM     11  C   LIG    1        4.146   2.418  -5.136  0.00  0.00    +0.160 A 
ATOM     12 BR   LIG    1        4.133   2.592  -7.973  0.00  0.00    -0.020 Br
ATOM     13  C   LIG    1        4.168   2.933  -3.841  0.00  0.00    -0.210 A 
ATOM     14  C   LIG    1        4.147   2.021  -2.669  0.00  0.00    +0.460 A 
ATOM     15  O   LIG    1        4.283   0.814  -2.761  0.00  0.00    -0.420 OA
ATOM     16  N   LIG    1        3.562   3.370   0.848  0.00  0.00    -0.510 N 
ENDROOT
BRANCH   1  20
ATOM     17  C   LIG    1        0.002  -0.004   0.002  0.00  0.00    +0.150 A 
ATOM     18  C   LIG    1       -0.017   1.383   0.010  0.00  0.00    -0.010 A 
ATOM     19  C   LIG    1        1.171   2.089   0.002  0.00  0.00    +0.070 A 
ATOM     20  C   LIG    1        2.377   1.414  -0.013  0.00  0.00    -0.160 A 
ATOM     21  C   LIG    1        2.399   0.031  -0.021  0.00  0.00    +0.090 A 
ATOM     22  C   LIG    1        1.214  -0.679  -0.013  0.00  0.00    -0.070 A 
BRANCH  17  23
ATOM     23  O   LIG    1       -1.165  -0.701   0.010  0.00  0.00    -0.310 OA
BRANCH  23  25
ATOM     24  C   LIG    1       -2.474  -2.732   0.012  0.00  0.00    +0.070 C 
ATOM     25  C   LIG    1       -1.069  -2.126   0.001  0.00  0.00    +0.180 C 
ENDBRANCH  23  25
ENDBRANCH  17  23
ENDBRANCH   1  20
BRANCH  16  26
ATOM     26  C   LIG    1        3.307   3.359   2.212  0.00  0.00    +0.290 A 
ATOM     27  N   LIG    1        3.214   4.415   2.959  0.00  0.00    -0.480 NA
ATOM     28  C   LIG    1        2.966   4.221   4.240  0.00  0.00    +0.100 A 
ATOM     29  C   LIG    1        2.843   2.939   4.594  0.00  0.00    -0.100 A 
ATOM     30  C   LIG    1        2.832   5.354   5.225  0.00  0.00    +0.160 C 
ATOM     31  S   LIG    1        3.061   1.952   3.151  0.00  0.00    +0.170 S 
ENDBRANCH  16  26
TORSDOF 4
