REMARK  Name = ZINCpk00000Xm7ba.0
REMARK                            x       y       z     vdW  Elec       q    Type
REMARK                         _______ _______ _______ _____ _____    ______ ____
ROOT
ATOM      1  C   LIG    1        2.427   3.936  -0.001  0.00  0.00    +0.030 A 
ATOM      2  C   LIG    1        2.571   5.293   0.004  0.00  0.00    +0.150 A 
ATOM      3  N   LIG    1        3.903   5.528  -0.006  0.00  0.00    -0.290 N 
ATOM      4  N   LIG    1        4.516   4.398  -0.018  0.00  0.00    -0.070 NA
ATOM      5  N   LIG    1        3.672   3.427  -0.010  0.00  0.00    -0.250 NA
ENDROOT
BRANCH   1   9
ATOM      6  C   LIG    1       -1.224   1.753   0.017  0.00  0.00    +0.140 A 
ATOM      7  C   LIG    1       -0.013   1.076   0.008  0.00  0.00    -0.010 A 
ATOM      8  C   LIG    1        1.173   1.781   0.000  0.00  0.00    +0.090 A 
ATOM      9  C   LIG    1        1.153   3.174   0.008  0.00  0.00    -0.050 A 
ATOM     10  C   LIG    1       -0.065   3.851   0.022  0.00  0.00    +0.070 A 
ATOM     11  C   LIG    1       -1.247   3.140   0.030  0.00  0.00    -0.080 A 
BRANCH   6  12
ATOM     12  O   LIG    1       -2.391   1.055   0.019  0.00  0.00    -0.300 OA
BRANCH  12  13
ATOM     13  C   LIG    1       -3.601   1.815   0.029  0.00  0.00    +0.210 C 
BRANCH  13  14
ATOM     14  C   LIG    1       -4.800   0.865   0.030  0.00  0.00    +0.210 C 
BRANCH  14  15
ATOM     15  O   LIG    1       -4.814   0.117   1.248  0.00  0.00    -0.570 OA
ATOM     16  H   LIG    1       -5.549  -0.508   1.317  0.00  0.00    +0.380 HD
ENDBRANCH  14  15
ENDBRANCH  13  14
ENDBRANCH  12  13
ENDBRANCH   6  12
ENDBRANCH   1   9
BRANCH   3  17
ATOM     17  C   LIG    1        4.539   6.848  -0.005  0.00  0.00    +0.460 C 
BRANCH  17  18
ATOM     18  C   LIG    1        5.502   6.940   1.150  0.00  0.00    +0.010 A 
ATOM     19  N   LIG    1        5.242   7.362   2.361  0.00  0.00    -0.350 NA
ATOM     20  O   LIG    1        6.225   7.315   3.075  0.00  0.00    +0.130 OA
ATOM     21  C   LIG    1        7.279   6.856   2.411  0.00  0.00    -0.020 A 
ATOM     22  C   LIG    1        8.700   6.623   2.854  0.00  0.00    +0.150 C 
ATOM     23  C   LIG    1        9.372   5.721   1.807  0.00  0.00    +0.240 C 
ATOM     24  O   LIG    1        9.108   6.221   0.494  0.00  0.00    -0.370 OA
ATOM     25  C   LIG    1        7.747   6.065   0.062  0.00  0.00    +0.330 C 
ATOM     26  C   LIG    1        6.857   6.598   1.146  0.00  0.00    -0.220 A 
ENDBRANCH  17  18
ENDBRANCH   3  17
TORSDOF 7
