REMARK  Name = ZINCvU00000006Ff.0
REMARK                            x       y       z     vdW  Elec       q    Type
REMARK                         _______ _______ _______ _____ _____    ______ ____
ROOT
ATOM      1  C   LIG    1        5.906   0.673  -2.885  0.00  0.00    -0.150 A 
ATOM      2  C   LIG    1        7.275   0.703  -3.099  0.00  0.00    +0.120 A 
ATOM      3  C   LIG    1        8.146   0.717  -2.000  0.00  0.00    -0.090 A 
ATOM      4  C   LIG    1        9.540   0.748  -2.180  0.00  0.00    +0.040 A 
ATOM      5  C   LIG    1       10.360   0.761  -1.094  0.00  0.00    +0.000 A 
ATOM      6  C   LIG    1        9.839   0.743   0.198  0.00  0.00    +0.040 A 
ATOM      7  C   LIG    1        8.495   0.712   0.412  0.00  0.00    +0.000 A 
ATOM      8  C   LIG    1        7.615   0.699  -0.684  0.00  0.00    +0.010 A 
ATOM      9  C   LIG    1        6.223   0.674  -0.495  0.00  0.00    -0.080 A 
ATOM     10  C   LIG    1        5.388   0.656  -1.573  0.00  0.00    +0.190 A 
ENDROOT
BRANCH   1  13
ATOM     11  N   LIG    1        5.475   0.675  -5.293  0.00  0.00    -0.670 N 
ATOM     12  H   LIG    1        6.429   0.763  -5.440  0.00  0.00    +0.410 HD
ATOM     13  C   LIG    1        4.984   0.659  -4.037  0.00  0.00    +0.560 C 
ATOM     14  O   LIG    1        3.783   0.633  -3.854  0.00  0.00    -0.490 OA
BRANCH  11  18
ATOM     15  C   LIG    1        2.887   0.343  -8.545  0.00  0.00    +0.120 A 
ATOM     16  C   LIG    1        2.486   1.027  -7.407  0.00  0.00    +0.000 A 
ATOM     17  C   LIG    1        3.342   1.137  -6.329  0.00  0.00    +0.070 A 
ATOM     18  C   LIG    1        4.606   0.563  -6.385  0.00  0.00    +0.110 A 
ATOM     19  C   LIG    1        5.009  -0.116  -7.527  0.00  0.00    +0.030 A 
ATOM     20  C   LIG    1        4.149  -0.231  -8.602  0.00  0.00    -0.060 A 
BRANCH  15  21
ATOM     21  O   LIG    1        2.044   0.236  -9.606  0.00  0.00    -0.320 OA
BRANCH  21  23
ATOM     22  C   LIG    1        1.443  -0.497 -11.829  0.00  0.00    +0.070 C 
ATOM     23  C   LIG    1        2.522  -0.482 -10.745  0.00  0.00    +0.170 C 
ENDBRANCH  21  23
ENDBRANCH  15  21
ENDBRANCH  11  18
ENDBRANCH   1  13
BRANCH  10  24
ATOM     24  O   LIG    1        4.045   0.628  -1.381  0.00  0.00    -0.270 OA
BRANCH  24  25
ATOM     25  C   LIG    1        3.582   0.612  -0.029  0.00  0.00    +0.300 C 
BRANCH  25  26
ATOM     26  C   LIG    1        2.076   0.581  -0.014  0.00  0.00    -0.220 A 
ATOM     27  C   LIG    1        1.264  -0.504  -0.011  0.00  0.00    +0.010 A 
ATOM     28  O   LIG    1        0.007  -0.037   0.003  0.00  0.00    +0.100 OA
ATOM     29  N   LIG    1       -0.018   1.172   0.008  0.00  0.00    -0.360 NA
ATOM     30  C   LIG    1        1.689  -1.949  -0.020  0.00  0.00    +0.200 C 
ATOM     31  C   LIG    1        1.182   1.676  -0.001  0.00  0.00    +0.040 A 
ATOM     32  C   LIG    1        1.547   3.139   0.001  0.00  0.00    +0.160 C 
ENDBRANCH  25  26
ENDBRANCH  24  25
ENDBRANCH  10  24
TORSDOF 7
