REMARK  Name = ZINCpe000000YT4q.0
REMARK                            x       y       z     vdW  Elec       q    Type
REMARK                         _______ _______ _______ _____ _____    ______ ____
ROOT
ATOM      1  O   LIG    1        5.586  -1.508   1.331  0.00  0.00    -0.520 OA
ATOM      2  C   LIG    1        6.361  -0.576   1.374  0.00  0.00    +0.500 C 
ATOM      3  N   LIG    1        7.687  -0.804   1.439  0.00  0.00    -0.720 N 
ATOM      4  H   LIG    1        8.306  -0.058   1.474  0.00  0.00    +0.410 HD
ENDROOT
BRANCH   3   5
ATOM      5  C   LIG    1        8.194  -2.179   1.457  0.00  0.00    +0.330 C 
BRANCH   5   6
ATOM      6  C   LIG    1        9.699  -2.158   1.532  0.00  0.00    -0.100 A 
ATOM      7  C   LIG    1       10.447  -2.148   0.369  0.00  0.00    +0.050 A 
ATOM      8  C   LIG    1       11.828  -2.124   0.433  0.00  0.00    +0.040 A 
ATOM      9  C   LIG    1       12.466  -2.121   1.663  0.00  0.00    +0.040 A 
ATOM     10  O   LIG    1       13.789  -2.105   1.996  0.00  0.00    -0.310 OA
ATOM     11  C   LIG    1       13.844  -2.523   3.373  0.00  0.00    +0.430 C 
ATOM     12  O   LIG    1       12.563  -2.131   3.901  0.00  0.00    -0.310 OA
ATOM     13  C   LIG    1       11.712  -2.137   2.834  0.00  0.00    +0.030 A 
ATOM     14  C   LIG    1       10.329  -2.155   2.763  0.00  0.00    +0.060 A 
ENDBRANCH   5   6
ENDBRANCH   3   5
BRANCH   2  15
ATOM     15  C   LIG    1        5.839   0.838   1.356  0.00  0.00    +0.360 C 
BRANCH  15  16
ATOM     16  N   LIG    1        4.376   0.818   1.283  0.00  0.00    -0.560 N 
ATOM     17  C   LIG    1        3.568   0.801   2.353  0.00  0.00    +0.710 C 
ATOM     18  N   LIG    1        2.263   0.786   2.010  0.00  0.00    -0.710 N 
ATOM     19  H   LIG    1        1.502   0.772   2.611  0.00  0.00    +0.440 HD
ATOM     20  C   LIG    1        2.230   0.793   0.551  0.00  0.00    +0.110 C 
ATOM     21  C   LIG    1        1.455   1.999  -0.001  0.00  0.00    +0.050 C 
ATOM     22  C   LIG    1       -0.019   1.536   0.011  0.00  0.00    +0.030 C 
ATOM     23  C   LIG    1        0.002  -0.004   0.002  0.00  0.00    +0.030 C 
ATOM     24  C   LIG    1        1.488  -0.427  -0.014  0.00  0.00    +0.050 C 
ATOM     25  O   LIG    1        3.966   0.800   3.501  0.00  0.00    -0.540 OA
ATOM     26  C   LIG    1        3.672   0.815   0.129  0.00  0.00    +0.540 C 
ATOM     27  O   LIG    1        4.110   0.827  -1.002  0.00  0.00    -0.460 OA
ENDBRANCH  15  16
ENDBRANCH   2  15
TORSDOF 4
