REMARK  Name = ZINCnE000008J6Pb.0
REMARK                            x       y       z     vdW  Elec       q    Type
REMARK                         _______ _______ _______ _____ _____    ______ ____
ROOT
ATOM      1  C   LIG    1       -2.580  -3.148   0.011  0.00  0.00    -0.610 A 
ATOM      2  C   LIG    1       -3.201  -3.429   1.215  0.00  0.00    +0.120 A 
ATOM      3  C   LIG    1       -4.473  -3.962   1.230  0.00  0.00    +0.000 A 
ATOM      4  C   LIG    1       -5.129  -4.229   0.030  0.00  0.00    +0.020 A 
ATOM      5  C   LIG    1       -4.497  -3.949  -1.180  0.00  0.00    +0.030 A 
ATOM      6  C   LIG    1       -3.227  -3.410  -1.184  0.00  0.00    +0.120 A 
ENDROOT
BRANCH   4   7
ATOM      7  C   LIG    1       -6.495  -4.809   0.041  0.00  0.00    +0.030 A 
ATOM      8  C   LIG    1       -7.221  -5.133   1.138  0.00  0.00    +0.160 A 
ATOM      9  O   LIG    1       -8.397  -5.622   0.700  0.00  0.00    -0.200 OA
ATOM     10  C   LIG    1       -8.380  -5.603  -0.639  0.00  0.00    +0.190 A 
ATOM     11  C   LIG    1       -9.498  -6.070  -1.535  0.00  0.00    +0.220 C 
ATOM     12  N   LIG    1       -7.243  -5.117  -1.043  0.00  0.00    -0.470 NA
ENDBRANCH   4   7
BRANCH   1  13
ATOM     13  S   LIG    1       -0.958  -2.461  -0.002  0.00  0.00    +2.610 S 
ATOM     14  O   LIG    1       -0.364  -2.813   1.240  0.00  0.00    -1.010 OA
ATOM     15  O   LIG    1       -0.389  -2.799  -1.259  0.00  0.00    -1.010 OA
BRANCH  13  16
ATOM     16  N   LIG    1       -1.123  -0.814   0.009  0.00  0.00    -1.030 NA
BRANCH  16  20
ATOM     17  C   LIG    1        1.155   1.906   0.001  0.00  0.00    +0.120 A 
ATOM     18  C   LIG    1        2.209   1.089  -0.013  0.00  0.00    -0.170 A 
ATOM     19  S   LIG    1        1.615  -0.570  -0.016  0.00  0.00    -0.110 S 
ATOM     20  C   LIG    1        0.002  -0.004   0.002  0.00  0.00    +0.420 A 
ATOM     21  N   LIG    1       -0.015   1.293   0.009  0.00  0.00    -0.560 NA
BRANCH  17  23
ATOM     22  C   LIG    1        0.497   3.994  -1.163  0.00  0.00    +0.030 C 
ATOM     23  C   LIG    1        1.288   3.407   0.008  0.00  0.00    +0.100 C 
ENDBRANCH  17  23
ENDBRANCH  16  20
ENDBRANCH  13  16
ENDBRANCH   1  13
TORSDOF 5
