REMARK  Name = ZINCpe000000Yweq.0
REMARK                            x       y       z     vdW  Elec       q    Type
REMARK                         _______ _______ _______ _____ _____    ______ ____
ROOT
ATOM      1  C   LIG    1       -4.247   7.856  -2.242  0.00  0.00    +0.220 C 
ENDROOT
BRANCH   1   2
ATOM      2  O   LIG    1       -3.397   7.958  -3.386  0.00  0.00    -0.540 OA
ATOM      3  H   LIG    1       -3.873   8.063  -4.221  0.00  0.00    +0.380 HD
ENDBRANCH   1   2
BRANCH   1   4
ATOM      4  C   LIG    1       -5.097   9.123  -2.122  0.00  0.00    +0.170 C 
BRANCH   4   5
ATOM      5  O   LIG    1       -4.248  10.243  -1.863  0.00  0.00    -0.300 OA
BRANCH   5   9
ATOM      6  C   LIG    1       -6.074  13.923  -1.454  0.00  0.00    -0.070 A 
ATOM      7  C   LIG    1       -4.685  13.813  -1.339  0.00  0.00    +0.110 A 
ATOM      8  C   LIG    1       -4.080  12.583  -1.476  0.00  0.00    -0.010 A 
ATOM      9  C   LIG    1       -4.848  11.453  -1.729  0.00  0.00    +0.160 A 
ATOM     10  C   LIG    1       -6.229  11.559  -1.850  0.00  0.00    -0.070 A 
ATOM     11  C   LIG    1       -6.842  12.784  -1.709  0.00  0.00    +0.110 A 
BRANCH   6  13
ATOM     12  N   LIG    1       -7.210  16.212  -1.198  0.00  0.00    -0.420 NA
ATOM     13  C   LIG    1       -6.707  15.199  -1.311  0.00  0.00    +0.250 C 
ENDBRANCH   6  13
ENDBRANCH   5   9
ENDBRANCH   4   5
ENDBRANCH   1   4
BRANCH   1  14
ATOM     14  C   LIG    1       -5.163   6.640  -2.394  0.00  0.00    +0.170 C 
BRANCH  14  15
ATOM     15  N   LIG    1       -4.347   5.426  -2.528  0.00  0.00    -0.520 NA
ATOM     16  C   LIG    1       -5.194   4.225  -2.584  0.00  0.00    +0.160 C 
ATOM     17  C   LIG    1       -4.309   2.992  -2.783  0.00  0.00    +0.230 C 
ATOM     18  O   LIG    1       -3.346   2.927  -1.727  0.00  0.00    -0.360 OA
ATOM     19  C   LIG    1       -2.504   4.080  -1.644  0.00  0.00    +0.160 C 
ATOM     20  C   LIG    1       -3.371   5.324  -1.433  0.00  0.00    +0.170 C 
BRANCH  19  21
ATOM     21  C   LIG    1       -1.540   3.924  -0.467  0.00  0.00    +0.340 C 
BRANCH  21  22
ATOM     22  N   LIG    1       -0.634   2.800  -0.722  0.00  0.00    -0.370 N 
ATOM     23  C   LIG    1        0.714   2.849  -0.710  0.00  0.00    +0.220 A 
ATOM     24  C   LIG    1        1.174   1.608  -0.993  0.00  0.00    -0.120 A 
ATOM     25  C   LIG    1        0.069   0.773  -1.185  0.00  0.00    +0.210 A 
ATOM     26  N   LIG    1       -1.016   1.488  -1.028  0.00  0.00    -0.270 NA
ENDBRANCH  21  22
ENDBRANCH  19  21
ENDBRANCH  14  15
ENDBRANCH   1  14
TORSDOF 9
