REMARK  Name = ZINCvU00000009jz.0
REMARK                            x       y       z     vdW  Elec       q    Type
REMARK                         _______ _______ _______ _____ _____    ______ ____
ROOT
ATOM      1  C   LIG    1       -2.167  -1.661   0.307  0.00  0.00    +0.120 A 
ATOM      2  N   LIG    1       -3.444  -1.925   0.436  0.00  0.00    -0.390 NA
ATOM      3  C   LIG    1       -4.337  -0.926   0.426  0.00  0.00    +0.080 A 
ATOM      4  C   LIG    1       -5.711  -1.184   0.558  0.00  0.00    +0.080 A 
ATOM      5  C   LIG    1       -6.596  -0.149   0.545  0.00  0.00    +0.040 A 
ATOM      6  C   LIG    1       -6.160   1.165   0.403  0.00  0.00    +0.060 A 
ATOM      7  C   LIG    1       -4.835   1.453   0.272  0.00  0.00    +0.050 A 
ATOM      8  C   LIG    1       -3.892   0.411   0.281  0.00  0.00    +0.110 A 
ATOM      9  N   LIG    1       -2.584   0.665   0.155  0.00  0.00    -0.410 NA
ATOM     10  C   LIG    1       -1.721  -0.334   0.168  0.00  0.00    +0.100 A 
ENDROOT
BRANCH   1  11
ATOM     11  C   LIG    1       -1.167  -2.788   0.313  0.00  0.00    -0.240 C 
BRANCH  11  12
ATOM     12  S   LIG    1       -1.567  -3.945   1.652  0.00  0.00    +2.520 S 
ATOM     13  O   LIG    1       -2.782  -4.628   1.374  0.00  0.00    -0.890 OA
ATOM     14  O   LIG    1       -1.340  -3.340   2.917  0.00  0.00    -0.900 OA
BRANCH  12  19
ATOM     15  C   LIG    1        2.669  -8.224   1.264  0.00  0.00    +0.100 C 
ATOM     16  C   LIG    1        1.611  -7.155   1.361  0.00  0.00    -0.020 A 
ATOM     17  C   LIG    1        1.823  -6.042   2.152  0.00  0.00    +0.000 A 
ATOM     18  C   LIG    1        0.853  -5.061   2.241  0.00  0.00    +0.130 A 
ATOM     19  C   LIG    1       -0.330  -5.194   1.538  0.00  0.00    -0.680 A 
ATOM     20  C   LIG    1       -0.545  -6.310   0.751  0.00  0.00    +0.130 A 
ATOM     21  C   LIG    1        0.428  -7.288   0.658  0.00  0.00    +0.000 A 
ENDBRANCH  12  19
ENDBRANCH  11  12
BRANCH  11  22
ATOM     22  C   LIG    1       -1.216  -3.495  -0.977  0.00  0.00    +0.210 C 
ATOM     23  N   LIG    1       -1.255  -4.041  -1.973  0.00  0.00    -0.350 NA
ENDBRANCH  11  22
ENDBRANCH   1  11
BRANCH  10  24
ATOM     24  S   LIG    1        0.002  -0.004   0.002  0.00  0.00    +0.080 S 
BRANCH  24  25
ATOM     25  C   LIG    1       -0.021   1.758   0.025  0.00  0.00    -0.150 A 
ATOM     26  C   LIG    1       -0.044   2.469  -1.168  0.00  0.00    +0.120 A 
ATOM     27  C   LIG    1       -0.066   3.849  -1.147  0.00  0.00    -0.020 A 
ATOM     28  C   LIG    1       -0.055   4.525   0.061  0.00  0.00    +0.140 A 
ATOM     29  C   LIG    1       -0.026   3.818   1.252  0.00  0.00    -0.020 A 
ATOM     30  F   LIG    1       -0.072   5.876   0.079  0.00  0.00    -0.130 F 
ATOM     31  C   LIG    1       -0.009   2.438   1.236  0.00  0.00    +0.120 A 
ENDBRANCH  24  25
ENDBRANCH  10  24
TORSDOF 6
