REMARK  Name = ZINCnE000001TDCH.1
REMARK                            x       y       z     vdW  Elec       q    Type
REMARK                         _______ _______ _______ _____ _____    ______ ____
ROOT
ATOM      1  C   LIG    1        2.462   1.446  -0.014  0.00  0.00    +0.260 C 
ATOM      2  C   LIG    1        2.576   0.164  -0.843  0.00  0.00    +0.040 C 
ATOM      3  C   LIG    1        4.023  -0.335  -0.805  0.00  0.00    +0.190 C 
ATOM      4  N   LIG    1        4.417  -0.594   0.585  0.00  0.00    -0.540 NA
ATOM      5  C   LIG    1        4.360   0.634   1.390  0.00  0.00    +0.180 C 
ATOM      6  C   LIG    1        2.924   1.161   1.418  0.00  0.00    +0.030 C 
ENDROOT
BRANCH   1   9
ATOM      7  C   LIG    1       -0.626   3.194   0.025  0.00  0.00    -0.010 A 
ATOM      8  N   LIG    1        0.691   3.124   0.012  0.00  0.00    -0.270 NA
ATOM      9  N   LIG    1        1.068   1.895   0.002  0.00  0.00    -0.310 N 
ATOM     10  C   LIG    1       -0.013   1.076   0.008  0.00  0.00    +0.110 A 
ATOM     11  C   LIG    1       -1.112   1.864   0.017  0.00  0.00    -0.050 A 
BRANCH   7  13
ATOM     12  O   LIG    1       -0.891   5.518   0.040  0.00  0.00    -0.680 OA
ATOM     13  C   LIG    1       -1.438   4.424   0.040  0.00  0.00    +0.560 C 
ATOM     14  O   LIG    1       -2.659   4.351   0.051  0.00  0.00    -0.680 OA
ENDBRANCH   7  13
ENDBRANCH   1   9
BRANCH   4  15
ATOM     15  C   LIG    1        5.752  -1.204   0.650  0.00  0.00    +0.270 C 
BRANCH  15  16
ATOM     16  C   LIG    1        5.708  -2.574   0.023  0.00  0.00    -0.160 A 
ATOM     17  C   LIG    1        5.926  -2.837  -1.266  0.00  0.00    +0.020 A 
ATOM     18  C   LIG    1        5.835  -4.174  -1.612  0.00  0.00    -0.180 A 
ATOM     19  C   LIG    1        5.534  -4.996  -0.605  0.00  0.00    -0.020 A 
ATOM     20  S   LIG    1        5.354  -4.069   0.879  0.00  0.00    +0.170 S 
BRANCH  18  21
ATOM     21  C   LIG    1        6.054  -4.664  -3.020  0.00  0.00    +0.450 C 
ATOM     22  F   LIG    1        7.350  -4.335  -3.432  0.00  0.00    -0.200 F 
ATOM     23  F   LIG    1        5.125  -4.060  -3.874  0.00  0.00    -0.200 F 
ENDBRANCH  18  21
ENDBRANCH  15  16
ENDBRANCH   4  15
TORSDOF 5
