REMARK  Name = ZINCnE000001R0W8.1
REMARK                            x       y       z     vdW  Elec       q    Type
REMARK                         _______ _______ _______ _____ _____    ______ ____
ROOT
ATOM      1  C   LIG    1        5.125   0.970  -1.202  0.00  0.00    +0.170 C 
ATOM      2  C   LIG    1        4.926  -0.425  -0.668  0.00  0.00    +0.110 A 
ATOM      3  N   LIG    1        5.866  -1.317  -0.487  0.00  0.00    -0.290 NA
ATOM      4  N   LIG    1        5.277  -2.484   0.017  0.00  0.00    -0.340 N 
ATOM      5  C   LIG    1        3.940  -2.257   0.138  0.00  0.00    +0.030 A 
ATOM      6  C   LIG    1        2.913  -3.238   0.642  0.00  0.00    +0.140 C 
ATOM      7  C   LIG    1        3.701  -0.987  -0.277  0.00  0.00    +0.040 A 
ENDROOT
BRANCH   4   8
ATOM      8  C   LIG    1        5.945  -3.673   0.338  0.00  0.00    +0.170 A 
ATOM      9  C   LIG    1        7.166  -3.628   0.998  0.00  0.00    +0.020 A 
ATOM     10  C   LIG    1        7.819  -4.802   1.318  0.00  0.00    +0.030 A 
ATOM     11  C   LIG    1        7.264  -6.021   0.973  0.00  0.00    +0.000 A 
ATOM     12  C   LIG    1        6.051  -6.068   0.310  0.00  0.00    +0.030 A 
ATOM     13  C   LIG    1        5.390  -4.898  -0.007  0.00  0.00    +0.000 A 
ENDBRANCH   4   8
BRANCH   7  14
ATOM     14  N   LIG    1        2.447  -0.350  -0.315  0.00  0.00    -0.660 N 
ATOM     15  H   LIG    1        1.643  -0.871  -0.466  0.00  0.00    +0.400 HD
ATOM     16  C   LIG    1        2.364   0.984  -0.140  0.00  0.00    +0.560 C 
ATOM     17  O   LIG    1        3.355   1.621   0.159  0.00  0.00    -0.500 OA
BRANCH  16  18
ATOM     18  C   LIG    1        1.069   1.671  -0.311  0.00  0.00    -0.300 A 
ATOM     19  C   LIG    1       -0.072   0.942  -0.654  0.00  0.00    +0.060 A 
ATOM     20  C   LIG    1       -1.278   1.591  -0.818  0.00  0.00    -0.170 A 
ATOM     21  C   LIG    1       -1.365   2.961  -0.633  0.00  0.00    +0.030 A 
ATOM     22  C   LIG    1       -0.244   3.693  -0.294  0.00  0.00    -0.160 A 
ATOM     23  C   LIG    1        0.978   3.058  -0.131  0.00  0.00    +0.310 A 
ATOM     24  O   LIG    1        2.080   3.775   0.203  0.00  0.00    -0.670 OA
ENDBRANCH  16  18
ENDBRANCH   7  14
TORSDOF 3
