REMARK  Name = ZINCpe000000YgJj.0
REMARK                            x       y       z     vdW  Elec       q    Type
REMARK                         _______ _______ _______ _____ _____    ______ ____
ROOT
ATOM      1  N   LIG    1       -0.011   0.966   0.007  0.00  0.00    -0.720 N 
ATOM      2  H   LIG    1        0.002  -0.004   0.002  0.00  0.00    +0.410 HD
ATOM      3  C   LIG    1       -1.187   1.624   0.017  0.00  0.00    +0.610 C 
ATOM      4  O   LIG    1       -1.204   2.840   0.023  0.00  0.00    -0.540 OA
ENDROOT
BRANCH   3   5
ATOM      5  C   LIG    1       -2.455   0.869   0.018  0.00  0.00    -0.100 A 
ATOM      6  C   LIG    1       -3.708   1.412   0.033  0.00  0.00    +0.310 A 
ATOM      7  N   LIG    1       -4.580   0.384   0.027  0.00  0.00    -0.360 N 
ATOM      8  N   LIG    1       -3.818  -0.793   0.017  0.00  0.00    -0.030 NA
ATOM      9  N   LIG    1       -2.572  -0.470   0.012  0.00  0.00    -0.210 NA
BRANCH   7  10
ATOM     10  C   LIG    1       -6.042   0.479   0.035  0.00  0.00    +0.370 C 
BRANCH  10  11
ATOM     11  C   LIG    1       -6.601  -0.297  -1.131  0.00  0.00    +0.500 C 
ATOM     12  O   LIG    1       -5.852  -0.871  -1.892  0.00  0.00    -0.510 OA
ATOM     13  N   LIG    1       -7.934  -0.351  -1.326  0.00  0.00    -0.850 N 
ATOM     14  H   LIG    1       -8.294  -0.850  -2.076  0.00  0.00    +0.410 HD
ATOM     15  H   LIG    1       -8.532   0.108  -0.717  0.00  0.00    +0.410 HD
ENDBRANCH  10  11
ENDBRANCH   7  10
ENDBRANCH   3   5
BRANCH   1  16
ATOM     16  C   LIG    1        1.248   1.716  -0.001  0.00  0.00    +0.260 C 
BRANCH  16  17
ATOM     17  C   LIG    1        2.424   0.737  -0.017  0.00  0.00    +0.110 C 
BRANCH  17  21
ATOM     18  C   LIG    1        6.574   3.065  -1.637  0.00  0.00    +0.320 C 
ATOM     19  N   LIG    1        5.556   2.541  -0.724  0.00  0.00    -0.480 N 
ATOM     20  C   LIG    1        4.442   1.842  -1.105  0.00  0.00    +0.240 A 
ATOM     21  C   LIG    1        3.719   1.508  -0.025  0.00  0.00    -0.170 A 
ATOM     22  C   LIG    1        4.423   2.041   1.144  0.00  0.00    -0.100 A 
ATOM     23  C   LIG    1        4.180   2.014   2.518  0.00  0.00    +0.070 A 
ATOM     24  C   LIG    1        5.059   2.615   3.374  0.00  0.00    -0.010 A 
ATOM     25  C   LIG    1        6.195   3.249   2.889  0.00  0.00    -0.010 A 
ATOM     26  C   LIG    1        6.457   3.282   1.536  0.00  0.00    +0.010 A 
ATOM     27 CL   LIG    1        7.297   4.007   3.997  0.00  0.00    -0.070 Cl
ATOM     28  C   LIG    1        5.576   2.676   0.646  0.00  0.00    +0.110 A 
ENDBRANCH  17  21
ENDBRANCH  16  17
ENDBRANCH   1  16
TORSDOF 6
