REMARK  Name = ZINCvU0000000HXH.0
REMARK                            x       y       z     vdW  Elec       q    Type
REMARK                         _______ _______ _______ _____ _____    ______ ____
ROOT
ATOM      1  C   LIG    1       -4.938   0.925   0.016  0.00  0.00    +0.200 A 
ATOM      2  N   LIG    1       -4.901  -0.394   0.023  0.00  0.00    -0.460 NA
ATOM      3  C   LIG    1       -6.007  -1.139   0.039  0.00  0.00    +0.140 A 
ATOM      4  C   LIG    1       -5.935  -2.544   0.047  0.00  0.00    +0.060 A 
ATOM      5  C   LIG    1       -7.081  -3.278   0.063  0.00  0.00    +0.060 A 
ATOM      6  C   LIG    1       -8.331  -2.661   0.073  0.00  0.00    -0.090 A 
ATOM      7  C   LIG    1       -8.438  -1.300   0.066  0.00  0.00    +0.110 A 
ATOM      8 BR   LIG    1       -9.896  -3.722   0.095  0.00  0.00    -0.040 Br
ATOM      9  C   LIG    1       -7.281  -0.516   0.049  0.00  0.00    -0.070 A 
ATOM     10  C   LIG    1       -7.349   0.946   0.041  0.00  0.00    -0.070 A 
ATOM     11  C   LIG    1       -6.150   1.640   0.031  0.00  0.00    +0.030 A 
ENDROOT
BRANCH  10  12
ATOM     12  C   LIG    1       -8.647   1.655   0.052  0.00  0.00    +0.570 C 
ATOM     13  N   LIG    1       -8.681   2.998   0.168  0.00  0.00    -0.710 N 
ATOM     14  H   LIG    1       -7.854   3.499   0.244  0.00  0.00    +0.410 HD
ATOM     15  O   LIG    1       -9.684   1.027  -0.044  0.00  0.00    -0.520 OA
BRANCH  13  16
ATOM     16  C   LIG    1       -9.967   3.700   0.178  0.00  0.00    +0.310 C 
ATOM     17  C   LIG    1      -10.531   3.710   1.600  0.00  0.00    +0.050 C 
BRANCH  16  18
ATOM     18  C   LIG    1       -9.769   5.117  -0.294  0.00  0.00    +0.070 A 
ATOM     19  C   LIG    1      -10.823   5.812  -0.859  0.00  0.00    +0.240 A 
ATOM     20  N   LIG    1      -10.650   7.055  -1.272  0.00  0.00    -0.430 NA
ATOM     21  C   LIG    1       -9.469   7.635  -1.146  0.00  0.00    +0.220 A 
ATOM     22  C   LIG    1       -8.414   6.940  -0.580  0.00  0.00    +0.240 A 
ATOM     23  N   LIG    1       -8.589   5.699  -0.162  0.00  0.00    -0.440 NA
ENDBRANCH  16  18
ENDBRANCH  13  16
ENDBRANCH  10  12
BRANCH   1  25
ATOM     24  C   LIG    1       -2.501   1.011  -0.011  0.00  0.00    +0.100 C 
ATOM     25  C   LIG    1       -3.671   1.673  -0.002  0.00  0.00    +0.000 C 
BRANCH  24  31
ATOM     26  C   LIG    1        2.486   1.048  -0.076  0.00  0.00    +0.090 C 
ATOM     27  C   LIG    1        1.171   1.783  -0.060  0.00  0.00    -0.090 A 
ATOM     28  C   LIG    1        1.154   3.167  -0.068  0.00  0.00    +0.010 A 
ATOM     29  C   LIG    1       -0.049   3.851  -0.054  0.00  0.00    +0.010 A 
ATOM     30  C   LIG    1       -1.240   3.158  -0.031  0.00  0.00    +0.020 A 
ATOM     31  C   LIG    1       -1.232   1.760  -0.028  0.00  0.00    -0.070 A 
ATOM     32  C   LIG    1       -0.013   1.076  -0.038  0.00  0.00    +0.030 A 
ENDBRANCH  24  31
ENDBRANCH   1  25
TORSDOF 5
