REMARK  Name = ZINCpe000000W3Fx.0
REMARK                            x       y       z     vdW  Elec       q    Type
REMARK                         _______ _______ _______ _____ _____    ______ ____
ROOT
ATOM      1  C   LIG    1       -0.014   1.209   0.009  0.00  0.00    +0.510 C 
ATOM      2  N   LIG    1        1.143   1.898   0.001  0.00  0.00    -0.650 N 
ATOM      3  H   LIG    1        1.130   2.868   0.007  0.00  0.00    +0.410 HD
ATOM      4  O   LIG    1        0.002  -0.004   0.002  0.00  0.00    -0.490 OA
ENDROOT
BRANCH   2   5
ATOM      5  C   LIG    1        2.361   1.218  -0.014  0.00  0.00    +0.310 A 
ATOM      6  C   LIG    1        2.526  -0.133  -0.023  0.00  0.00    -0.100 A 
ATOM      7  C   LIG    1        3.899  -0.396  -0.038  0.00  0.00    +0.080 A 
ATOM      8  N   LIG    1        4.537   0.747  -0.037  0.00  0.00    -0.280 NA
ATOM      9  C   LIG    1        4.536  -1.762  -0.052  0.00  0.00    +0.160 C 
ATOM     10  N   LIG    1        3.591   1.780  -0.028  0.00  0.00    -0.380 N 
BRANCH  10  11
ATOM     11  C   LIG    1        3.882   3.216  -0.031  0.00  0.00    +0.180 C 
ATOM     12  C   LIG    1        3.263   3.859  -1.273  0.00  0.00    +0.060 C 
ATOM     13  C   LIG    1        5.397   3.428  -0.049  0.00  0.00    +0.070 C 
ATOM     14  C   LIG    1        3.292   3.858   1.226  0.00  0.00    +0.060 C 
ENDBRANCH  10  11
ENDBRANCH   2   5
BRANCH   1  15
ATOM     15  C   LIG    1       -1.330   1.944   0.019  0.00  0.00    +0.380 C 
BRANCH  15  20
ATOM     16  C   LIG    1       -4.082  -0.467  -0.615  0.00  0.00    +0.130 C 
ATOM     17  N   LIG    1       -3.981  -0.392   0.852  0.00  0.00    -0.710 N 
ATOM     18  H   LIG    1       -4.523  -0.874   1.496  0.00  0.00    +0.450 HD
ATOM     19  C   LIG    1       -2.990   0.476   1.126  0.00  0.00    +0.710 C 
ATOM     20  N   LIG    1       -2.430   0.977   0.019  0.00  0.00    -0.560 N 
ATOM     21  O   LIG    1       -2.642   0.770   2.252  0.00  0.00    -0.530 OA
ATOM     22  C   LIG    1       -3.801  -1.890  -1.102  0.00  0.00    +0.090 C 
ATOM     23  C   LIG    1       -3.008   0.488  -1.096  0.00  0.00    +0.540 C 
ATOM     24  O   LIG    1       -2.725   0.754  -2.244  0.00  0.00    -0.450 OA
BRANCH  16  25
ATOM     25  C   LIG    1       -5.463  -0.002  -1.084  0.00  0.00    +0.210 C 
BRANCH  25  27
ATOM     26  C   LIG    1       -7.806  -0.430  -0.813  0.00  0.00    +0.210 C 
ATOM     27  O   LIG    1       -6.472  -0.785  -0.443  0.00  0.00    -0.380 OA
ENDBRANCH  25  27
ENDBRANCH  16  25
ENDBRANCH  15  20
ENDBRANCH   1  15
TORSDOF 6
