REMARK  Name = ZINCrD000000AjpQ.0
REMARK                            x       y       z     vdW  Elec       q    Type
REMARK                         _______ _______ _______ _____ _____    ______ ____
ROOT
ATOM      1  O   LIG    1        0.110  -2.653  -0.013  0.00  0.00    -0.500 OA
ATOM      2  C   LIG    1       -0.994  -2.152   0.001  0.00  0.00    +0.520 C 
ATOM      3  N   LIG    1       -1.125  -0.811   0.009  0.00  0.00    -0.620 N 
ATOM      4  H   LIG    1       -2.008  -0.410   0.020  0.00  0.00    +0.430 HD
ENDROOT
BRANCH   3   5
ATOM      5  C   LIG    1        0.002  -0.004   0.002  0.00  0.00    +0.320 A 
ATOM      6  N   LIG    1       -0.015   1.283   0.009  0.00  0.00    -0.490 NA
ATOM      7  C   LIG    1        1.168   1.930   0.001  0.00  0.00    +0.070 A 
ATOM      8  C   LIG    1        1.414   3.321   0.007  0.00  0.00    +0.180 A 
ATOM      9  C   LIG    1        2.702   3.800  -0.002  0.00  0.00    -0.020 A 
ATOM     10  C   LIG    1        3.780   2.925  -0.017  0.00  0.00    +0.140 A 
ATOM     11  C   LIG    1        3.562   1.563  -0.023  0.00  0.00    +0.040 A 
ATOM     12  F   LIG    1        5.042   3.407  -0.026  0.00  0.00    -0.120 F 
ATOM     13  F   LIG    1        0.377   4.186   0.021  0.00  0.00    -0.110 F 
ATOM     14  C   LIG    1        2.262   1.061  -0.014  0.00  0.00    -0.180 A 
ATOM     15  S   LIG    1        1.658  -0.594  -0.017  0.00  0.00    +0.220 S 
ENDBRANCH   3   5
BRANCH   2  16
ATOM     16  C   LIG    1       -2.219  -3.029   0.008  0.00  0.00    +0.130 C 
BRANCH  16  17
ATOM     17  C   LIG    1       -1.795  -4.499  -0.004  0.00  0.00    +0.170 C 
BRANCH  17  18
ATOM     18  C   LIG    1       -3.020  -5.376   0.004  0.00  0.00    +0.450 A 
ATOM     19  N   LIG    1       -4.191  -4.802   0.024  0.00  0.00    -0.600 NA
ATOM     20  C   LIG    1       -5.332  -5.518   0.027  0.00  0.00    +0.530 A 
ATOM     21  C   LIG    1       -5.228  -6.988   0.018  0.00  0.00    -0.210 A 
ATOM     22  C   LIG    1       -6.352  -7.809   0.024  0.00  0.00    +0.110 A 
ATOM     23  C   LIG    1       -6.192  -9.178   0.015  0.00  0.00    -0.010 A 
ATOM     24  C   LIG    1       -4.923  -9.738  -0.001  0.00  0.00    +0.080 A 
ATOM     25  C   LIG    1       -3.800  -8.937  -0.008  0.00  0.00    -0.020 A 
ATOM     26  C   LIG    1       -3.940  -7.556   0.002  0.00  0.00    +0.170 A 
ATOM     27  O   LIG    1       -6.418  -4.966   0.041  0.00  0.00    -0.480 OA
ATOM     28  N   LIG    1       -2.849  -6.710  -0.005  0.00  0.00    -0.620 N 
ATOM     29  H   LIG    1       -1.953  -7.080  -0.016  0.00  0.00    +0.420 HD
ENDBRANCH  17  18
ENDBRANCH  16  17
ENDBRANCH   2  16
TORSDOF 4
