REMARK  Name = ZINCnE000001OK3j.0
REMARK                            x       y       z     vdW  Elec       q    Type
REMARK                         _______ _______ _______ _____ _____    ______ ____
ROOT
ATOM      1  C   LIG    1       -4.072   1.756  -2.602  0.00  0.00    +0.600 C 
ATOM      2  N   LIG    1       -2.753   1.480  -2.559  0.00  0.00    -0.610 N 
ATOM      3  C   LIG    1       -2.118   1.056  -1.303  0.00  0.00    +0.260 C 
ATOM      4  C   LIG    1       -1.370  -0.258  -1.549  0.00  0.00    +0.000 C 
ATOM      5  C   LIG    1       -0.397  -0.076  -2.716  0.00  0.00    +0.010 C 
ATOM      6  C   LIG    1       -1.177   0.279  -3.983  0.00  0.00    -0.030 C 
ATOM      7  C   LIG    1       -1.923   1.599  -3.765  0.00  0.00    +0.270 C 
ATOM      8  O   LIG    1       -4.767   1.557  -1.624  0.00  0.00    -0.560 OA
ENDROOT
BRANCH   1  12
ATOM      9  C   LIG    1       -4.822   4.448  -6.871  0.00  0.00    +0.140 C 
ATOM     10  C   LIG    1       -4.983   3.494  -5.715  0.00  0.00    +0.020 A 
ATOM     11  C   LIG    1       -4.093   3.311  -4.723  0.00  0.00    -0.020 A 
ATOM     12  C   LIG    1       -4.670   2.297  -3.834  0.00  0.00    -0.230 A 
ATOM     13  C   LIG    1       -5.874   1.951  -4.383  0.00  0.00    +0.090 A 
ATOM     14  C   LIG    1       -6.837   0.933  -3.828  0.00  0.00    +0.140 C 
ATOM     15  N   LIG    1       -6.054   2.676  -5.504  0.00  0.00    -0.430 N 
BRANCH  15  16
ATOM     16  C   LIG    1       -7.229   2.594  -6.375  0.00  0.00    +0.220 C 
ATOM     17  C   LIG    1       -6.782   2.304  -7.809  0.00  0.00    +0.050 C 
ATOM     18  C   LIG    1       -7.987   3.922  -6.336  0.00  0.00    +0.030 C 
ENDBRANCH  15  16
ENDBRANCH   1  12
BRANCH   6  19
ATOM     19  C   LIG    1       -0.206   0.428  -5.156  0.00  0.00    +0.040 C 
BRANCH  19  20
ATOM     20  C   LIG    1       -0.996   0.660  -6.446  0.00  0.00    -0.070 C 
BRANCH  20  21
ATOM     21  C   LIG    1       -0.040   0.806  -7.601  0.00  0.00    +0.490 C 
ATOM     22  O   LIG    1       -0.468   0.999  -8.726  0.00  0.00    -0.710 OA
ATOM     23  O   LIG    1        1.162   0.733  -7.410  0.00  0.00    -0.700 OA
ENDBRANCH  20  21
ENDBRANCH  19  20
ENDBRANCH   6  19
TORSDOF 5
