REMARK  Name = ZINCqH0000001JoJ.0
REMARK                            x       y       z     vdW  Elec       q    Type
REMARK                         _______ _______ _______ _____ _____    ______ ____
ROOT
ATOM      1  C   LIG    1        1.380  -0.695  -0.065  0.00  0.00    +0.610 C 
ATOM      2  N   LIG    1        0.143  -0.160  -0.096  0.00  0.00    -0.530 N 
ATOM      3  O   LIG    1        2.355   0.030  -0.005  0.00  0.00    -0.510 OA
ENDROOT
BRANCH   1   6
ATOM      4  C   LIG    1        2.443  -4.175  -0.194  0.00  0.00    +0.030 A 
ATOM      5  C   LIG    1        2.778  -2.863  -0.189  0.00  0.00    -0.010 A 
ATOM      6  C   LIG    1        1.552  -2.161  -0.103  0.00  0.00    -0.010 A 
ATOM      7  N   LIG    1        0.593  -3.065  -0.059  0.00  0.00    -0.250 NA
ATOM      8  N   LIG    1        1.097  -4.245  -0.117  0.00  0.00    -0.380 N 
ATOM      9  H   LIG    1        0.584  -5.068  -0.102  0.00  0.00    +0.440 HD
BRANCH   4  11
ATOM     10  C   LIG    1        2.854  -6.499   0.567  0.00  0.00    +0.020 C 
ATOM     11  C   LIG    1        3.396  -5.340  -0.272  0.00  0.00    +0.070 C 
ATOM     12  C   LIG    1        3.538  -5.787  -1.728  0.00  0.00    +0.040 C 
ENDBRANCH   4  11
ENDBRANCH   1   6
BRANCH   2  13
ATOM     13  C   LIG    1       -0.017   1.230  -0.156  0.00  0.00    +0.100 A 
ATOM     14  C   LIG    1       -1.281   1.776  -0.339  0.00  0.00    +0.000 A 
ATOM     15  C   LIG    1       -1.440   3.146  -0.394  0.00  0.00    -0.050 A 
ATOM     16  C   LIG    1       -0.335   3.979  -0.276  0.00  0.00    +0.190 A 
ATOM     17  C   LIG    1        0.929   3.433  -0.098  0.00  0.00    -0.040 A 
ATOM     18  C   LIG    1        1.088   2.063  -0.038  0.00  0.00    +0.070 A 
BRANCH  16  19
ATOM     19  N   LIG    1       -0.496   5.367  -0.336  0.00  0.00    -0.640 N 
ATOM     20  C   LIG    1       -1.839   5.947  -0.396  0.00  0.00    +0.280 C 
ATOM     21  C   LIG    1        0.680   6.241  -0.340  0.00  0.00    +0.280 C 
ENDBRANCH  16  19
ENDBRANCH   2  13
BRANCH   2  22
ATOM     22  C   LIG    1       -1.033  -1.033  -0.068  0.00  0.00    +0.390 C 
BRANCH  22  23
ATOM     23  C   LIG    1       -1.444  -1.369  -1.478  0.00  0.00    -0.010 A 
ATOM     24  C   LIG    1       -1.082  -2.471  -2.165  0.00  0.00    -0.030 A 
ATOM     25  C   LIG    1       -1.682  -2.391  -3.438  0.00  0.00    -0.080 A 
ATOM     26  C   LIG    1       -2.387  -1.242  -3.479  0.00  0.00    +0.150 A 
ATOM     27  N   LIG    1       -2.249  -0.613  -2.277  0.00  0.00    -0.550 N 
ATOM     28  H   LIG    1       -2.655   0.233  -2.032  0.00  0.00    +0.410 HD
ENDBRANCH  22  23
ENDBRANCH   2  22
TORSDOF 6
