REMARK  Name = ZINCvU0000000FtF.0
REMARK                            x       y       z     vdW  Elec       q    Type
REMARK                         _______ _______ _______ _____ _____    ______ ____
ROOT
ATOM      1  O   LIG    1        8.208  -0.931   2.587  0.00  0.00    -0.510 OA
ATOM      2  C   LIG    1        8.783  -0.295   1.726  0.00  0.00    +0.570 C 
ATOM      3  N   LIG    1        8.083   0.510   0.902  0.00  0.00    -0.600 N 
ATOM      4  C   LIG    1        8.772   1.366  -0.073  0.00  0.00    +0.270 C 
ATOM      5  C   LIG    1        8.302   2.811   0.118  0.00  0.00    +0.040 C 
ATOM      6  C   LIG    1        6.774   2.862   0.030  0.00  0.00    +0.040 C 
ATOM      7  C   LIG    1        6.169   2.005   1.144  0.00  0.00    +0.100 C 
ATOM      8  C   LIG    1        6.615   0.550   0.964  0.00  0.00    +0.300 C 
ENDROOT
BRANCH   7   9
ATOM      9  C   LIG    1        4.665   2.081   1.076  0.00  0.00    +0.290 A 
ATOM     10  N   LIG    1        3.929   2.900   1.768  0.00  0.00    -0.480 NA
ATOM     11  C   LIG    1        2.619   2.704   1.466  0.00  0.00    +0.050 A 
ATOM     12  C   LIG    1        1.431   3.294   1.903  0.00  0.00    +0.070 A 
ATOM     13  C   LIG    1        0.234   2.869   1.398  0.00  0.00    +0.000 A 
ATOM     14  C   LIG    1        0.185   1.854   0.452  0.00  0.00    +0.030 A 
ATOM     15  C   LIG    1        1.346   1.258   0.006  0.00  0.00    +0.010 A 
ATOM     16  C   LIG    1        2.571   1.677   0.508  0.00  0.00    +0.050 A 
ATOM     17  N   LIG    1        3.880   1.303   0.282  0.00  0.00    -0.600 N 
ATOM     18  H   LIG    1        4.185   0.614  -0.329  0.00  0.00    +0.420 HD
ENDBRANCH   7   9
BRANCH   2  19
ATOM     19  C   LIG    1       10.250  -0.405   1.580  0.00  0.00    -0.130 A 
ATOM     20  C   LIG    1       10.830  -0.411   0.311  0.00  0.00    +0.150 A 
ATOM     21  C   LIG    1       12.200  -0.509   0.182  0.00  0.00    -0.190 A 
ATOM     22  C   LIG    1       12.998  -0.612   1.308  0.00  0.00    +0.160 A 
ATOM     23  C   LIG    1       12.429  -0.611   2.569  0.00  0.00    -0.190 A 
ATOM     24  C   LIG    1       11.061  -0.509   2.712  0.00  0.00    +0.180 A 
BRANCH  23  25
ATOM     25  C   LIG    1       13.306  -0.724   3.790  0.00  0.00    +0.510 C 
ATOM     26  F   LIG    1       12.704  -0.052   4.859  0.00  0.00    -0.170 F 
ATOM     27  F   LIG    1       14.554  -0.151   3.522  0.00  0.00    -0.170 F 
ATOM     28  F   LIG    1       13.474  -2.073   4.121  0.00  0.00    -0.170 F 
ENDBRANCH  23  25
BRANCH  21  29
ATOM     29  C   LIG    1       12.829  -0.511  -1.187  0.00  0.00    +0.510 C 
ATOM     30  F   LIG    1       12.516   0.684  -1.845  0.00  0.00    -0.170 F 
ATOM     31  F   LIG    1       12.336  -1.592  -1.925  0.00  0.00    -0.170 F 
ATOM     32  F   LIG    1       14.218  -0.625  -1.063  0.00  0.00    -0.170 F 
ENDBRANCH  21  29
ENDBRANCH   2  19
TORSDOF 4
