REMARK  Name = ZINCkj000005mgjt.0
REMARK                            x       y       z     vdW  Elec       q    Type
REMARK                         _______ _______ _______ _____ _____    ______ ____
ROOT
ATOM      1  O   LIG    1       -1.247  -0.419  -0.533  0.00  0.00    -0.920 OA
ATOM      2  S   LIG    1        0.002  -0.004   0.002  0.00  0.00    +2.690 S 
ATOM      3  O   LIG    1        1.252  -0.385  -0.556  0.00  0.00    -0.930 OA
ENDROOT
BRANCH   2   4
ATOM      4  N   LIG    1       -0.020   1.652   0.011  0.00  0.00    -0.980 NA
ATOM      5  C   LIG    1       -1.307   2.358   0.021  0.00  0.00    +0.290 C 
ATOM      6  C   LIG    1       -1.291   3.377  -1.121  0.00  0.00    +0.030 C 
ATOM      7  C   LIG    1       -0.107   4.319  -0.912  0.00  0.00    +0.040 C 
ATOM      8  C   LIG    1        1.217   3.558  -0.998  0.00  0.00    +0.030 C 
ATOM      9  C   LIG    1        2.316   4.490  -0.426  0.00  0.00    +0.270 C 
ATOM     10  N   LIG    1        2.448   4.175   1.009  0.00  0.00    -0.510 N 
ATOM     11  C   LIG    1        1.491   3.096   1.345  0.00  0.00    +0.250 C 
ATOM     12  H   LIG    1        2.237   4.995   1.557  0.00  0.00    +0.430 HD
ATOM     13  H   LIG    1        3.389   3.867   1.204  0.00  0.00    +0.440 HD
ATOM     14  C   LIG    1        1.232   2.384   0.003  0.00  0.00    +0.270 C 
ENDBRANCH   2   4
BRANCH   2  15
ATOM     15  C   LIG    1        0.025  -0.535   1.682  0.00  0.00    -0.690 A 
ATOM     16  C   LIG    1       -1.047  -1.235   2.200  0.00  0.00    +0.140 A 
ATOM     17  C   LIG    1       -1.027  -1.656   3.519  0.00  0.00    +0.090 A 
ATOM     18  C   LIG    1        0.064  -1.367   4.321  0.00  0.00    +0.090 A 
ATOM     19  C   LIG    1        1.134  -0.662   3.804  0.00  0.00    +0.030 A 
ATOM     20  F   LIG    1       -2.074  -2.345   4.025  0.00  0.00    -0.120 F 
ATOM     21  C   LIG    1        1.116  -0.245   2.485  0.00  0.00    +0.170 A 
ATOM     22  F   LIG    1        2.162   0.444   1.979  0.00  0.00    -0.130 F 
ENDBRANCH   2  15
TORSDOF 2
