REMARK  Name = ZINCpe000000ZtxN.0
REMARK                            x       y       z     vdW  Elec       q    Type
REMARK                         _______ _______ _______ _____ _____    ______ ____
ROOT
ATOM      1  O   LIG    1        3.016  -1.811   1.728  0.00  0.00    -0.500 OA
ATOM      2  C   LIG    1        3.103  -0.606   1.613  0.00  0.00    +0.490 C 
ATOM      3  N   LIG    1        1.989   0.140   1.480  0.00  0.00    -0.620 N 
ATOM      4  C   LIG    1        0.669  -0.492   1.342  0.00  0.00    +0.300 C 
ATOM      5  C   LIG    1       -0.032   0.107   0.118  0.00  0.00    +0.220 C 
ATOM      6  N   LIG    1       -0.054   1.571   0.238  0.00  0.00    -0.460 N 
ATOM      7  C   LIG    1        1.306   2.126   0.242  0.00  0.00    +0.210 C 
ATOM      8  C   LIG    1        2.062   1.609   1.471  0.00  0.00    +0.290 C 
ENDROOT
BRANCH   2   9
ATOM      9  C   LIG    1        4.457   0.055   1.618  0.00  0.00    +0.230 C 
ATOM     10  N   LIG    1        4.656   0.779   0.358  0.00  0.00    -0.670 NA
ATOM     11  H   LIG    1        4.321   1.728   0.429  0.00  0.00    +0.350 HD
ATOM     12  C   LIG    1        4.055   0.090  -0.783  0.00  0.00    +0.160 C 
ATOM     13  C   LIG    1        4.747  -1.206  -1.146  0.00  0.00    +0.230 C 
ATOM     14  O   LIG    1        4.607  -2.168  -0.093  0.00  0.00    -0.310 OA
ATOM     15  C   LIG    1        5.537  -2.086   0.898  0.00  0.00    +0.140 A 
ATOM     16  C   LIG    1        6.503  -3.072   1.031  0.00  0.00    -0.010 A 
ATOM     17  C   LIG    1        7.474  -2.951   2.009  0.00  0.00    +0.030 A 
ATOM     18  C   LIG    1        7.480  -1.855   2.851  0.00  0.00    +0.000 A 
ATOM     19  C   LIG    1        6.510  -0.877   2.725  0.00  0.00    +0.040 A 
ATOM     20  C   LIG    1        5.538  -1.000   1.754  0.00  0.00    -0.100 A 
ENDBRANCH   2   9
BRANCH   6  21
ATOM     21  C   LIG    1       -0.820   2.140  -0.765  0.00  0.00    +0.490 A 
ATOM     22  N   LIG    1       -1.399   1.354  -1.660  0.00  0.00    -0.550 NA
ATOM     23  C   LIG    1       -2.142   1.865  -2.629  0.00  0.00    +0.340 A 
ATOM     24  C   LIG    1       -2.299   3.240  -2.706  0.00  0.00    -0.110 A 
ATOM     25  C   LIG    1       -1.674   4.033  -1.756  0.00  0.00    +0.350 A 
ATOM     26  N   LIG    1       -0.950   3.457  -0.810  0.00  0.00    -0.530 NA
ENDBRANCH   6  21
TORSDOF 2
