REMARK  Name = ZINCrH000004uBvR.0
REMARK                            x       y       z     vdW  Elec       q    Type
REMARK                         _______ _______ _______ _____ _____    ______ ____
ROOT
ATOM      1  O   LIG    1       -4.747  -0.357   0.726  0.00  0.00    -0.510 OA
ATOM      2  C   LIG    1       -4.064   0.043   1.649  0.00  0.00    +0.560 C 
ATOM      3  N   LIG    1       -2.927   0.722   1.401  0.00  0.00    -0.720 N 
ATOM      4  H   LIG    1       -2.382   1.041   2.138  0.00  0.00    +0.400 HD
ENDROOT
BRANCH   2   5
ATOM      5  C   LIG    1       -4.479  -0.216   3.039  0.00  0.00    -0.120 A 
ATOM      6  C   LIG    1       -3.698   0.240   4.103  0.00  0.00    +0.060 A 
ATOM      7  C   LIG    1       -4.092  -0.004   5.401  0.00  0.00    +0.020 A 
ATOM      8  C   LIG    1       -5.261  -0.703   5.658  0.00  0.00    +0.070 A 
ATOM      9  C   LIG    1       -6.045  -1.160   4.619  0.00  0.00    +0.010 A 
ATOM     10  C   LIG    1       -5.667  -0.919   3.303  0.00  0.00    -0.050 A 
BRANCH  10  11
ATOM     11  S   LIG    1       -6.668  -1.496   1.973  0.00  0.00    +0.030 S 
BRANCH  11  12
ATOM     12  C   LIG    1       -8.044  -2.316   2.825  0.00  0.00    +0.360 C 
ATOM     13  F   LIG    1       -8.709  -1.389   3.636  0.00  0.00    -0.190 F 
ATOM     14  F   LIG    1       -7.549  -3.357   3.617  0.00  0.00    -0.190 F 
ENDBRANCH  11  12
ENDBRANCH  10  11
ENDBRANCH   2   5
BRANCH   3  15
ATOM     15  C   LIG    1       -2.514   0.980   0.019  0.00  0.00    +0.320 C 
BRANCH  15  16
ATOM     16  C   LIG    1       -1.219   1.751   0.017  0.00  0.00    -0.110 A 
ATOM     17  C   LIG    1       -0.013   1.076   0.008  0.00  0.00    +0.030 A 
ATOM     18  C   LIG    1        1.175   1.783   0.000  0.00  0.00    +0.000 A 
ATOM     19  C   LIG    1        1.156   3.165   0.008  0.00  0.00    -0.070 A 
ATOM     20  C   LIG    1       -0.050   3.840   0.023  0.00  0.00    +0.030 A 
ATOM     21  C   LIG    1       -1.238   3.133   0.030  0.00  0.00    +0.030 A 
BRANCH  19  22
ATOM     22  C   LIG    1        2.451   3.937  -0.001  0.00  0.00    +0.230 C 
BRANCH  22  23
ATOM     23  N   LIG    1        2.859   4.194  -1.388  0.00  0.00    -0.530 NA
ATOM     24  C   LIG    1        3.201   2.942  -2.078  0.00  0.00    +0.140 C 
ATOM     25  C   LIG    1        3.561   3.249  -3.534  0.00  0.00    +0.220 C 
ATOM     26  O   LIG    1        4.634   4.195  -3.564  0.00  0.00    -0.390 OA
ATOM     27  C   LIG    1        4.335   5.427  -2.902  0.00  0.00    +0.220 C 
ATOM     28  C   LIG    1        3.982   5.141  -1.440  0.00  0.00    +0.150 C 
ENDBRANCH  22  23
ENDBRANCH  19  22
ENDBRANCH  15  16
ENDBRANCH   3  15
TORSDOF 7
