REMARK  Name = ZINCb70000002qVc.0
REMARK                            x       y       z     vdW  Elec       q    Type
REMARK                         _______ _______ _______ _____ _____    ______ ____
ROOT
ATOM      1  C   LIG    1       -1.827  -0.953  -1.449  0.00  0.00    +0.080 C 
ATOM      2  C   LIG    1       -1.434  -0.557  -0.024  0.00  0.00    +0.180 C 
ATOM      3  O   LIG    1       -1.394  -1.724   0.829  0.00  0.00    -0.350 OA
ATOM      4  C   LIG    1       -0.555  -1.353   1.945  0.00  0.00    +0.230 C 
ATOM      5  C   LIG    1        0.599  -0.536   1.318  0.00  0.00    -0.020 C 
ATOM      6  C   LIG    1        0.002  -0.004   0.002  0.00  0.00    +0.060 C 
ATOM      7  C   LIG    1       -0.019   1.520   0.010  0.00  0.00    +0.270 C 
ATOM      8  N   LIG    1        1.361   2.028   0.000  0.00  0.00    -0.510 N 
ATOM      9  C   LIG    1        2.054   1.532  -1.197  0.00  0.00    +0.250 C 
ATOM     10  C   LIG    1        2.084   0.002  -1.172  0.00  0.00    +0.260 C 
ATOM     11  H   LIG    1        1.844   1.708   0.826  0.00  0.00    +0.430 HD
ATOM     12  H   LIG    1        1.349   3.037  -0.013  0.00  0.00    +0.440 HD
ATOM     13  O   LIG    1        0.743  -0.494  -1.110  0.00  0.00    -0.330 OA
ENDROOT
TORSDOF 0
