REMARK  Name = ZINCrH000004pOGt.0
REMARK                            x       y       z     vdW  Elec       q    Type
REMARK                         _______ _______ _______ _____ _____    ______ ____
ROOT
ATOM      1  C   LIG    1       -9.311   3.671   0.109  0.00  0.00    +0.100 A 
ATOM      2  C   LIG    1       -9.614   4.970   0.117  0.00  0.00    -0.130 A 
ATOM      3  S   LIG    1       -8.106   5.882   0.114  0.00  0.00    +0.250 S 
ATOM      4  C   LIG    1       -7.213   4.425   0.092  0.00  0.00    +0.240 A 
ATOM      5  N   LIG    1       -8.018   3.408   0.096  0.00  0.00    -0.490 NA
ENDROOT
BRANCH   4   6
ATOM      6  N   LIG    1       -5.826   4.342   0.079  0.00  0.00    -0.610 N 
ATOM      7  H   LIG    1       -5.393   3.474   0.071  0.00  0.00    +0.430 HD
ATOM      8  C   LIG    1       -5.084   5.467   0.076  0.00  0.00    +0.600 C 
ATOM      9  O   LIG    1       -5.628   6.554   0.086  0.00  0.00    -0.500 OA
BRANCH   8  10
ATOM     10  C   LIG    1       -3.614   5.378   0.062  0.00  0.00    +0.010 A 
ATOM     11  C   LIG    1       -2.822   6.474   0.059  0.00  0.00    -0.010 A 
ATOM     12  S   LIG    1       -1.184   5.983   0.041  0.00  0.00    +0.260 S 
ATOM     13  C   LIG    1       -1.672   4.292   0.039  0.00  0.00    +0.110 A 
ATOM     14  N   LIG    1       -2.971   4.218   0.045  0.00  0.00    -0.430 NA
BRANCH  13  15
ATOM     15  C   LIG    1       -0.755   3.142   0.025  0.00  0.00    +0.040 A 
ATOM     16  C   LIG    1        0.606   3.204   0.013  0.00  0.00    +0.000 A 
ATOM     17  C   LIG    1        1.072   1.876   0.002  0.00  0.00    -0.050 A 
ATOM     18  C   LIG    1       -0.013   1.076   0.008  0.00  0.00    +0.200 A 
ATOM     19  O   LIG    1       -1.114   1.843   0.017  0.00  0.00    -0.150 OA
ENDBRANCH  13  15
ENDBRANCH   8  10
ENDBRANCH   4   6
BRANCH   1  20
ATOM     20  C   LIG    1      -10.361   2.590   0.113  0.00  0.00    +0.280 C 
BRANCH  20  24
ATOM     21  C   LIG    1      -12.179   3.864  -4.280  0.00  0.00    +0.060 C 
ATOM     22  C   LIG    1      -11.458   2.773  -3.486  0.00  0.00    +0.160 C 
ATOM     23  C   LIG    1      -11.252   3.242  -2.043  0.00  0.00    +0.150 C 
ATOM     24  N   LIG    1      -10.629   2.161  -1.266  0.00  0.00    -0.530 NA
ATOM     25  C   LIG    1      -11.466   0.953  -1.289  0.00  0.00    +0.170 C 
ATOM     26  C   LIG    1      -11.669   0.507  -2.739  0.00  0.00    +0.160 C 
ATOM     27  C   LIG    1      -12.605  -0.704  -2.775  0.00  0.00    +0.060 C 
ATOM     28  O   LIG    1      -12.247   1.581  -3.486  0.00  0.00    -0.380 OA
ENDBRANCH  20  24
ENDBRANCH   1  20
TORSDOF 5
