REMARK  Name = ZINCfA000000bmw0.1
REMARK                            x       y       z     vdW  Elec       q    Type
REMARK                         _______ _______ _______ _____ _____    ______ ____
ROOT
ATOM      1  C   LIG    1       -0.817   1.444  -3.675  0.00  0.00    +0.070 C 
ATOM      2  C   LIG    1       -0.068   0.935  -2.441  0.00  0.00    -0.020 C 
ATOM      3  C   LIG    1        1.388   1.405  -2.497  0.00  0.00    +0.030 C 
ATOM      4  C   LIG    1        2.108   0.958  -1.221  0.00  0.00    +0.060 C 
ATOM      5  C   LIG    1        1.366   1.511  -0.003  0.00  0.00    +0.250 C 
ATOM      6  N   LIG    1       -0.012   1.005   0.008  0.00  0.00    -0.380 N 
ATOM      7  H   LIG    1        0.002  -0.004   0.002  0.00  0.00    +0.420 HD
ATOM      8  C   LIG    1       -0.730   1.490  -1.177  0.00  0.00    +0.250 C 
ENDROOT
BRANCH   6   9
ATOM      9  C   LIG    1       -0.696   1.477   1.218  0.00  0.00    +0.330 C 
BRANCH   9  10
ATOM     10  C   LIG    1       -0.038   0.878   2.434  0.00  0.00    -0.180 A 
ATOM     11  C   LIG    1       -0.485  -0.330   2.938  0.00  0.00    +0.080 A 
ATOM     12  C   LIG    1        0.121  -0.883   4.050  0.00  0.00    +0.000 A 
ATOM     13  C   LIG    1        1.170  -0.222   4.665  0.00  0.00    +0.140 A 
ATOM     14  C   LIG    1        1.615   0.989   4.163  0.00  0.00    +0.000 A 
ATOM     15  F   LIG    1        1.761  -0.759   5.755  0.00  0.00    -0.120 F 
ATOM     16  C   LIG    1        1.010   1.538   3.048  0.00  0.00    +0.070 A 
ENDBRANCH   9  10
ENDBRANCH   6   9
TORSDOF 2
