REMARK  Name = ZINCfA000000bmw0.0
REMARK                            x       y       z     vdW  Elec       q    Type
REMARK                         _______ _______ _______ _____ _____    ______ ____
ROOT
ATOM      1  C   LIG    1       -0.208  -4.039  -3.530  0.00  0.00    +0.030 C 
ATOM      2  C   LIG    1        1.029  -4.636  -2.856  0.00  0.00    +0.010 C 
ATOM      3  C   LIG    1        2.285  -4.208  -3.619  0.00  0.00    +0.040 C 
ATOM      4  C   LIG    1        2.422  -2.684  -3.543  0.00  0.00    +0.050 C 
ATOM      5  C   LIG    1        2.460  -2.254  -2.075  0.00  0.00    +0.250 C 
ATOM      6  N   LIG    1        1.220  -2.669  -1.407  0.00  0.00    -0.380 N 
ATOM      7  H   LIG    1        0.430  -2.276  -1.895  0.00  0.00    +0.420 HD
ATOM      8  C   LIG    1        1.118  -4.134  -1.413  0.00  0.00    +0.260 C 
ENDROOT
BRANCH   6   9
ATOM      9  C   LIG    1        1.227  -2.186  -0.020  0.00  0.00    +0.330 C 
BRANCH   9  10
ATOM     10  C   LIG    1        1.208  -0.679  -0.013  0.00  0.00    -0.180 A 
ATOM     11  C   LIG    1        0.002  -0.004   0.002  0.00  0.00    +0.080 A 
ATOM     12  C   LIG    1       -0.017   1.378   0.010  0.00  0.00    +0.000 A 
ATOM     13  C   LIG    1        1.173   2.086   0.002  0.00  0.00    +0.140 A 
ATOM     14  C   LIG    1        2.381   1.408  -0.013  0.00  0.00    +0.000 A 
ATOM     15  F   LIG    1        1.156   3.437   0.009  0.00  0.00    -0.120 F 
ATOM     16  C   LIG    1        2.397   0.026  -0.020  0.00  0.00    +0.070 A 
ENDBRANCH   9  10
ENDBRANCH   6   9
TORSDOF 2
