REMARK  Name = ZINCpk000000omwc.0
REMARK                            x       y       z     vdW  Elec       q    Type
REMARK                         _______ _______ _______ _____ _____    ______ ____
ROOT
ATOM      1  N   LIG    1        1.287  -2.641  -2.235  0.00  0.00    -0.720 N 
ATOM      2  H   LIG    1        1.933  -2.071  -2.680  0.00  0.00    +0.410 HD
ATOM      3  C   LIG    1        1.019  -3.868  -2.726  0.00  0.00    +0.710 C 
ATOM      4  N   LIG    1        1.648  -4.301  -3.836  0.00  0.00    -0.680 N 
ATOM      5  H   LIG    1        2.244  -3.708  -4.319  0.00  0.00    +0.410 HD
ATOM      6  O   LIG    1        0.209  -4.582  -2.167  0.00  0.00    -0.560 OA
ENDROOT
BRANCH   4   7
ATOM      7  C   LIG    1        1.443  -5.609  -4.291  0.00  0.00    +0.180 A 
ATOM      8  C   LIG    1        2.483  -6.309  -4.887  0.00  0.00    +0.010 A 
ATOM      9  C   LIG    1        2.283  -7.603  -5.331  0.00  0.00    +0.080 A 
ATOM     10  C   LIG    1        1.044  -8.198  -5.194  0.00  0.00    +0.010 A 
ATOM     11  C   LIG    1       -0.002  -7.501  -4.604  0.00  0.00    +0.140 A 
ATOM     12  C   LIG    1        0.197  -6.205  -4.152  0.00  0.00    +0.060 A 
BRANCH  11  13
ATOM     13  N   LIG    1       -1.259  -8.107  -4.465  0.00  0.00    -0.320 N 
ATOM     14  N   LIG    1       -2.175  -7.944  -3.411  0.00  0.00    -0.060 NA
ATOM     15  N   LIG    1       -3.196  -8.681  -3.685  0.00  0.00    -0.030 NA
ATOM     16  N   LIG    1       -3.024  -9.292  -4.800  0.00  0.00    -0.330 NA
ATOM     17  C   LIG    1       -1.860  -8.976  -5.326  0.00  0.00    +0.210 A 
BRANCH  17  18
ATOM     18  S   LIG    1       -1.201  -9.566  -6.850  0.00  0.00    +0.050 S 
ATOM     19  C   LIG    1       -2.555 -10.644  -7.380  0.00  0.00    +0.160 C 
ENDBRANCH  17  18
ENDBRANCH  11  13
ENDBRANCH   4   7
BRANCH   1  20
ATOM     20  C   LIG    1        0.603  -2.170  -1.028  0.00  0.00    +0.260 C 
ATOM     21  C   LIG    1        1.351  -2.668   0.210  0.00  0.00    +0.060 C 
BRANCH  20  24
ATOM     22  N   LIG    1       -0.010  -0.003  -0.004  0.00  0.00    -0.720 N 
ATOM     23  H   LIG    1       -0.410  -0.498   0.728  0.00  0.00    +0.400 HD
ATOM     24  C   LIG    1        0.574  -0.663  -1.024  0.00  0.00    +0.510 C 
ATOM     25  O   LIG    1        1.075  -0.044  -1.939  0.00  0.00    -0.530 OA
BRANCH  22  26
ATOM     26  C   LIG    1       -0.038   1.462  -0.000  0.00  0.00    +0.260 C 
BRANCH  26  28
ATOM     27  C   LIG    1       -0.783   3.484   1.264  0.00  0.00    +0.030 C 
ATOM     28  C   LIG    1       -0.753   1.954   1.260  0.00  0.00    +0.000 C 
ENDBRANCH  26  28
ENDBRANCH  22  26
ENDBRANCH  20  24
ENDBRANCH   1  20
TORSDOF 7
