REMARK  Name = ZINCpk000000nFcJ.0
REMARK                            x       y       z     vdW  Elec       q    Type
REMARK                         _______ _______ _______ _____ _____    ______ ____
ROOT
ATOM      1  N   LIG    1        2.303   8.134   1.343  0.00  0.00    -0.530 NA
ATOM      2  C   LIG    1        3.558   7.375   1.429  0.00  0.00    +0.160 C 
ATOM      3  C   LIG    1        3.646   6.405   0.246  0.00  0.00    +0.310 C 
ATOM      4  N   LIG    1        2.424   5.586   0.221  0.00  0.00    -0.590 N 
ATOM      5  C   LIG    1        1.125   6.274   0.266  0.00  0.00    +0.300 C 
ATOM      6  C   LIG    1        2.493   4.242   0.153  0.00  0.00    +0.570 C 
ATOM      7  O   LIG    1        1.474   3.582   0.118  0.00  0.00    -0.530 OA
ATOM      8  C   LIG    1        1.136   7.249   1.454  0.00  0.00    +0.170 C 
ENDROOT
BRANCH   6   9
ATOM      9  C   LIG    1        3.813   3.569   0.121  0.00  0.00    +0.110 A 
ATOM     10  C   LIG    1        3.908   2.222   0.456  0.00  0.00    +0.040 A 
ATOM     11  C   LIG    1        5.156   1.604   0.420  0.00  0.00    +0.210 A 
ATOM     12  C   LIG    1        6.262   2.367   0.055  0.00  0.00    -0.030 A 
ATOM     13  C   LIG    1        6.086   3.701  -0.270  0.00  0.00    +0.310 A 
ATOM     14  N   LIG    1        4.894   4.257  -0.227  0.00  0.00    -0.460 NA
BRANCH  11  15
ATOM     15  N   LIG    1        5.295   0.251   0.750  0.00  0.00    -0.340 N 
ATOM     16  C   LIG    1        6.454  -0.458   0.746  0.00  0.00    +0.230 A 
ATOM     17  C   LIG    1        6.161  -1.723   1.125  0.00  0.00    -0.090 A 
ATOM     18  C   LIG    1        4.783  -1.795   1.360  0.00  0.00    +0.270 A 
ATOM     19  N   LIG    1        4.264  -0.615   1.136  0.00  0.00    -0.280 NA
ENDBRANCH  11  15
ENDBRANCH   6   9
BRANCH   1  20
ATOM     20  C   LIG    1        2.259   9.193   2.360  0.00  0.00    +0.190 C 
BRANCH  20  21
ATOM     21  C   LIG    1        3.167  10.348   1.933  0.00  0.00    +0.170 C 
BRANCH  21  22
ATOM     22  O   LIG    1        2.679  10.912   0.714  0.00  0.00    -0.360 OA
BRANCH  22  24
ATOM     23  C   LIG    1        4.555  11.475  -0.701  0.00  0.00    -0.000 C 
ATOM     24  C   LIG    1        3.460  12.005   0.226  0.00  0.00    +0.130 C 
ATOM     25  C   LIG    1        2.559  12.970  -0.548  0.00  0.00    +0.040 C 
ENDBRANCH  22  24
ENDBRANCH  21  22
ENDBRANCH  20  21
ENDBRANCH   1  20
TORSDOF 6
