REMARK  Name = ZINCvU00000003Te.0
REMARK                            x       y       z     vdW  Elec       q    Type
REMARK                         _______ _______ _______ _____ _____    ______ ____
ROOT
ATOM      1  C   LIG    1        1.416   1.173   7.362  0.00  0.00    -0.250 A 
ATOM      2  C   LIG    1        1.759   2.375   6.881  0.00  0.00    +0.040 A 
ATOM      3  C   LIG    1        1.061   2.789   5.742  0.00  0.00    -0.200 A 
ATOM      4  C   LIG    1        1.174   3.989   4.987  0.00  0.00    +0.430 A 
ATOM      5  N   LIG    1        0.394   4.158   3.932  0.00  0.00    -0.550 NA
ATOM      6  C   LIG    1       -0.481   3.238   3.571  0.00  0.00    +0.400 A 
ATOM      7  N   LIG    1       -0.630   2.115   4.235  0.00  0.00    -0.500 NA
ATOM      8  C   LIG    1        0.115   1.847   5.312  0.00  0.00    +0.120 A 
ATOM      9  C   LIG    1        2.826   3.224   7.523  0.00  0.00    +0.150 C 
ATOM     10  S   LIG    1        0.148   0.453   6.384  0.00  0.00    +0.270 S 
ENDROOT
BRANCH   1  11
ATOM     11  C   LIG    1        2.017   0.545   8.543  0.00  0.00    +0.540 C 
ATOM     12  O   LIG    1        2.893   1.121   9.159  0.00  0.00    -0.480 OA
BRANCH  11  13
ATOM     13  O   LIG    1        1.599  -0.673   8.946  0.00  0.00    -0.350 OA
BRANCH  13  15
ATOM     14  C   LIG    1        1.637  -2.608  10.423  0.00  0.00    +0.070 C 
ATOM     15  C   LIG    1        2.238  -1.234  10.122  0.00  0.00    +0.200 C 
ENDBRANCH  13  15
ENDBRANCH  11  13
ENDBRANCH   1  11
BRANCH   6  16
ATOM     16  C   LIG    1       -1.343   3.488   2.360  0.00  0.00    +0.300 C 
BRANCH  16  17
ATOM     17  N   LIG    1       -0.665   2.974   1.162  0.00  0.00    -0.530 NA
ATOM     18  C   LIG    1       -0.553   1.508   1.208  0.00  0.00    +0.160 C 
ATOM     19  C   LIG    1        0.209   1.021  -0.027  0.00  0.00    +0.220 C 
ATOM     20  O   LIG    1       -0.460   1.477  -1.206  0.00  0.00    -0.380 OA
ATOM     21  C   LIG    1       -0.585   2.900  -1.283  0.00  0.00    +0.220 C 
ATOM     22  C   LIG    1       -1.357   3.406  -0.061  0.00  0.00    +0.160 C 
ENDBRANCH  16  17
ENDBRANCH   6  16
BRANCH   4  23
ATOM     23  O   LIG    1        2.065   4.943   5.343  0.00  0.00    -0.220 OA
BRANCH  23  24
ATOM     24  C   LIG    1        2.201   6.024   4.531  0.00  0.00    +0.110 A 
ATOM     25  C   LIG    1        3.298   6.125   3.687  0.00  0.00    +0.050 A 
ATOM     26  C   LIG    1        3.432   7.224   2.858  0.00  0.00    -0.010 A 
ATOM     27  C   LIG    1        2.478   8.226   2.876  0.00  0.00    +0.060 A 
ATOM     28  C   LIG    1        1.386   8.129   3.720  0.00  0.00    -0.010 A 
ATOM     29 CL   LIG    1        0.192   9.389   3.741  0.00  0.00    -0.040 Cl
ATOM     30 CL   LIG    1        4.801   7.348   1.798  0.00  0.00    -0.040 Cl
ATOM     31  C   LIG    1        1.246   7.030   4.548  0.00  0.00    +0.060 A 
ENDBRANCH  23  24
ENDBRANCH   4  23
TORSDOF 7
