REMARK  Name = ZINCCC0000000aZH.0
REMARK                            x       y       z     vdW  Elec       q    Type
REMARK                         _______ _______ _______ _____ _____    ______ ____
ROOT
ATOM      1  C   LIG    1        1.075  -0.455   1.342  0.00  0.00    +0.190 C 
ATOM      2  C   LIG    1        0.192  -0.035   0.171  0.00  0.00    +0.060 C 
ATOM      3  C   LIG    1        0.106   1.500   0.119  0.00  0.00    +0.240 C 
ATOM      4  N   LIG    1        1.481   2.015   0.099  0.00  0.00    -0.570 N 
ATOM      5  C   LIG    1        1.771   3.322   0.162  0.00  0.00    +0.500 C 
ATOM      6  C   LIG    1        0.754   4.429   0.168  0.00  0.00    +0.190 C 
ATOM      7  C   LIG    1        1.488   5.758   0.419  0.00  0.00    +0.130 C 
ATOM      8  C   LIG    1        2.075   5.721   1.810  0.00  0.00    -0.040 C 
ATOM      9  C   LIG    1        1.604   6.521   2.738  0.00  0.00    -0.020 C 
ATOM     10  C   LIG    1        2.130   6.430   4.147  0.00  0.00    +0.340 C 
ATOM     11  N   LIG    1        1.018   6.210   5.085  0.00  0.00    -0.950 N 
ATOM     12  S   LIG    1        1.266   5.197   6.390  0.00  0.00    +2.670 S 
ATOM     13  C   LIG    1        0.584   3.640   5.935  0.00  0.00    -0.680 A 
ATOM     14  C   LIG    1        0.995   3.067   4.748  0.00  0.00    +0.170 A 
ATOM     15  C   LIG    1        0.482   1.827   4.351  0.00  0.00    -0.170 A 
ATOM     16  C   LIG    1        0.975   1.274   3.075  0.00  0.00    +0.550 C 
ATOM     17  O   LIG    1        1.791   1.939   2.471  0.00  0.00    -0.530 OA
ATOM     18  C   LIG    1       -0.449   1.179   5.151  0.00  0.00    +0.140 A 
ATOM     19  C   LIG    1       -0.850   1.758   6.341  0.00  0.00    +0.030 A 
ATOM     20  C   LIG    1       -0.336   2.987   6.734  0.00  0.00    +0.080 A 
ATOM     21 CL   LIG    1       -0.859   3.687   8.233  0.00  0.00    +0.010 Cl
ATOM     22  O   LIG    1        2.671   5.009   6.492  0.00  0.00    -0.920 OA
ATOM     23  O   LIG    1        0.473   5.711   7.449  0.00  0.00    -0.900 OA
ATOM     24  O   LIG    1        2.953   3.633   0.211  0.00  0.00    -0.490 OA
ATOM     25  C   LIG    1        2.594   1.053  -0.008  0.00  0.00    +0.310 C 
ATOM     26  N   LIG    1        0.552   0.096   2.594  0.00  0.00    -0.700 N 
ATOM     27  H   LIG    1       -0.129  -0.408   3.093  0.00  0.00    +0.410 HD
ATOM     28  C   LIG    1        2.506   0.002   1.088  0.00  0.00    +0.050 C 
ENDROOT
BRANCH  11  29
ATOM     29  C   LIG    1       -0.220   6.835   4.905  0.00  0.00    +0.150 A 
ATOM     30  C   LIG    1       -1.176   6.261   4.077  0.00  0.00    -0.020 A 
ATOM     31  C   LIG    1       -2.398   6.881   3.902  0.00  0.00    +0.030 A 
ATOM     32  C   LIG    1       -2.671   8.072   4.550  0.00  0.00    +0.050 A 
ATOM     33  C   LIG    1       -1.722   8.647   5.375  0.00  0.00    +0.060 A 
ATOM     34  C   LIG    1       -0.499   8.030   5.559  0.00  0.00    -0.010 A 
ATOM     35 CL   LIG    1        0.689   8.749   6.601  0.00  0.00    -0.040 Cl
ENDBRANCH  11  29
BRANCH   6  36
ATOM     36  N   LIG    1       -0.231   4.252   1.240  0.00  0.00    -0.640 N 
ATOM     37  H   LIG    1        0.248   4.091   2.113  0.00  0.00    +0.430 HD
ATOM     38  H   LIG    1       -0.820   3.460   1.028  0.00  0.00    +0.430 HD
ATOM     39  H   LIG    1       -0.799   5.082   1.316  0.00  0.00    +0.440 HD
ENDBRANCH   6  36
BRANCH   1  40
ATOM     40  C   LIG    1        1.060  -1.989   1.453  0.00  0.00    +0.180 C 
BRANCH  40  42
ATOM     41  C   LIG    1        1.939  -3.811   2.738  0.00  0.00    +0.220 C 
ATOM     42  O   LIG    1        1.884  -2.396   2.547  0.00  0.00    -0.380 OA
ENDBRANCH  40  42
ENDBRANCH   1  40
TORSDOF 4
