REMARK  Name = ZINCrH000004uGa1.0
REMARK                            x       y       z     vdW  Elec       q    Type
REMARK                         _______ _______ _______ _____ _____    ______ ____
ROOT
ATOM      1  O   LIG    1       -3.623   2.903   0.137  0.00  0.00    -0.570 OA
ATOM      2  C   LIG    1       -3.601   1.687   0.130  0.00  0.00    +0.710 C 
ATOM      3  N   LIG    1       -2.426   1.036   0.019  0.00  0.00    -0.690 N 
ATOM      4  H   LIG    1       -2.413   0.070  -0.064  0.00  0.00    +0.410 HD
ATOM      5  N   LIG    1       -4.750   0.991   0.233  0.00  0.00    -0.710 N 
ATOM      6  H   LIG    1       -4.732   0.021   0.228  0.00  0.00    +0.400 HD
ENDROOT
BRANCH   3   7
ATOM      7  C   LIG    1       -1.226   1.753   0.024  0.00  0.00    +0.190 A 
ATOM      8  C   LIG    1       -0.147   1.305  -0.730  0.00  0.00    -0.020 A 
ATOM      9  C   LIG    1        1.035   2.013  -0.732  0.00  0.00    +0.060 A 
ATOM     10  C   LIG    1        1.151   3.178   0.029  0.00  0.00    -0.050 A 
ATOM     11  C   LIG    1        0.068   3.622   0.790  0.00  0.00    +0.090 A 
ATOM     12  C   LIG    1       -1.112   2.909   0.787  0.00  0.00    +0.020 A 
BRANCH  10  13
ATOM     13  C   LIG    1        2.418   3.939   0.030  0.00  0.00    +0.130 A 
ATOM     14  N   LIG    1        2.641   5.035   0.698  0.00  0.00    -0.470 NA
ATOM     15  C   LIG    1        3.832   5.575   0.577  0.00  0.00    +0.220 A 
ATOM     16  C   LIG    1        4.686   4.932  -0.226  0.00  0.00    -0.070 A 
ATOM     17  S   LIG    1        3.871   3.506  -0.867  0.00  0.00    +0.080 S 
ENDBRANCH  10  13
ENDBRANCH   3   7
BRANCH   5  18
ATOM     18  C   LIG    1       -6.027   1.699   0.354  0.00  0.00    +0.360 C 
BRANCH  18  19
ATOM     19  C   LIG    1       -7.149   0.698   0.453  0.00  0.00    -0.160 A 
ATOM     20  C   LIG    1       -7.916   0.392  -0.657  0.00  0.00    +0.120 A 
ATOM     21  C   LIG    1       -8.939  -0.536  -0.520  0.00  0.00    -0.030 A 
ATOM     22  C   LIG    1       -9.159  -1.122   0.712  0.00  0.00    +0.310 A 
ATOM     23  N   LIG    1       -8.411  -0.810   1.752  0.00  0.00    -0.500 NA
ATOM     24  C   LIG    1       -7.424   0.066   1.660  0.00  0.00    +0.390 A 
BRANCH  24  25
ATOM     25  N   LIG    1       -6.653   0.362   2.788  0.00  0.00    -0.330 N 
ATOM     26  C   LIG    1       -7.046   0.237   4.082  0.00  0.00    +0.260 A 
ATOM     27  C   LIG    1       -6.011   0.620   4.864  0.00  0.00    -0.100 A 
ATOM     28  C   LIG    1       -4.956   1.001   4.027  0.00  0.00    +0.250 A 
ATOM     29  N   LIG    1       -5.338   0.847   2.785  0.00  0.00    -0.270 NA
ENDBRANCH  24  25
ENDBRANCH  18  19
ENDBRANCH   5  18
TORSDOF 5
