REMARK  Name = ZINCbw0000000HjB.0
REMARK                            x       y       z     vdW  Elec       q    Type
REMARK                         _______ _______ _______ _____ _____    ______ ____
ROOT
ATOM      1  C   LIG    1       -2.464  -2.877   0.010  0.00  0.00    +0.120 C 
ATOM      2  C   LIG    1       -1.172  -2.101   0.002  0.00  0.00    -0.100 A 
ATOM      3  C   LIG    1       -1.198  -0.724   0.010  0.00  0.00    +0.120 A 
ATOM      4  C   LIG    1        0.002  -0.004   0.002  0.00  0.00    -0.220 A 
ATOM      5  C   LIG    1        1.223  -0.692  -0.019  0.00  0.00    +0.160 A 
ATOM      6  C   LIG    1        1.232  -2.074  -0.023  0.00  0.00    -0.010 A 
ATOM      7  F   LIG    1        2.387  -0.007  -0.032  0.00  0.00    -0.110 F 
ATOM      8  C   LIG    1        0.039  -2.776  -0.015  0.00  0.00    +0.020 A 
ATOM      9 CL   LIG    1        0.059  -4.512  -0.025  0.00  0.00    -0.040 Cl
ENDROOT
BRANCH   4  10
ATOM     10  C   LIG    1       -0.018   1.465   0.010  0.00  0.00    +0.500 C 
ATOM     11  O   LIG    1        1.024   2.086   0.004  0.00  0.00    -0.440 OA
ENDBRANCH   4  10
TORSDOF 1
